@<TRIPOS>MOLECULE
1ulb_GUN_A_1.pdb
 11 12 0 0 0
SMALL
GASTEIGER

@<TRIPOS>ATOM
      1  N9         2.9390   18.6780   25.7470 N.2   290  GUN290     -0.1802
      2  C8         2.6420   19.7880   26.5580 C.3   290  GUN290      0.2633
      3  N7         1.7900   19.4970   27.5610 N.2   290  GUN290     -0.2212
      4  C5         1.5740   18.1210   27.3780 C.2   290  GUN290      0.2482
      5  C6         0.7400   17.2820   28.1270 C.1   290  GUN290      0.2442
      6  O6         0.0380   17.6050   29.0880 O.2   290  GUN290     -0.2063
      7  N1         0.7090   15.9810   27.6170 N.2   290  GUN290     -0.2474
      8  C2         1.4290   15.5910   26.5300 C.1   290  GUN290      0.2608
      9  N2         1.3370   14.3080   26.1520 N.pl3 290  GUN290     -0.0220
     10  N3         2.2350   16.3870   25.8550 N.2   290  GUN290     -0.2682
     11  C4         2.2470   17.6290   26.3050 C.1   290  GUN290      0.1289
@<TRIPOS>BOND
     1     1    11    2
     2     1     2    1
     3    10    11    2
     4    10     8    2
     5     9     8    1
     6    11     4    1
     7     8     7    2
     8     2     3    1
     9     4     3    2
    10     4     5    1
    11     7     5    2
    12     5     6    2
