@<TRIPOS>MOLECULE
1ulc_BGC_A_1.pdb
 12 12 0 0 0
SMALL
GASTEIGER

@<TRIPOS>ATOM
      1  C2        30.4260    6.2460   86.2440 C.3   152  BGC152      0.2434
      2  C3        30.4290    5.6090   87.6280 C.3   152  BGC152      0.2199
      3  C4        30.0000    4.1430   87.5130 C.3   152  BGC152      0.2144
      4  C5        30.8780    3.4020   86.4860 C.3   152  BGC152      0.1836
      5  C6        30.3580    2.0080   86.1910 C.3   152  BGC152      0.2142
      6  C1        31.3740    5.4500   85.3560 C.3   152  BGC152      0.3024
      7  O1        31.4140    6.0080   84.0920 O.3   152  BGC152     -0.1869
      8  O2        30.8440    7.5990   86.3210 O.3   152  BGC152     -0.2148
      9  O3        29.5460    6.3100   88.4900 O.3   152  BGC152     -0.2174
     10  O4        30.1250    3.5080   88.7990 O.3   152  BGC152     -0.2176
     11  O5        30.8910    4.1110   85.2290 O.3   152  BGC152     -0.3236
     12  O6        29.0230    2.0600   85.7080 O.3   152  BGC152     -0.2176
@<TRIPOS>BOND
     1     7     6    1
     2    11     6    1
     3    11     4    1
     4     6     1    1
     5    12     5    1
     6     5     4    1
     7     1     8    1
     8     1     2    1
     9     4     3    1
    10     3     2    1
    11     3    10    1
    12     2     9    1
