@<TRIPOS>MOLECULE
1ulc_GAL_A_1.pdb
 11 11 0 0 0
SMALL
GASTEIGER

@<TRIPOS>ATOM
      1  C1        29.1650    2.5700   89.1330 C.3   151  GAL151      0.1777
      2  C2        29.6410    1.8180   90.3760 C.3   151  GAL151      0.2141
      3  C3        28.5380    0.9060   90.9260 C.3   151  GAL151      0.2173
      4  C4        27.2400    1.6970   91.1200 C.3   151  GAL151      0.2142
      5  C5        26.8690    2.4000   89.8190 C.3   151  GAL151      0.1810
      6  C6        25.6390    3.2570   89.9850 C.3   151  GAL151      0.2141
      7  O2        30.7920    1.0480   90.0520 O.3   151  GAL151     -0.2176
      8  O3        28.9500    0.3510   92.1690 O.3   151  GAL151     -0.2175
      9  O4        27.4050    2.6630   92.1480 O.3   151  GAL151     -0.2176
     10  O5        27.9410    3.2730   89.3990 O.3   151  GAL151     -0.3481
     11  O6        25.2820    3.8740   88.7590 O.3   151  GAL151     -0.2176
@<TRIPOS>BOND
     1    11     6    1
     2     1    10    1
     3     1     2    1
     4    10     5    1
     5     5     6    1
     6     5     4    1
     7     7     2    1
     8     2     3    1
     9     3     4    1
    10     3     8    1
    11     4     9    1
