@<TRIPOS>MOLECULE
1uld_GAL_A_1.pdb
 11 11 0 0 0
SMALL
GASTEIGER

@<TRIPOS>ATOM
      1  C1        -1.2850   38.9980   55.8300 C.3   151  GAL151      0.1777
      2  C2        -1.2980   40.4050   55.2190 C.3   151  GAL151      0.2141
      3  C3        -1.0700   40.3390   53.7060 C.3   151  GAL151      0.2173
      4  C4         0.1950   39.5420   53.4010 C.3   151  GAL151      0.2142
      5  C5         0.0670   38.1580   54.0360 C.3   151  GAL151      0.1810
      6  C6         1.2770   37.2810   53.7930 C.3   151  GAL151      0.2141
      7  O2        -2.5720   41.0290   55.4810 O.3   151  GAL151     -0.2176
      8  O3        -0.9480   41.6560   53.1880 O.3   151  GAL151     -0.2175
      9  O4         1.3270   40.2180   53.9370 O.3   151  GAL151     -0.2176
     10  O5        -0.0870   38.2890   55.4660 O.3   151  GAL151     -0.3481
     11  O6         1.1080   36.0000   54.3850 O.3   151  GAL151     -0.2176
@<TRIPOS>BOND
     1     8     3    1
     2     4     3    1
     3     4     9    1
     4     4     5    1
     5     3     2    1
     6     6     5    1
     7     6    11    1
     8     5    10    1
     9     2     7    1
    10     2     1    1
    11    10     1    1
