@<TRIPOS>MOLECULE
1ule_GAL_A_1.pdb
 11 11 0 0 0
SMALL
GASTEIGER

@<TRIPOS>ATOM
      1  C1        36.9660   10.8190   29.8670 C.3   152  GAL152      0.1777
      2  C2        36.8270   11.6740   31.1130 C.3   152  GAL152      0.2141
      3  C3        38.0500   12.5720   31.2450 C.3   152  GAL152      0.2173
      4  C4        39.3370   11.7350   31.2400 C.3   152  GAL152      0.2142
      5  C5        39.3600   10.8400   29.9940 C.3   152  GAL152      0.1810
      6  C6        40.5370    9.8950   29.9690 C.3   152  GAL152      0.2141
      7  O2        35.6520   12.4650   31.0020 O.3   152  GAL152     -0.2176
      8  O3        37.9560   13.3310   32.4610 O.3   152  GAL152     -0.2175
      9  O4        39.4090   10.9370   32.4130 O.3   152  GAL152     -0.2176
     10  O5        38.1650   10.0290   29.9350 O.3   152  GAL152     -0.3481
     11  O6        40.5700    9.1630   28.7530 O.3   152  GAL152     -0.2176
@<TRIPOS>BOND
     1    11     6    1
     2     1    10    1
     3     1     2    1
     4    10     5    1
     5     6     5    1
     6     5     4    1
     7     7     2    1
     8     2     3    1
     9     4     3    1
    10     4     9    1
    11     3     8    1
