@<TRIPOS>MOLECULE
1ulf_BGC_A_1.pdb
 12 12 0 0 0
SMALL
GASTEIGER

@<TRIPOS>ATOM
      1  C2        53.7170    7.0890    1.4860 C.3   153  BGC153      0.2434
      2  C3        54.0510    6.9120    2.9780 C.3   153  BGC153      0.2199
      3  C4        54.8430    5.6300    3.1740 C.3   153  BGC153      0.2144
      4  C5        56.0980    5.7000    2.3080 C.3   153  BGC153      0.1836
      5  C6        57.0060    4.5010    2.4710 C.3   153  BGC153      0.2142
      6  C1        54.9720    6.9470    0.6040 C.3   153  BGC153      0.3024
      7  O1        54.5850    6.8580   -0.7240 O.3   153  BGC153     -0.1869
      8  O2        53.1600    8.3780    1.2810 O.3   153  BGC153     -0.2148
      9  O3        52.8510    6.8440    3.7340 O.3   153  BGC153     -0.2174
     10  O4        55.1870    5.4550    4.5630 O.3   153  BGC153     -0.2176
     11  O5        55.7080    5.7570    0.9250 O.3   153  BGC153     -0.3236
     12  O6        56.3550    3.3120    2.0530 O.3   153  BGC153     -0.2176
@<TRIPOS>BOND
     1     7     6    1
     2     6    11    1
     3     6     1    1
     4    11     4    1
     5     8     1    1
     6     1     2    1
     7    12     5    1
     8     4     5    1
     9     4     3    1
    10     2     3    1
    11     2     9    1
    12     3    10    1
