@<TRIPOS>MOLECULE
1ulf_GAL_A_1.pdb
 11 11 0 0 0
SMALL
GASTEIGER

@<TRIPOS>ATOM
      1  C1        55.0420    4.1630    5.0360 C.3   152  GAL152      0.1777
      2  C2        55.8380    3.9750    6.3330 C.3   152  GAL152      0.2141
      3  C3        55.5710    2.5550    6.8690 C.3   152  GAL152      0.2173
      4  C4        54.0620    2.2990    7.0040 C.3   152  GAL152      0.2142
      5  C5        53.3930    2.5510    5.6580 C.3   152  GAL152      0.1810
      6  C6        51.8960    2.3620    5.7040 C.3   152  GAL152      0.2141
      7  O2        57.2360    4.1320    6.0210 O.3   152  GAL152     -0.2176
      8  O3        56.2220    2.3310    8.1410 O.3   152  GAL152     -0.2175
      9  O4        53.5130    3.1730    7.9860 O.3   152  GAL152     -0.2176
     10  O5        53.6440    3.9070    5.2390 O.3   152  GAL152     -0.3481
     11  O6        51.3440    2.3610    4.4000 O.3   152  GAL152     -0.2176
@<TRIPOS>BOND
     1    11     6    1
     2     1    10    1
     3     1     2    1
     4    10     5    1
     5     5     6    1
     6     5     4    1
     7     7     2    1
     8     2     3    1
     9     3     4    1
    10     3     8    1
    11     4     9    1
