@<TRIPOS>MOLECULE
1ulg_GAL_A_1.pdb
 11 11 0 0 0
SMALL
GASTEIGER

@<TRIPOS>ATOM
      1  C1       -33.8070  -20.4010  -17.0060 C.3   151  GAL151      0.1777
      2  C2       -33.1600  -21.2000  -15.8670 C.3   151  GAL151      0.2141
      3  C3       -34.1960  -21.4830  -14.7750 C.3   151  GAL151      0.2173
      4  C4       -34.8490  -20.1780  -14.3190 C.3   151  GAL151      0.2142
      5  C5       -35.4340  -19.4450  -15.5270 C.3   151  GAL151      0.1810
      6  C6       -36.0340  -18.1030  -15.1540 C.3   151  GAL151      0.2141
      7  O2       -32.6480  -22.4250  -16.3730 O.3   151  GAL151     -0.2176
      8  O3       -33.5710  -22.1150  -13.6690 O.3   151  GAL151     -0.2175
      9  O4       -33.8770  -19.3570  -13.6880 O.3   151  GAL151     -0.2176
     10  O5       -34.3980  -19.1940  -16.5020 O.3   151  GAL151     -0.3481
     11  O6       -36.3090  -17.3230  -16.3080 O.3   151  GAL151     -0.2176
@<TRIPOS>BOND
     1     1    10    1
     2     1     2    1
     3    10     5    1
     4     7     2    1
     5    11     6    1
     6     2     3    1
     7     5     6    1
     8     5     4    1
     9     3     4    1
    10     3     8    1
    11     4     9    1
