@<TRIPOS>MOLECULE
1ulj_BNL_A_1.pdb
 12 13 0 0 0
SMALL
GASTEIGER

@<TRIPOS>ATOM
      1  C1         8.2910   12.3090   96.2890 C.ar  601  BNL601      0.0000
      2  C2         6.9110   12.3460   96.5010 C.ar  601  BNL601      0.0000
      3  C3         6.3680   11.8600   97.6820 C.ar  601  BNL601      0.0000
      4  C4         7.2020   11.3260   98.6590 C.ar  601  BNL601      0.0000
      5  C5         8.5770   11.2880   98.4540 C.ar  601  BNL601      0.0000
      6  C6         9.1260   11.7770   97.2660 C.ar  601  BNL601      0.0000
      7  C12        4.3330   12.5860   93.8880 C.ar  601  BNL601      0.0000
      8  C13        4.5440   13.8820   93.4230 C.ar  601  BNL601      0.0000
      9  C14        5.5430   14.6600   93.9970 C.ar  601  BNL601      0.0000
     10  C15        6.3270   14.1510   95.0240 C.ar  601  BNL601      0.0000
     11  C16        6.1080   12.8620   95.4920 C.ar  601  BNL601      0.0000
     12  C17        5.1150   12.0740   94.9200 C.ar  601  BNL601      0.0000
@<TRIPOS>BOND
     1     8     7   ar
     2     8     9   ar
     3     7    12   ar
     4     9    10   ar
     5    12    11   ar
     6    10    11   ar
     7    11     2    1
     8     1     2   ar
     9     1     6   ar
    10     2     3   ar
    11     6     5   ar
    12     3     4   ar
    13     5     4   ar
