@<TRIPOS>MOLECULE
1ulv_ACR_A_1.pdb
 32 34 0 0 0
SMALL
GASTEIGER

@<TRIPOS>ATOM
      1  C1A       33.5560   18.7510   21.0860 C.3   3000  ACR3000     0.1273
      2  C2A       33.5430   19.1750   22.6030 C.3   3000  ACR3000     0.2049
      3  C3A       32.7800   20.5130   22.8060 C.3   3000  ACR3000     0.2179
      4  C4A       33.3960   21.7120   21.9680 C.3   3000  ACR3000     0.2053
      5  C5A       34.0450   21.2560   20.6110 C.2   3000  ACR3000     0.0180
      6  C6A       34.6470   22.3190   19.6930 C.3   3000  ACR3000     0.2066
      7  C7A       34.1000   19.9050   20.2210 C.2   3000  ACR3000    -0.0100
      8  O2A       32.9960   18.1070   23.3470 O.3   3000  ACR3000    -0.2184
      9  O3A       32.7840   20.8910   24.1670 O.3   3000  ACR3000    -0.2172
     10  O4A       32.3370   22.6500   21.8180 O.3   3000  ACR3000    -0.2157
     11  O6A       35.9620   22.6570   20.1700 O.3   3000  ACR3000    -0.2155
     12  C1B       30.6510   14.9250   18.3130 C.3   3000  ACR3000     0.2694
     13  C2B       31.1340   14.7050   19.7680 C.3   3000  ACR3000     0.2394
     14  C3B       31.1470   16.0580   20.5570 C.3   3000  ACR3000     0.2054
     15  C4B       32.1070   17.0360   19.8360 C.3   3000  ACR3000     0.1333
     16  C5B       31.5440   17.2690   18.3610 C.3   3000  ACR3000     0.1364
     17  C6B       32.4050   18.2000   17.5230 C.3   3000  ACR3000     0.0337
     18  N4B       32.1850   18.3380   20.5840 N.3   3000  ACR3000    -0.2087
     19  O2B       30.2880   13.7260   20.3840 O.3   3000  ACR3000    -0.2149
     20  O3B       31.5880   15.8000   21.8820 O.3   3000  ACR3000    -0.2186
     21  O5B       31.4580   15.9500   17.6370 O.3   3000  ACR3000    -0.3295
     22  C1C       26.1300   15.1000   15.3470 C.3   3000  ACR3000     0.1777
     23  C2C       27.5330   14.6020   14.8780 C.3   3000  ACR3000     0.2140
     24  C3C       28.3680   14.2450   16.1520 C.3   3000  ACR3000     0.2141
     25  C4C       28.5330   15.5600   17.0190 C.3   3000  ACR3000     0.1802
     26  C5C       27.1320   15.9990   17.4330 C.3   3000  ACR3000     0.1778
     27  C6C       27.1870   17.3100   18.2530 C.3   3000  ACR3000     0.2140
     28  O2C       27.3520   13.4770   14.0270 O.3   3000  ACR3000    -0.2176
     29  O3C       29.6260   13.7890   15.7220 O.3   3000  ACR3000    -0.2176
     30  O4C       29.2850   15.3530   18.2730 O.3   3000  ACR3000    -0.3257
     31  O5C       26.2950   16.2360   16.2310 O.3   3000  ACR3000    -0.3482
     32  O6C       25.8880   17.7820   18.4960 O.3   3000  ACR3000    -0.2176
@<TRIPOS>BOND
     1    28    23    1
     2    23    22    1
     3    23    24    1
     4    22    31    1
     5    29    24    1
     6    24    25    1
     7    31    26    1
     8    25    26    1
     9    25    30    1
    10    26    27    1
    11    17    16    1
    12    21    12    1
    13    21    16    1
    14    27    32    1
    15    30    12    1
    16    12    13    1
    17    16    15    1
    18     6    11    1
    19     6     5    1
    20    13    19    1
    21    13    14    1
    22    15    14    1
    23    15    18    1
    24     7     5    2
    25     7     1    1
    26    14    20    1
    27    18     1    1
    28     5     4    1
    29     1     2    1
    30    10     4    1
    31     4     3    1
    32     2     3    1
    33     2     8    1
    34     3     9    1
