@<TRIPOS>MOLECULE
1ulw_HEM_A_1.pdb
 43 50 0 0 0
SMALL
GASTEIGER

@<TRIPOS>ATOM
      1 FE         -3.9780    0.2420   24.1320 Fe    501  HEM501      0.0000
      2  CHA       -6.4850   -1.3780   25.8470 C.2   501  HEM501      0.0000
      3  CHB       -6.0290    0.5990   21.4020 C.2   501  HEM501      0.0000
      4  CHC       -1.4230    1.8240   22.3710 C.2   501  HEM501      0.0000
      5  CHD       -1.9210   -0.1890   26.7690 C.2   501  HEM501      0.0000
      6  NA        -5.8350   -0.2400   23.6700 N.ar  501  HEM501      0.0000
      7  C1A       -6.8080   -0.9100   24.4460 C.ar  501  HEM501      0.0000
      8  C2A       -8.0160   -1.0970   23.8450 C.ar  501  HEM501      0.0000
      9  C3A       -7.9590   -0.5640   22.5690 C.ar  501  HEM501      0.0000
     10  C4A       -6.5220   -0.0380   22.5520 C.ar  501  HEM501      0.0000
     11  CMA       -8.9760   -0.4960   21.4820 C.3   501  HEM501      0.0000
     12  CAA       -9.2910   -1.7790   24.4190 C.3   501  HEM501      0.0000
     13  CBA      -10.0490   -0.6810   25.2950 C.3   501  HEM501      0.0000
     14  CGA      -11.3000   -1.2110   25.9000 C.2   501  HEM501      0.0000
     15  O1A      -12.3460   -0.5310   25.7220 O.co2 501  HEM501      0.0000
     16  O2A      -11.2670   -2.2650   26.5620 O.co2 501  HEM501      0.0000
     17  NB        -3.7470    1.0630   22.2620 N.2   501  HEM501      0.0000
     18  C1B       -4.6780    1.1430   21.2360 C.2   501  HEM501      0.0000
     19  C2B       -4.1760    1.8130   19.9990 C.2   501  HEM501      0.0000
     20  C3B       -2.8890    2.0940   20.4130 C.2   501  HEM501      0.0000
     21  C4B       -2.7020    1.6230   21.7670 C.2   501  HEM501      0.0000
     22  CMB       -5.0450    1.9860   18.8020 C.3   501  HEM501      0.0000
     23  CAB       -1.8660    2.8230   19.4500 C.2   501  HEM501      0.0000
     24  CBB       -2.1710    3.9240   18.7020 C.2   501  HEM501      0.0000
     25  NC        -2.1700    0.6850   24.5310 N.ar  501  HEM501      0.0000
     26  C1C       -1.1770    1.3480   23.7460 C.ar  501  HEM501      0.0000
     27  C2C        0.1060    1.5080   24.4020 C.ar  501  HEM501      0.0000
     28  C3C        0.0430    0.9440   25.6730 C.ar  501  HEM501      0.0000
     29  C4C       -1.3810    0.4740   25.6530 C.ar  501  HEM501      0.0000
     30  CMC        1.3160    2.2190   23.7060 C.3   501  HEM501      0.0000
     31  CAC        1.0520    0.8400   26.6980 C.2   501  HEM501      0.0000
     32  CBC        1.7870    1.7360   27.2100 C.2   501  HEM501      0.0000
     33  ND        -4.1190   -0.5890   25.9470 N.2   501  HEM501      0.0000
     34  C1D       -3.1840   -0.6890   26.9270 C.2   501  HEM501      0.0000
     35  C2D       -3.6720   -1.3910   28.1530 C.2   501  HEM501      0.0000
     36  C3D       -5.0020   -1.7360   27.9000 C.2   501  HEM501      0.0000
     37  C4D       -5.3140   -1.2300   26.4660 C.2   501  HEM501      0.0000
     38  CMD       -2.9770   -1.7050   29.4100 C.3   501  HEM501      0.0000
     39  CAD       -6.0030   -2.4300   28.7010 C.3   501  HEM501      0.0000
     40  CBD       -6.7650   -1.2960   29.5860 C.3   501  HEM501      0.0000
     41  CGD       -7.8550   -1.8420   30.4860 C.2   501  HEM501      0.0000
     42  O1D       -8.1330   -1.2610   31.5390 O.co2 501  HEM501      0.0000
     43  O2D       -8.5330   -2.8850   30.2240 O.co2 501  HEM501      0.0000
@<TRIPOS>BOND
     1    24    23    2
     2    22    19    1
     3    23    20    1
     4    19    20    2
     5    19    18    1
     6    20    21    1
     7    18     3    1
     8    18    17    2
     9     3    10    2
    10    11     9    1
    11    21    17    1
    12    21     4    2
    13    17     1    1
    14     4    26    1
    15    10     9   ar
    16    10     6   ar
    17     9     8   ar
    18     6     1    1
    19     6     7   ar
    20    30    27    1
    21    26    27   ar
    22    26    25   ar
    23     8    12    1
    24     8     7   ar
    25     1    25    1
    26     1    33    1
    27    27    28   ar
    28    12    13    1
    29     7     2    2
    30    25    29   ar
    31    13    14    1
    32    29    28   ar
    33    29     5    1
    34    28    31    1
    35    15    14   ar
    36     2    37    1
    37    14    16   ar
    38    33    37    2
    39    33    34    1
    40    37    36    1
    41    31    32    2
    42     5    34    2
    43    34    35    1
    44    36    35    2
    45    36    39    1
    46    35    38    1
    47    39    40    1
    48    40    41    1
    49    43    41   ar
    50    41    42   ar
