@<TRIPOS>MOLECULE
1ulx_HEM_A_1.pdb
 43 50 0 0 0
SMALL
GASTEIGER

@<TRIPOS>ATOM
      1 FE        -91.8600  -12.7380  -88.0590 Fe    300  HEM300      0.0000
      2  CHA      -90.2690   -9.7410  -87.6840 C.2   300  HEM300      0.0000
      3  CHB      -90.3870  -13.1290  -91.1270 C.2   300  HEM300      0.0000
      4  CHC      -93.2610  -15.8530  -88.3640 C.2   300  HEM300      0.0000
      5  CHD      -93.3720  -12.3660  -85.0290 C.2   300  HEM300      0.0000
      6  NA       -90.6250  -11.6260  -89.2020 N.ar  300  HEM300      0.0000
      7  C1A      -90.0680  -10.4000  -88.9030 C.ar  300  HEM300      0.0000
      8  C2A      -89.2710   -9.9000  -90.0110 C.ar  300  HEM300      0.0000
      9  C3A      -89.3900  -10.8070  -91.0210 C.ar  300  HEM300      0.0000
     10  C4A      -90.1550  -11.9280  -90.4710 C.ar  300  HEM300      0.0000
     11  CMA      -88.8630  -10.7260  -92.4380 C.3   300  HEM300      0.0000
     12  CAA      -88.4650   -8.5930  -90.0130 C.3   300  HEM300      0.0000
     13  CBA      -86.9730   -8.7580  -89.5810 C.3   300  HEM300      0.0000
     14  CGA      -86.2780   -7.5900  -89.1390 C.2   300  HEM300      0.0000
     15  O1A      -85.0710   -7.7980  -88.7150 O.co2 300  HEM300      0.0000
     16  O2A      -86.7490   -6.4300  -89.1390 O.co2 300  HEM300      0.0000
     17  NB       -91.9310  -14.1360  -89.5000 N.2   300  HEM300      0.0000
     18  C1B      -91.3020  -14.1120  -90.7360 C.2   300  HEM300      0.0000
     19  C2B      -91.7070  -15.2380  -91.5720 C.2   300  HEM300      0.0000
     20  C3B      -92.5710  -15.9840  -90.8080 C.2   300  HEM300      0.0000
     21  C4B      -92.6120  -15.3390  -89.4890 C.2   300  HEM300      0.0000
     22  CMB      -91.2320  -15.4590  -93.0060 C.3   300  HEM300      0.0000
     23  CAB      -93.3890  -17.2060  -91.1900 C.3   300  HEM300      0.0000
     24  CBB      -92.5640  -18.4780  -91.4410 C.3   300  HEM300      0.0000
     25  NC       -93.0640  -13.8680  -86.9260 N.ar  300  HEM300      0.0000
     26  C1C      -93.5480  -15.1600  -87.2080 C.ar  300  HEM300      0.0000
     27  C2C      -94.3730  -15.6630  -86.1130 C.ar  300  HEM300      0.0000
     28  C3C      -94.3670  -14.6870  -85.1670 C.ar  300  HEM300      0.0000
     29  C4C      -93.5870  -13.5800  -85.6880 C.ar  300  HEM300      0.0000
     30  CMC      -95.0570  -17.0290  -86.1020 C.3   300  HEM300      0.0000
     31  CAC      -95.0120  -14.7250  -83.7620 C.3   300  HEM300      0.0000
     32  CBC      -96.5640  -14.6990  -83.7930 C.3   300  HEM300      0.0000
     33  ND       -91.8100  -11.3370  -86.6300 N.2   300  HEM300      0.0000
     34  C1D      -92.4960  -11.3470  -85.4190 C.2   300  HEM300      0.0000
     35  C2D      -92.1980  -10.1470  -84.6140 C.2   300  HEM300      0.0000
     36  C3D      -91.3720   -9.4020  -85.3800 C.2   300  HEM300      0.0000
     37  C4D      -91.1130  -10.1640  -86.6300 C.2   300  HEM300      0.0000
     38  CMD      -92.7720   -9.8740  -83.2330 C.3   300  HEM300      0.0000
     39  CAD      -90.7830   -8.0300  -85.1170 C.3   300  HEM300      0.0000
     40  CBD      -89.3190   -8.0960  -84.4970 C.3   300  HEM300      0.0000
     41  CGD      -88.8670   -6.8280  -84.0710 C.2   300  HEM300      0.0000
     42  O1D      -88.7650   -6.5800  -82.8300 O.co2 300  HEM300      0.0000
     43  O2D      -88.5610   -5.9340  -84.9030 O.co2 300  HEM300      0.0000
@<TRIPOS>BOND
     1    22    19    1
     2    11     9    1
     3    19    20    2
     4    19    18    1
     5    24    23    1
     6    23    20    1
     7     3    18    1
     8     3    10    2
     9     9    10   ar
    10     9     8   ar
    11    20    21    1
    12    18    17    2
    13    10     6   ar
    14    12     8    1
    15    12    13    1
    16     8     7   ar
    17    13    14    1
    18    17    21    1
    19    17     1    1
    20    21     4    2
    21     6     7   ar
    22     6     1    1
    23    14    16   ar
    24    14    15   ar
    25     7     2    2
    26     4    26    1
    27     1    25    1
    28     1    33    1
    29     2    37    1
    30    26    25   ar
    31    26    27   ar
    32    25    29   ar
    33    37    33    2
    34    37    36    1
    35    33    34    1
    36    27    30    1
    37    27    28   ar
    38    29    28   ar
    39    29     5    1
    40    34     5    2
    41    34    35    1
    42    36    39    1
    43    36    35    2
    44    28    31    1
    45    39    40    1
    46    43    41   ar
    47    35    38    1
    48    40    41    1
    49    41    42   ar
    50    32    31    1
