@<TRIPOS>MOLECULE
1um0_FMN_A_1.pdb
 31 33 0 0 0
SMALL
GASTEIGER

@<TRIPOS>ATOM
      1  N1        44.1880   50.0270   26.4340 N.2   1400  FMN1400    -0.2887
      2  C2        45.5010   49.6710   26.3110 C.1   1400  FMN1400     0.3669
      3  O2        45.9950   49.2990   25.2240 O.2   1400  FMN1400    -0.1744
      4  N3        46.3510   49.7200   27.4460 N.2   1400  FMN1400    -0.2300
      5  C4        45.9270   50.1260   28.7550 C.1   1400  FMN1400     0.2513
      6  O4        46.6810   50.1660   29.7530 O.2   1400  FMN1400    -0.2057
      7  C4A       44.5230   50.5040   28.8580 C.2   1400  FMN1400     0.2703
      8  N5        44.0110   50.9380   30.0450 N.2   1400  FMN1400    -0.3882
      9  C5A       42.7810   51.5400   30.0920 C.2   1400  FMN1400     0.1277
     10  C6        42.3950   52.2340   31.2660 C.3   1400  FMN1400     0.0820
     11  C7        41.1050   52.8280   31.3380 C.2   1400  FMN1400    -0.0408
     12  C7M       40.6620   53.5860   32.5890 C.3   1400  FMN1400     0.0265
     13  C8        40.2290   52.6780   30.1650 C.2   1400  FMN1400    -0.0280
     14  C8M       38.8440   53.2420   30.1000 C.3   1400  FMN1400     0.0304
     15  C9        40.6380   51.9870   29.0010 C.2   1400  FMN1400     0.0123
     16  C9A       41.9260   51.3950   28.9080 C.2   1400  FMN1400     0.0793
     17  N10       42.3550   50.8290   27.7710 N.pl3 1400  FMN1400    -0.2545
     18  C10       43.6820   50.4320   27.6390 C.2   1400  FMN1400     0.2449
     19  C1'       41.4860   50.6480   26.5250 C.3   1400  FMN1400     0.1336
     20  C2'       40.2700   49.6490   26.6570 C.3   1400  FMN1400     0.2048
     21  O2'       40.7060   48.3000   27.0050 O.3   1400  FMN1400    -0.2185
     22  C3'       39.4940   49.5510   25.3030 C.3   1400  FMN1400     0.2165
     23  O3'       39.3180   50.9060   24.8180 O.3   1400  FMN1400    -0.2175
     24  C4'       38.0670   48.9390   25.3660 C.3   1400  FMN1400     0.2147
     25  O4'       37.9140   47.8010   26.2590 O.3   1400  FMN1400    -0.2176
     26  C5'       37.6310   48.4800   23.9500 C.3   1400  FMN1400     0.1892
     27  O5'       37.8110   49.5400   22.9950 O.3   1400  FMN1400    -0.2674
     28  P         38.6890   49.2130   21.6720 P.3   1400  FMN1400     0.5327
     29  O1P       39.3170   50.4730   21.2110 O.3   1400  FMN1400    -0.1145
     30  O2P       39.6140   48.0420   21.9600 O.3   1400  FMN1400    -0.1145
     31  O3P       37.5290   48.7780   20.6320 O.2   1400  FMN1400    -0.2224
@<TRIPOS>BOND
     1    31    28    2
     2    29    28    1
     3    28    30    1
     4    28    27    1
     5    27    26    1
     6    26    24    1
     7    23    22    1
     8     3     2    2
     9    22    24    1
    10    22    20    1
    11    24    25    1
    12     2     1    2
    13     2     4    2
    14     1    18    2
    15    19    20    1
    16    19    17    1
    17    20    21    1
    18     4     5    2
    19    18    17    1
    20    18     7    1
    21    17    16    1
    22     5     7    1
    23     5     6    2
    24     7     8    2
    25    16    15    2
    26    16     9    1
    27    15    13    1
    28     8     9    2
    29     9    10    1
    30    14    13    1
    31    13    11    2
    32    10    11    1
    33    11    12    1
