@<TRIPOS>MOLECULE
1um4_SH4_H_1.pdb
 23 24 0 0 0
SMALL
GASTEIGER

@<TRIPOS>ATOM
      1  O1        18.2140   21.2500   52.8860 O.2   1001  SH41001    -0.2551
      2  P1        19.6610   21.1540   53.3600 P.3   1001  SH41001     0.3742
      3  O2        20.0590   22.5190   53.9040 O.3   1001  SH41001    -0.1395
      4  O3        20.5810   20.8290   52.0500 O.3   1001  SH41001    -0.2905
      5  C1        20.8510   21.7000   50.9250 C.3   1001  SH41001     0.1463
      6  C2        19.7300   22.1650   49.9810 C.ar  1001  SH41001     0.0050
      7  C3        19.0830   21.2720   49.0780 C.ar  1001  SH41001    -0.0019
      8  C4        18.0790   21.7420   48.2060 C.ar  1001  SH41001    -0.0002
      9  C5        17.7100   23.1120   48.2240 C.ar  1001  SH41001    -0.0000
     10  C6        18.3430   24.0130   49.1180 C.ar  1001  SH41001    -0.0002
     11  C7        19.3520   23.5420   49.9950 C.ar  1001  SH41001    -0.0019
     12  C8        22.0120   21.0580   50.1460 C.3   1001  SH41001     0.0375
     13  C9        19.9880   19.7240   54.3240 C.3   1001  SH41001     0.1444
     14  C10       19.3470   19.7570   55.7130 C.ar  1001  SH41001    -0.0099
     15  C11       20.1470   20.1980   56.8100 C.ar  1001  SH41001    -0.0023
     16  C12       19.6200   20.2420   58.1210 C.ar  1001  SH41001     0.0163
     17  C13       18.2820   19.8430   58.3700 C.ar  1001  SH41001     0.0733
     18  N1        17.8140   19.9120   59.7620 N.am  1001  SH41001    -0.1792
     19  C14       16.6540   19.6290   60.4000 C.2   1001  SH41001     0.2461
     20  O4        15.6310   19.2000   59.8540 O.2   1001  SH41001    -0.2730
     21  C15       16.6630   19.8780   61.9100 C.3   1001  SH41001     0.0968
     22  C16       17.4750   19.3990   57.2620 C.ar  1001  SH41001     0.0163
     23  C17       18.0070   19.3580   55.9420 C.ar  1001  SH41001    -0.0023
@<TRIPOS>BOND
     1     8     9   ar
     2     8     7   ar
     3     9    10   ar
     4     7     6   ar
     5    10    11   ar
     6     6    11   ar
     7     6     5    1
     8    12     5    1
     9     5     4    1
    10     4     2    1
    11     1     2    2
    12     2     3    1
    13     2    13    1
    14    13    14    1
    15    14    23   ar
    16    14    15   ar
    17    23    22   ar
    18    15    16   ar
    19    22    17   ar
    20    16    17   ar
    21    17    18    1
    22    18    19   am
    23    20    19    2
    24    19    21    1
