@<TRIPOS>MOLECULE
1um8_ADP_A_1.pdb
 27 29 0 0 0
SMALL
GASTEIGER

@<TRIPOS>ATOM
      1  PB        20.9710   48.1160   21.8360 P.3   487  ADP487      0.5373
      2  O1B       22.1210   47.8420   22.7400 O.3   487  ADP487     -0.1143
      3  O2B       19.5780   47.6680   22.5170 O.3   487  ADP487     -0.1143
      4  O3B       20.9330   49.5570   21.4730 O.2   487  ADP487     -0.2221
      5  PA        20.1370   47.1780   19.2900 P.3   487  ADP487      0.2231
      6  O1A       18.7460   47.1930   19.7390 O.3   487  ADP487     -0.4370
      7  O2A       20.3880   48.3190   18.4070 O.2   487  ADP487     -0.5169
      8  O3A       21.0720   47.2390   20.5350 O.3   487  ADP487     -0.2261
      9  O5'       20.3850   45.8830   18.4300 O.3   487  ADP487     -0.3111
     10  C5'       21.2940   44.8030   18.5960 C.3   487  ADP487      0.1813
     11  C4'       20.9800   43.8600   17.3780 C.3   487  ADP487      0.1821
     12  O4'       20.5710   42.5830   17.9240 O.3   487  ADP487     -0.3135
     13  C3'       19.7920   44.2770   16.4810 C.3   487  ADP487      0.2184
     14  O3'       20.1880   45.0300   15.3280 O.3   487  ADP487     -0.2174
     15  C2'       19.0870   42.9760   16.1350 C.3   487  ADP487      0.2570
     16  O2'       19.5950   42.3570   14.9430 O.3   487  ADP487     -0.2130
     17  C1'       19.2660   42.1810   17.4130 C.3   487  ADP487      0.3186
     18  N9        18.2070   42.4530   18.4850 N.pl3 487  ADP487     -0.1439
     19  C8        18.4210   43.0690   19.6830 C.3   487  ADP487      0.3377
     20  N7        17.2910   43.1300   20.3680 N.2   487  ADP487     -0.2095
     21  C5        16.3450   42.5730   19.6580 C.2   487  ADP487      0.2526
     22  C6        14.9820   42.3370   19.8360 C.2   487  ADP487      0.4393
     23  N6        14.3820   42.7290   20.9600 N.pl3 487  ADP487      0.2180
     24  N1        14.2500   41.7060   18.8600 N.2   487  ADP487      0.0021
     25  C2        14.8170   41.2870   17.6910 C.3   487  ADP487      0.5254
     26  N3        16.1470   41.5060   17.4980 N.2   487  ADP487     -0.0055
     27  C4        16.9290   42.1320   18.4350 C.2   487  ADP487      0.3518
@<TRIPOS>BOND
     1    16    15    1
     2    14    13    1
     3    15    13    1
     4    15    17    1
     5    13    11    1
     6    11    12    1
     7    11    10    1
     8    17    12    1
     9    17    18    1
    10    26    25    1
    11    26    27    2
    12    25    24    1
    13     7     5    2
    14     9    10    1
    15     9     5    1
    16    27    18    1
    17    27    21    1
    18    18    19    1
    19    24    22    2
    20     5     6    1
    21     5     8    1
    22    21    22    1
    23    21    20    2
    24    19    20    1
    25    22    23    1
    26     8     1    1
    27     4     1    2
    28     1     3    1
    29     1     2    1
