@<TRIPOS>MOLECULE
1uma_IN2_H_1.pdb
 15 14 0 0 0
SMALL
GASTEIGER

@<TRIPOS>ATOM
      1  N1        21.0050  -13.0720   17.5010 N.3   500  IN2500     -0.1310
      2  C2        20.7570  -14.2210   18.4440 C.3   500  IN2500      0.1140
      3  C3        20.6300  -14.0210   19.9770 C.3   500  IN2500      0.0479
      4  C4        19.7810  -15.0870   20.7020 C.2   500  IN2500     -0.0065
      5  C5        20.4110  -15.9560   21.7940 C.2   500  IN2500      0.0890
      6  N6        19.5510  -16.6830   22.7340 N.am  500  IN2500     -0.1258
      7  N7        20.0380  -16.7390   24.0550 N.am  500  IN2500     -0.0832
      8  C8        19.7980  -15.6390   24.7270 C.2   500  IN2500      0.3420
      9  O8        18.7180  -15.0990   24.7580 O.2   500  IN2500     -0.2491
     10  N9        20.8560  -15.1300   25.3320 N.am  500  IN2500     -0.2581
     11  C10       22.1730  -15.6900   25.0880 C.3   500  IN2500      0.1166
     12  C11       20.8460  -13.9300   26.1500 C.3   500  IN2500      0.1166
     13  C12       18.3220  -17.2020   22.5530 C.2   500  IN2500      0.4681
     14  O1        17.8540  -17.8160   23.5360 O.co2 500  IN2500     -0.2203
     15  O2        17.8070  -17.0990   21.3140 O.co2 500  IN2500     -0.2203
@<TRIPOS>BOND
     1     1     2    1
     2     2     3    1
     3     3     4    1
     4     4     5    2
     5    15    13   ar
     6     5     6    1
     7    13     6   am
     8    13    14   ar
     9     6     7    1
    10     7     8   am
    11     8     9    2
    12     8    10   am
    13    11    10    1
    14    10    12    1
