@<TRIPOS>MOLECULE
1umb_TDP_A_1.pdb
 26 27 0 0 0
SMALL
GASTEIGER

@<TRIPOS>ATOM
      1  N1'       34.1540   31.4640   63.5470 N.2   1402  TDP1402    -0.1861
      2  C2'       35.4120   31.9490   63.8860 C.1   1402  TDP1402     0.0663
      3  C2A       35.5990   32.8880   65.0430 C.3   1402  TDP1402     0.1291
      4  N3'       36.4970   31.5930   63.1940 N.2   1402  TDP1402    -0.3368
      5  C4'       36.3840   30.7200   62.1100 C.2   1402  TDP1402     0.2292
      6  N4'       37.5170   30.4210   61.4860 N.pl3 1402  TDP1402    -0.0925
      7  C5'       35.1000   30.1930   61.7220 C.2   1402  TDP1402     0.0654
      8  C6'       34.0400   30.6050   62.4770 C.2   1402  TDP1402     0.1115
      9  C35       34.9300   29.2420   60.5450 C.3   1402  TDP1402     0.1237
     10  N3        35.1220   29.9990   59.2280 N.pl3 1402  TDP1402    -0.2970
     11  C2        36.2780   29.8710   58.5780 C.3   1402  TDP1402     0.1543
     12  S1        36.4070   30.7420   57.1600 S.3   1402  TDP1402    -0.0951
     13  C5        34.8060   31.3590   57.3810 C.2   1402  TDP1402     0.0164
     14  C4        34.2430   30.8560   58.5530 C.2   1402  TDP1402     0.0279
     15  C4A       32.8770   31.1860   59.0390 C.3   1402  TDP1402     0.0473
     16  C5A       34.2540   32.2960   56.3710 C.3   1402  TDP1402     0.0661
     17  C5B       34.6990   33.7260   56.5180 C.3   1402  TDP1402     0.1544
     18  O5G       34.4280   34.4820   55.3680 O.3   1402  TDP1402    -0.3134
     19  P1        34.9960   35.8460   54.8090 P.3   1402  TDP1402     0.2230
     20  O11       36.2490   35.3320   54.0110 O.3   1402  TDP1402    -0.2261
     21  O12       34.0450   36.4960   53.9000 O.2   1402  TDP1402    -0.5169
     22  O13       35.5050   36.5930   56.0030 O.3   1402  TDP1402    -0.4370
     23  P2        36.4480   34.5190   52.6310 P.3   1402  TDP1402     0.5373
     24  O21       37.5170   35.2610   51.8290 O.2   1402  TDP1402    -0.2221
     25  O22       36.6740   33.1500   53.0690 O.3   1402  TDP1402    -0.1143
     26  O23       35.1160   34.7020   51.9390 O.3   1402  TDP1402    -0.1143
@<TRIPOS>BOND
     1    24    23    2
     2    26    23    1
     3    23    25    1
     4    23    20    1
     5    21    19    2
     6    20    19    1
     7    19    18    1
     8    19    22    1
     9    18    17    1
    10    16    17    1
    11    16    13    1
    12    12    13    1
    13    12    11    1
    14    13    14    2
    15    14    15    1
    16    14    10    1
    17    11    10    1
    18    10     9    1
    19     9     7    1
    20     6     5    1
    21     7     5    1
    22     7     8    2
    23     5     4    2
    24     8     1    1
    25     4     2    2
    26     1     2    2
    27     2     3    1
