@<TRIPOS>MOLECULE
1umc_TDP_A_1.pdb
 26 27 0 0 0
SMALL
GASTEIGER

@<TRIPOS>ATOM
      1  N1'       33.7730   31.4030   63.7960 N.2   1402  TDP1402    -0.1861
      2  C2'       35.0340   31.8780   64.1320 C.1   1402  TDP1402     0.0663
      3  C2A       35.2180   32.8210   65.2840 C.3   1402  TDP1402     0.1291
      4  N3'       36.1170   31.5110   63.4450 N.2   1402  TDP1402    -0.3368
      5  C4'       35.9950   30.6330   62.3630 C.2   1402  TDP1402     0.2292
      6  N4'       37.1230   30.3210   61.7380 N.pl3 1402  TDP1402    -0.0925
      7  C5'       34.7000   30.1190   61.9790 C.2   1402  TDP1402     0.0654
      8  C6'       33.6490   30.5460   62.7360 C.2   1402  TDP1402     0.1115
      9  C35       34.5050   29.1630   60.8020 C.3   1402  TDP1402     0.1237
     10  N3        34.7000   29.9290   59.4890 N.pl3 1402  TDP1402    -0.2970
     11  C2        35.8380   29.7810   58.8390 C.3   1402  TDP1402     0.1543
     12  S1        35.9830   30.6550   57.4340 S.3   1402  TDP1402    -0.0951
     13  C5        34.4090   31.3140   57.6600 C.2   1402  TDP1402     0.0164
     14  C4        33.8390   30.8110   58.8290 C.2   1402  TDP1402     0.0279
     15  C4A       32.4860   31.1640   59.3290 C.3   1402  TDP1402     0.0473
     16  C5A       33.8880   32.2830   56.6490 C.3   1402  TDP1402     0.0661
     17  C5B       34.4840   33.6710   56.7330 C.3   1402  TDP1402     0.1544
     18  O5G       34.1500   34.4660   55.6250 O.3   1402  TDP1402    -0.3134
     19  P1        34.6850   35.8520   55.0870 P.3   1402  TDP1402     0.2230
     20  O11       35.9100   35.3740   54.2330 O.3   1402  TDP1402    -0.2261
     21  O12       33.7240   36.5250   54.2210 O.2   1402  TDP1402    -0.5169
     22  O13       35.2130   36.5670   56.2860 O.3   1402  TDP1402    -0.4370
     23  P2        36.0630   34.5600   52.8510 P.3   1402  TDP1402     0.5373
     24  O21       37.0930   35.3050   52.0070 O.2   1402  TDP1402    -0.2221
     25  O22       36.3230   33.1910   53.2710 O.3   1402  TDP1402    -0.1143
     26  O23       34.7000   34.7270   52.2200 O.3   1402  TDP1402    -0.1143
@<TRIPOS>BOND
     1    24    23    2
     2    26    23    1
     3    23    25    1
     4    23    20    1
     5    21    19    2
     6    20    19    1
     7    19    18    1
     8    19    22    1
     9    18    17    1
    10    16    17    1
    11    16    13    1
    12    12    13    1
    13    12    11    1
    14    13    14    2
    15    14    15    1
    16    14    10    1
    17    11    10    1
    18    10     9    1
    19     9     7    1
    20     6     5    1
    21     7     5    1
    22     7     8    2
    23     5     4    2
    24     8     1    1
    25     4     2    2
    26     1     2    2
    27     2     3    1
