@<TRIPOS>MOLECULE
1umd_TDP_A_1.pdb
 26 27 0 0 0
SMALL
GASTEIGER

@<TRIPOS>ATOM
      1  N1'       34.0810   31.4100   63.5880 N.2   1402  TDP1402    -0.1861
      2  C2'       35.3040   31.9900   63.8940 C.1   1402  TDP1402     0.0663
      3  C2A       35.4410   32.9820   65.0090 C.3   1402  TDP1402     0.1291
      4  N3'       36.4000   31.6800   63.2080 N.2   1402  TDP1402    -0.3368
      5  C4'       36.3410   30.7630   62.1650 C.2   1402  TDP1402     0.2292
      6  N4'       37.4890   30.5290   61.5550 N.pl3 1402  TDP1402    -0.0925
      7  C5'       35.0930   30.1290   61.8060 C.2   1402  TDP1402     0.0654
      8  C6'       34.0140   30.5000   62.5550 C.2   1402  TDP1402     0.1115
      9  C35       34.9800   29.1120   60.6620 C.3   1402  TDP1402     0.1237
     10  N3        35.2420   29.8370   59.3280 N.pl3 1402  TDP1402    -0.2970
     11  C2        36.4230   29.7110   58.6420 C.3   1402  TDP1402     0.1543
     12  S1        36.5120   30.6030   57.2410 S.3   1402  TDP1402    -0.0951
     13  C5        34.9200   31.2110   57.4810 C.2   1402  TDP1402     0.0164
     14  C4        34.3660   30.7050   58.6470 C.2   1402  TDP1402     0.0279
     15  C4A       32.9980   31.0470   59.1290 C.3   1402  TDP1402     0.0473
     16  C5A       34.3640   32.1570   56.4820 C.3   1402  TDP1402     0.0661
     17  C5B       34.7760   33.5930   56.6750 C.3   1402  TDP1402     0.1544
     18  O5G       34.4470   34.3910   55.5700 O.3   1402  TDP1402    -0.3134
     19  P1        35.0140   35.7590   55.0150 P.3   1402  TDP1402     0.2230
     20  O11       36.2620   35.2590   54.1970 O.3   1402  TDP1402    -0.2261
     21  O12       34.0570   36.4180   54.1180 O.2   1402  TDP1402    -0.5169
     22  O13       35.5290   36.4960   56.2080 O.3   1402  TDP1402    -0.4370
     23  P2        36.4460   34.4270   52.8270 P.3   1402  TDP1402     0.5373
     24  O21       37.5250   35.1290   52.0050 O.2   1402  TDP1402    -0.2221
     25  O22       36.6520   33.0590   53.2840 O.3   1402  TDP1402    -0.1143
     26  O23       35.1150   34.6180   52.1390 O.3   1402  TDP1402    -0.1143
@<TRIPOS>BOND
     1    24    23    2
     2    26    23    1
     3    23    25    1
     4    23    20    1
     5    21    19    2
     6    20    19    1
     7    19    18    1
     8    19    22    1
     9    18    17    1
    10    16    17    1
    11    16    13    1
    12    12    13    1
    13    12    11    1
    14    13    14    2
    15    11    10    1
    16    14    15    1
    17    14    10    1
    18    10     9    1
    19     9     7    1
    20     6     5    1
    21     7     5    1
    22     7     8    2
    23     5     4    2
    24     8     1    1
    25     4     2    2
    26     1     2    2
    27     2     3    1
