@<TRIPOS>MOLECULE
1umg_2FP_A_1.pdb
 20 19 0 0 0
SMALL
GASTEIGER

@<TRIPOS>ATOM
      1  P6        26.4400   69.1650   18.6250 P.3   400  2FP400      0.5327
      2  O6        27.4060   68.0280   18.1890 O.3   400  2FP400     -0.2674
      3  C6        27.9340   68.2130   16.8710 C.3   400  2FP400      0.1892
      4  C5        28.9670   67.1080   16.6210 C.3   400  2FP400      0.2151
      5  O5        30.0840   67.3070   17.4970 O.3   400  2FP400     -0.2176
      6  C4        28.3200   65.6970   16.8970 C.3   400  2FP400      0.2220
      7  O4        27.2520   65.4580   15.9770 O.3   400  2FP400     -0.2171
      8  C3        29.4100   64.5400   16.8050 C.3   400  2FP400      0.2439
      9  O3        30.0500   64.5480   15.5250 O.3   400  2FP400     -0.2122
     10  C2        28.7190   63.1480   17.0470 C.2   400  2FP400      0.2137
     11  O2        28.3830   62.4580   16.0860 O.2   400  2FP400     -0.2906
     12  C1        28.4580   62.6520   18.5100 C.3   400  2FP400      0.2203
     13  O1        27.5850   61.5330   18.4850 O.3   400  2FP400     -0.2621
     14  O61       25.9290   68.8100   20.0470 O.3   400  2FP400     -0.1145
     15  O62       27.1960   70.5210   18.6630 O.3   400  2FP400     -0.1145
     16  O63       25.2370   69.2460   17.6510 O.2   400  2FP400     -0.2224
     17  P1        27.7300   60.6570   19.7710 P.3   400  2FP400      0.5330
     18  O11       26.6120   59.5960   19.7200 O.2   400  2FP400     -0.2224
     19  O12       29.1190   59.9500   19.7940 O.3   400  2FP400     -0.1145
     20  O13       27.5740   61.5290   21.0520 O.3   400  2FP400     -0.1145
@<TRIPOS>BOND
     1     9     8    1
     2     7     6    1
     3    11    10    2
     4     4     3    1
     5     4     6    1
     6     4     5    1
     7     8     6    1
     8     8    10    1
     9     3     2    1
    10    10    12    1
    11    16     1    2
    12     2     1    1
    13    13    12    1
    14    13    17    1
    15     1    15    1
    16     1    14    1
    17    18    17    2
    18    17    19    1
    19    17    20    1
