@<TRIPOS>MOLECULE
1uml_FR4_A_1.pdb
 33 36 0 0 0
SMALL
GASTEIGER

@<TRIPOS>ATOM
      1  C1        51.8290   54.6770   20.8590 C.3   1001  FR41001     0.1246
      2  N2        51.8880   55.6880   21.9190 N.3   1001  FR41001    -0.2455
      3  C3        51.8600   55.1000   23.1260 C.3   1001  FR41001     0.2010
      4  N4        51.7790   53.7750   22.9620 N.2   1001  FR41001    -0.2506
      5  C5        51.7350   53.5200   21.5290 C.2   1001  FR41001     0.1279
      6  C8        51.6070   52.1810   20.9160 C.2   1001  FR41001     0.2988
      7  O9        51.3610   52.1210   19.7260 O.2   1001  FR41001    -0.2653
      8  N10       51.7490   51.0960   21.6820 N.am  1001  FR41001    -0.0826
      9  C13       51.9880   57.1300   21.7230 C.3   1001  FR41001     0.0945
     10  C14       53.4550   57.5680   21.5660 C.3   1001  FR41001     0.1980
     11  O15       54.2510   57.2110   22.6660 O.3   1001  FR41001    -0.2189
     12  C18       51.1060   57.6310   20.5640 C.3   1001  FR41001     0.0432
     13  C19       49.6510   57.1520   20.6020 C.3   1001  FR41001     0.1075
     14  N22       49.0410   57.3030   19.2790 N.ar  1001  FR41001    -0.3260
     15  C27       48.5480   58.4350   18.7040 C.ar  1001  FR41001     0.0759
     16  C28       48.0910   58.1640   17.4100 C.ar  1001  FR41001     0.0201
     17  C29       48.3220   56.7580   17.2020 C.ar  1001  FR41001     0.0174
     18  C30       48.9180   56.2500   18.3940 C.ar  1001  FR41001     0.0612
     19  C31       48.0750   55.9260   16.1420 C.ar  1001  FR41001     0.0028
     20  C32       48.4170   54.5770   16.2390 C.ar  1001  FR41001     0.0167
     21  C33       49.0150   54.0720   17.4080 C.ar  1001  FR41001     0.0748
     22  C34       49.2570   54.9300   18.4840 C.ar  1001  FR41001     0.0338
     23  N1        49.3960   52.7740   17.5440 N.am  1001  FR41001    -0.1792
     24  C2        49.1610   51.7710   16.6630 C.2   1001  FR41001     0.2459
     25  O1        48.5250   51.8600   15.6130 O.2   1001  FR41001    -0.2730
     26  C4        49.8040   50.4740   17.1270 C.3   1001  FR41001     0.0918
     27  C6        49.1790   49.2540   16.4430 C.3   1001  FR41001     0.0360
     28  C7        47.5840   48.9190   18.3820 C.ar  1001  FR41001    -0.0043
     29  C11       47.8190   48.8890   17.0080 C.ar  1001  FR41001    -0.0217
     30  C9        46.8090   48.4760   16.1420 C.ar  1001  FR41001    -0.0043
     31  C12       45.5800   48.0760   16.6460 C.ar  1001  FR41001    -0.0003
     32  C10       45.3560   48.0770   18.0230 C.ar  1001  FR41001    -0.0000
     33  C15       46.3550   48.5030   18.8860 C.ar  1001  FR41001    -0.0003
@<TRIPOS>BOND
     1    25    24    2
     2    19    20   ar
     3    19    17   ar
     4    30    31   ar
     5    30    29   ar
     6    20    21   ar
     7    27    29    1
     8    27    26    1
     9    31    32   ar
    10    24    26    1
    11    24    23   am
    12    29    28   ar
    13    17    16   ar
    14    17    18   ar
    15    21    23    1
    16    21    22   ar
    17    16    15   ar
    18    32    33   ar
    19    28    33   ar
    20    18    22   ar
    21    18    14   ar
    22    15    14   ar
    23    14    13    1
    24     7     6    2
    25    12    13    1
    26    12     9    1
    27     1     5    1
    28     1     2    1
    29     6     5    1
    30     6     8   am
    31     5     4    2
    32    10     9    1
    33    10    11    1
    34     9     2    1
    35     2     3    1
    36     4     3    1
