@<TRIPOS>MOLECULE
1umo_HEM_A_1.pdb
 43 50 0 0 0
SMALL
GASTEIGER

@<TRIPOS>ATOM
      1 FE         -4.9510    3.5590   50.7600 Fe    1172  HEM1172     0.0000
      2  CHA       -6.8210    4.6760   53.4050 C.2   1172  HEM1172     0.0000
      3  CHB       -2.4120    5.5340   51.6200 C.2   1172  HEM1172     0.0000
      4  CHC       -3.1950    2.3690   48.0230 C.2   1172  HEM1172     0.0000
      5  CHD       -7.6660    1.5210   49.7050 C.2   1172  HEM1172     0.0000
      6  NA        -4.7010    4.9310   52.2310 N.2   1172  HEM1172     0.0000
      7  C1A       -5.5240    5.1380   53.3070 C.2   1172  HEM1172     0.0000
      8  C2A       -4.7810    5.9400   54.2610 C.2   1172  HEM1172     0.0000
      9  C3A       -3.5680    6.1820   53.7380 C.2   1172  HEM1172     0.0000
     10  C4A       -3.5010    5.5310   52.4570 C.2   1172  HEM1172     0.0000
     11  CMA       -2.4070    7.0000   54.3640 C.3   1172  HEM1172     0.0000
     12  CAA       -5.2830    6.4790   55.6350 C.3   1172  HEM1172     0.0000
     13  CBA       -4.6930    5.6730   56.7980 C.3   1172  HEM1172     0.0000
     14  CGA       -5.2220    4.2640   56.7340 C.2   1172  HEM1172     0.0000
     15  O1A       -6.4510    4.1390   56.5830 O.co2 1172  HEM1172     0.0000
     16  O2A       -4.4450    3.2760   56.8280 O.co2 1172  HEM1172     0.0000
     17  NB        -3.1360    3.9010   49.9640 N.ar  1172  HEM1172     0.0000
     18  C1B       -2.2240    4.7510   50.5180 C.ar  1172  HEM1172     0.0000
     19  C2B       -1.0340    4.6890   49.7370 C.ar  1172  HEM1172     0.0000
     20  C3B       -1.2230    3.8050   48.7420 C.ar  1172  HEM1172     0.0000
     21  C4B       -2.5730    3.2890   48.8620 C.ar  1172  HEM1172     0.0000
     22  CMB        0.2260    5.5080   50.0770 C.3   1172  HEM1172     0.0000
     23  CAB       -0.2260    3.3790   47.6300 C.2   1172  HEM1172     0.0000
     24  CBB        0.6700    4.2410   47.1190 C.2   1172  HEM1172     0.0000
     25  NC        -5.3520    2.1580   49.1420 N.2   1172  HEM1172     0.0000
     26  C1C       -4.4880    1.8950   48.1240 C.2   1172  HEM1172     0.0000
     27  C2C       -5.1840    1.0050   47.2060 C.2   1172  HEM1172     0.0000
     28  C3C       -6.4170    0.7910   47.6620 C.2   1172  HEM1172     0.0000
     29  C4C       -6.5470    1.5080   48.9010 C.2   1172  HEM1172     0.0000
     30  CMC       -4.6040    0.4120   45.9070 C.3   1172  HEM1172     0.0000
     31  CAC       -7.5000   -0.1080   47.0140 C.2   1172  HEM1172     0.0000
     32  CBC       -8.5530    0.4360   46.4430 C.2   1172  HEM1172     0.0000
     33  ND        -6.9320    3.1450   51.4380 N.ar  1172  HEM1172     0.0000
     34  C1D       -7.8480    2.2690   50.8510 C.ar  1172  HEM1172     0.0000
     35  C2D       -9.0550    2.2660   51.6440 C.ar  1172  HEM1172     0.0000
     36  C3D       -8.8100    3.2480   52.7660 C.ar  1172  HEM1172     0.0000
     37  C4D       -7.4570    3.7610   52.5820 C.ar  1172  HEM1172     0.0000
     38  CMD      -10.3490    1.4740   51.4190 C.3   1172  HEM1172     0.0000
     39  CAD       -9.8310    3.5750   53.8550 C.3   1172  HEM1172     0.0000
     40  CBD      -10.4280    4.9510   53.5870 C.3   1172  HEM1172     0.0000
     41  CGD      -11.2840    5.3490   54.7490 C.2   1172  HEM1172     0.0000
     42  O1D      -11.8160    6.4920   54.8040 O.co2 1172  HEM1172     0.0000
     43  O2D      -11.4490    4.4910   55.6450 O.co2 1172  HEM1172     0.0000
@<TRIPOS>BOND
     1    30    27    1
     2    32    31    2
     3    31    28    1
     4    24    23    2
     5    27    28    2
     6    27    26    1
     7    23    20    1
     8    28    29    1
     9     4    26    2
    10     4    21    1
    11    26    25    1
    12    20    21   ar
    13    20    19   ar
    14    21    17   ar
    15    29    25    2
    16    29     5    1
    17    25     1    1
    18     5    34    2
    19    19    22    1
    20    19    18   ar
    21    17    18   ar
    22    17     1    1
    23    18     3    1
    24     1    33    1
    25     1     6    1
    26    34    33   ar
    27    34    35   ar
    28    38    35    1
    29    33    37   ar
    30     3    10    2
    31    35    36   ar
    32     6    10    1
    33     6     7    2
    34    10     9    1
    35    37    36   ar
    36    37     2    2
    37    36    39    1
    38     7     2    1
    39     7     8    1
    40    40    39    1
    41    40    41    1
    42     9     8    2
    43     9    11    1
    44     8    12    1
    45    41    42   ar
    46    41    43   ar
    47    12    13    1
    48    15    14   ar
    49    14    13    1
    50    14    16   ar
