@<TRIPOS>MOLECULE
1ump_SQA_A_1.pdb
 30 29 0 0 0
SMALL
GASTEIGER

@<TRIPOS>ATOM
      1  C1        63.0700   68.1510   56.9660 C.3   1630  SQA1630     0.0897
      2  N2        62.3610   69.3490   57.4480 N.3   1630  SQA1630    -0.2703
      3  C3        63.1570   69.9340   58.5260 C.3   1630  SQA1630     0.0725
      4  C4        62.8390   71.4280   58.7190 C.3   1630  SQA1630     0.0217
      5  C5        63.0700   71.8170   60.1840 C.3   1630  SQA1630     0.0231
      6  C6        62.2040   70.9050   61.0430 C.2   1630  SQA1630    -0.0481
      7  C7        62.7950   69.8810   61.7040 C.2   1630  SQA1630    -0.0343
      8  C8        62.0480   68.8850   62.5830 C.3   1630  SQA1630     0.0297
      9  C9        62.9370   68.6120   63.7910 C.3   1630  SQA1630     0.0263
     10  C10       63.0840   69.9050   64.5230 C.2   1630  SQA1630    -0.0478
     11  C11       64.2870   70.4650   64.6080 C.2   1630  SQA1630    -0.0342
     12  C12       64.5060   71.7700   65.3150 C.3   1630  SQA1630     0.0300
     13  C13       65.8150   71.7670   66.0470 C.3   1630  SQA1630     0.0300
     14  C14       65.6930   70.9550   67.3080 C.2   1630  SQA1630    -0.0342
     15  C15       66.0990   69.6850   67.4210 C.2   1630  SQA1630    -0.0478
     16  C16       65.8880   68.9980   68.7500 C.3   1630  SQA1630     0.0263
     17  C17       67.1640   68.8050   69.5190 C.3   1630  SQA1630     0.0297
     18  C18       67.6470   70.1260   70.0900 C.2   1630  SQA1630    -0.0342
     19  C19       68.4300   70.2230   71.1790 C.2   1630  SQA1630    -0.0478
     20  C20       68.9110   71.5660   71.7260 C.3   1630  SQA1630     0.0263
     21  C21       68.3470   72.7780   70.9790 C.3   1630  SQA1630     0.0297
     22  C22       68.8630   74.0540   71.6300 C.2   1630  SQA1630    -0.0342
     23  C23       70.0110   74.6690   71.2430 C.2   1630  SQA1630    -0.0478
     24  C24       70.8810   74.1410   70.1250 C.3   1630  SQA1630     0.0260
     25  C25       60.9760   69.0810   57.8520 C.3   1630  SQA1630     0.0897
     26  C26       60.7300   71.1480   61.0680 C.3   1630  SQA1630     0.0260
     27  C27       61.8540   70.5270   65.1170 C.3   1630  SQA1630     0.0260
     28  C28       66.6820   68.9250   66.2450 C.3   1630  SQA1630     0.0260
     29  C29       68.8910   69.0050   71.9300 C.3   1630  SQA1630     0.0260
     30  C30       70.4690   75.9300   71.9350 C.3   1630  SQA1630     0.0260
@<TRIPOS>BOND
     1     1     2    1
     2     2    25    1
     3     2     3    1
     4     3     4    1
     5     4     5    1
     6     5     6    1
     7     6    26    1
     8     6     7    2
     9     7     8    1
    10     8     9    1
    11     9    10    1
    12    10    11    2
    13    10    27    1
    14    11    12    1
    15    12    13    1
    16    13    14    1
    17    28    15    1
    18    14    15    2
    19    15    16    1
    20    16    17    1
    21    17    18    1
    22    18    19    2
    23    24    23    1
    24    21    22    1
    25    21    20    1
    26    19    20    1
    27    19    29    1
    28    23    22    2
    29    23    30    1
