@<TRIPOS>MOLECULE
1ump_C8E_A_1.pdb
 21 20 0 0 0
SMALL
GASTEIGER

@<TRIPOS>ATOM
      1  C1        57.6130   92.7630   71.6930 C.3   1629  C8E1629     0.0000
      2  C2        57.2840   91.8070   72.8530 C.3   1629  C8E1629     0.0000
      3  C3        56.8340   90.4160   72.3690 C.3   1629  C8E1629     0.0000
      4  C4        55.6520   90.5090   71.3980 C.3   1629  C8E1629     0.0000
      5  C5        54.6280   89.4330   71.7010 C.3   1629  C8E1629     0.0001
      6  C6        53.4280   89.4780   70.7590 C.3   1629  C8E1629     0.0026
      7  C7        52.1570   89.2390   71.5940 C.3   1629  C8E1629     0.0321
      8  C8        50.9190   88.9900   70.7350 C.3   1629  C8E1629     0.1423
      9  O9        50.1810   87.9240   71.2990 O.3   1629  C8E1629    -0.3511
     10  C10       50.0710   86.7540   70.4990 C.3   1629  C8E1629     0.1741
     11  C11       51.1910   85.8230   70.9210 C.3   1629  C8E1629     0.1742
     12  O12       52.1490   85.7860   69.8880 O.3   1629  C8E1629    -0.3484
     13  C13       53.3350   85.1750   70.2870 C.3   1629  C8E1629     0.1742
     14  C14       54.4340   85.7980   69.4570 C.3   1629  C8E1629     0.1742
     15  O15       53.9380   86.0580   68.1670 O.3   1629  C8E1629    -0.3484
     16  C16       54.9110   86.5980   67.3200 C.3   1629  C8E1629     0.1742
     17  C17       54.5770   88.0240   66.9140 C.3   1629  C8E1629     0.1742
     18  O18       55.8160   88.6780   66.7750 O.3   1629  C8E1629    -0.3483
     19  C19       56.2420   89.4150   67.9070 C.3   1629  C8E1629     0.1777
     20  C20       57.6370   90.0090   67.6660 C.3   1629  C8E1629     0.2140
     21  O21       57.8690   91.2340   68.3650 O.3   1629  C8E1629    -0.2176
@<TRIPOS>BOND
     1    18    17    1
     2    18    19    1
     3    17    16    1
     4    16    15    1
     5    20    19    1
     6    20    21    1
     7    15    14    1
     8    14    13    1
     9    12    13    1
    10    12    11    1
    11    10    11    1
    12    10     9    1
    13     8     9    1
    14     8     7    1
    15     6     7    1
    16     6     5    1
    17     4     5    1
    18     4     3    1
    19     1     2    1
    20     3     2    1
