@<TRIPOS>MOLECULE
1ums_PHE_A_1.pdb
 20 20 0 0 0
SMALL
GASTEIGER

@<TRIPOS>ATOM
      1  N          5.3930    6.5850   12.7480 N.3   259  PHE259     -0.2450
      2  CA         6.6940    6.5230   13.4070 C.3   259  PHE259      0.0916
      3  C          6.8610    7.7720   14.2780 C.2   259  PHE259      0.2180
      4  O          7.1200    7.6630   15.4740 O.2   259  PHE259     -0.2872
      5  CB         7.8260    6.3900   12.3570 C.3   259  PHE259     -0.0036
      6  CG         9.0440    5.5750   12.7570 C.ar  259  PHE259     -0.0454
      7  CD1        9.6690    5.7760   14.0010 C.ar  259  PHE259     -0.0585
      8  CD2        9.5690    4.6190   11.8620 C.ar  259  PHE259     -0.0585
      9  CE1       10.7890    5.0070   14.3570 C.ar  259  PHE259     -0.0615
     10  CE2       10.7060    3.8730   12.2080 C.ar  259  PHE259     -0.0615
     11  CZ        11.3290    4.0820   13.4490 C.ar  259  PHE259     -0.0617
     12  H          5.3890    6.9710   11.8150 H     259  PHE259      0.1414
     13  HA         6.7440    5.6540   14.0520 H     259  PHE259      0.0560
     14  HB2        7.5020    6.0480   11.3820 H     259  PHE259      0.0333
     15  HB3        8.1590    7.3460   12.0550 H     259  PHE259      0.0333
     16  HD1        9.3020    6.5170   14.6920 H     259  PHE259      0.0620
     17  HD2        9.1090    4.4560   10.8980 H     259  PHE259      0.0620
     18  HE1       11.2320    5.1220   15.3310 H     259  PHE259      0.0618
     19  HE2       11.0930    3.1390   11.5210 H     259  PHE259      0.0618
     20  HZ        12.2210    3.5350   13.7110 H     259  PHE259      0.0618
@<TRIPOS>BOND
     1    17     8    1
     2    14     5    1
     3    19    10    1
     4    12     1    1
     5     8    10   ar
     6     8     6   ar
     7    15     5    1
     8    10    11   ar
     9     5     6    1
    10     5     2    1
    11     1     2    1
    12     6     7   ar
    13     2    13    1
    14     2     3    1
    15    11    20    1
    16    11     9   ar
    17     7     9   ar
    18     7    16    1
    19     3     4    2
    20     9    18    1
