@<TRIPOS>MOLECULE
1ums_LEU_A_1.pdb
 19 18 0 0 0
SMALL
GASTEIGER

@<TRIPOS>ATOM
      1  N          2.4990    4.9690   12.0200 N.3   258  LEU258     -0.2453
      2  CA         2.9910    6.3070   12.3440 C.3   258  LEU258      0.0879
      3  C          4.2160    6.1900   13.2690 C.2   258  LEU258      0.2177
      4  O          4.0980    5.7420   14.4080 O.2   258  LEU258     -0.2872
      5  CB         1.8940    7.2400   12.9010 C.3   258  LEU258     -0.0266
      6  CG         1.9420    8.6680   12.2920 C.3   258  LEU258     -0.0449
      7  CD1        3.3420    9.3020   12.3550 C.3   258  LEU258     -0.0626
      8  CD2        1.3820    8.8060   10.8570 C.3   258  LEU258     -0.0626
      9  H          2.9320    4.1880   12.4910 H     258  LEU258      0.1414
     10  HA         3.3540    6.7090   11.4210 H     258  LEU258      0.0557
     11  HB2        0.9020    6.8290   12.7180 H     258  LEU258      0.0287
     12  HB3        2.0130    7.3200   13.9820 H     258  LEU258      0.0287
     13  HG         1.2920    9.2810   12.9190 H     258  LEU258      0.0296
     14 HD11        4.1050    8.6780   11.9100 H     258  LEU258      0.0232
     15 HD12        3.3490   10.2400   11.8040 H     258  LEU258      0.0232
     16 HD13        3.6320    9.4720   13.3860 H     258  LEU258      0.0232
     17 HD21        0.9410    7.8920   10.4810 H     258  LEU258      0.0232
     18 HD22        0.6020    9.5620   10.8210 H     258  LEU258      0.0232
     19 HD23        2.1520    9.1230   10.1550 H     258  LEU258      0.0232
@<TRIPOS>BOND
     1    19     8    1
     2    17     8    1
     3    18     8    1
     4     8     6    1
     5    10     2    1
     6    15     7    1
     7    14     7    1
     8     1     2    1
     9     1     9    1
    10     6     7    1
    11     6     5    1
    12     6    13    1
    13     2     5    1
    14     2     3    1
    15     7    16    1
    16    11     5    1
    17     5    12    1
    18     3     4    2
