@<TRIPOS>MOLECULE
1ums_MOP_A_1.pdb
 17 16 0 0 0
SMALL
GASTEIGER

@<TRIPOS>ATOM
      1  C1         1.5760    4.7250   11.0710 C.2   257  MOP257      0.2021
      2  O1         0.9910    5.6030   10.4480 O.2   257  MOP257     -0.2887
      3  C2         1.2790    3.2710   10.7180 C.3   257  MOP257      0.0352
      4  C3         1.4660    3.1210    9.1950 C.3   257  MOP257     -0.0401
      5  C4         2.1380    1.8350    8.6930 C.3   257  MOP257     -0.0461
      6  C5         2.4550    2.0480    7.2110 C.3   257  MOP257     -0.0626
      7  CM4        3.4750    1.5420    9.3520 C.3   257  MOP257     -0.0626
      8  H21        2.0550    2.6850   11.2020 H     257  MOP257      0.0389
      9  H31        0.5090    3.2510    8.6920 H     257  MOP257      0.0275
     10  H32        2.1160    3.9270    8.8480 H     257  MOP257      0.0275
     11  H4         1.5050    0.9650    8.8770 H     257  MOP257      0.0296
     12  H51        3.4060    2.5740    7.0970 H     257  MOP257      0.0232
     13  H52        1.6860    2.6510    6.7350 H     257  MOP257      0.0232
     14  H53        2.5210    1.0790    6.7260 H     257  MOP257      0.0232
     15 HM41        4.0100    2.4710    9.5420 H     257  MOP257      0.0232
     16 HM42        4.0880    0.9030    8.7170 H     257  MOP257      0.0232
     17 HM43        3.2830    1.0050   10.2730 H     257  MOP257      0.0232
@<TRIPOS>BOND
     1    14     6    1
     2    13     6    1
     3    12     6    1
     4     6     5    1
     5     9     4    1
     6     5    11    1
     7     5     4    1
     8     5     7    1
     9    16     7    1
    10    10     4    1
    11     4     3    1
    12     7    15    1
    13     7    17    1
    14     2     1    2
    15     3     1    1
    16     3     8    1
