@<TRIPOS>MOLECULE
1umx_U10_M_1.pdb
 48 48 0 0 0
SMALL
GASTEIGER

@<TRIPOS>ATOM
      1  C1        57.2420   57.0310   74.9810 C.2   1309  U101309     0.0198
      2  C2        55.7680   57.1410   75.0310 C.2   1309  U101309     0.2282
      3  C3        55.0000   56.9960   76.3240 C.2   1309  U101309     0.2140
      4  C4        55.7630   56.6960   77.5440 C.2   1309  U101309     0.2140
      5  C5        57.2600   56.5940   77.4800 C.2   1309  U101309     0.2285
      6  C6        58.0010   56.7720   76.2070 C.2   1309  U101309     0.0235
      7  C1M       57.9400   57.1780   73.6830 C.3   1309  U101309     0.0343
      8  C3M       53.0110   58.2920   75.9410 C.3   1309  U101309     0.2528
      9  C4M       53.9910   57.1720   79.2170 C.3   1309  U101309     0.2528
     10  C7        59.4970   56.6930   76.2160 C.3   1309  U101309     0.0548
     11  C8        60.0700   58.0670   75.9300 C.2   1309  U101309    -0.0298
     12  C9        60.7530   58.7940   76.8530 C.2   1309  U101309    -0.0475
     13  C10       60.9310   58.3140   78.2550 C.3   1309  U101309     0.0260
     14  C11       61.3750   60.1390   76.5270 C.3   1309  U101309     0.0264
     15  C12       62.9190   60.1190   76.4880 C.3   1309  U101309     0.0297
     16  C13       63.5100   59.1550   75.4570 C.2   1309  U101309    -0.0342
     17  C14       64.3540   59.5410   74.4600 C.2   1309  U101309    -0.0478
     18  C15       64.8220   60.9760   74.3190 C.3   1309  U101309     0.0260
     19  C16       64.8620   58.5350   73.4460 C.3   1309  U101309     0.0263
     20  C17       66.3370   58.2970   73.7270 C.3   1309  U101309     0.0297
     21  C18       66.5440   57.1130   74.6400 C.2   1309  U101309    -0.0342
     22  C19       67.7650   56.9180   75.1790 C.2   1309  U101309    -0.0478
     23  C20       68.8760   57.7790   74.7070 C.3   1309  U101309     0.0260
     24  C21       68.1060   55.8890   76.2280 C.3   1309  U101309     0.0263
     25  C22       68.5890   54.6140   75.5500 C.3   1309  U101309     0.0297
     26  C23       68.9170   53.4980   76.5180 C.2   1309  U101309    -0.0343
     27  C24       68.8250   52.1990   76.1310 C.2   1309  U101309    -0.0482
     28  C25       68.3370   51.7890   74.7840 C.3   1309  U101309     0.0260
     29  C26       69.1590   51.0520   77.0130 C.3   1309  U101309     0.0217
     30  C27       70.2080   51.4570   78.0260 C.3   1309  U101309     0.0043
     31  C28       70.7700   50.0880   78.2390 C.3   1309  U101309     0.0003
     32  C29       71.3190   49.7440   79.3890 C.3   1309  U101309     0.0000
     33  C30       71.7420   50.8380   80.3460 C.3   1309  U101309     0.0000
     34  C31       71.4910   48.2620   79.6600 C.3   1309  U101309     0.0000
     35  C32       71.0060   47.4820   78.4300 C.3   1309  U101309     0.0000
     36  C33       70.2090   46.2720   78.9120 C.3   1309  U101309     0.0000
     37  C34       70.3830   45.0610   78.3200 C.3   1309  U101309     0.0003
     38  C35       71.6850   44.8460   77.5470 C.3   1309  U101309     0.0000
     39  C36       69.4200   44.0900   78.3690 C.3   1309  U101309     0.0046
     40  C37       69.0810   43.2030   79.5430 C.3   1309  U101309     0.0254
     41  C38       69.8110   43.5670   80.8290 C.2   1309  U101309    -0.0346
     42  C39       70.7130   42.7680   81.4790 C.2   1309  U101309    -0.0478
     43  C40       71.5910   43.4100   82.5420 C.3   1309  U101309     0.0260
     44  C41       70.8820   41.2880   81.1930 C.3   1309  U101309     0.0260
     45  O2        55.1550   57.3580   73.9580 O.2   1309  U101309    -0.2836
     46  O3        53.6090   57.0600   76.3320 O.2   1309  U101309    -0.4652
     47  O4        55.1720   56.5320   78.7450 O.2   1309  U101309    -0.4652
     48  O5        57.9450   56.4300   78.5280 O.2   1309  U101309    -0.2835
@<TRIPOS>BOND
     1    19    20    1
     2    19    17    1
     3     7     1    1
     4    20    21    1
     5    45     2    2
     6    18    17    1
     7    17    16    2
     8    21    22    2
     9    23    22    1
    10    28    27    1
    11     1     2    1
    12     1     6    2
    13     2     3    1
    14    22    24    1
    15    16    15    1
    16    25    24    1
    17    25    26    1
    18    11    10    1
    19    11    12    2
    20     8    46    1
    21    27    26    2
    22    27    29    1
    23     6    10    1
    24     6     5    1
    25     3    46    1
    26     3     4    2
    27    15    14    1
    28    14    12    1
    29    12    13    1
    30    29    30    1
    31     5     4    1
    32     5    48    2
    33     4    47    1
    34    38    37    1
    35    30    31    1
    36    31    32    1
    37    37    39    1
    38    37    36    1
    39    39    40    1
    40    35    36    1
    41    35    34    1
    42    47     9    1
    43    32    34    1
    44    32    33    1
    45    40    41    1
    46    41    42    2
    47    44    42    1
    48    42    43    1
