@<TRIPOS>MOLECULE
1umx_SPN_M_1.pdb
 43 42 0 0 0
SMALL
GASTEIGER

@<TRIPOS>ATOM
      1  CMA       52.4060   79.8320   37.7680 C.3   1308  SPN1308     0.1745
      2  O1        52.6530   81.2620   37.6440 O.3   1308  SPN1308    -0.3486
      3  CM1       52.5160   83.5850   38.4750 C.3   1308  SPN1308     0.0376
      4  CM2       50.8660   81.8350   39.1250 C.3   1308  SPN1308     0.0376
      5  C1        52.3120   82.1040   38.7700 C.3   1308  SPN1308     0.1476
      6  C2        53.0790   81.7850   40.0220 C.2   1308  SPN1308     0.1972
      7  O2        52.7190   82.3710   41.0280 O.2   1308  SPN1308    -0.2889
      8  C3        54.2570   80.8320   40.1300 C.2   1308  SPN1308     0.0395
      9  C4        55.1340   81.0840   41.1460 C.2   1308  SPN1308    -0.0012
     10  C5        56.4110   80.3810   41.3610 C.2   1308  SPN1308    -0.0218
     11  CM3       57.1300   79.7100   40.2280 C.3   1308  SPN1308     0.0310
     12  C6        56.9250   80.4150   42.6170 C.2   1308  SPN1308    -0.0043
     13  C7        58.1360   79.7860   43.1510 C.2   1308  SPN1308    -0.0007
     14  C8        58.4780   80.0760   44.4390 C.2   1308  SPN1308    -0.0046
     15  C9        59.5940   79.4610   45.1720 C.2   1308  SPN1308    -0.0258
     16  CM4       60.1290   78.1380   44.7340 C.3   1308  SPN1308     0.0307
     17  C10       60.1130   79.9840   46.2880 C.2   1308  SPN1308    -0.0257
     18  C11       61.1650   79.2180   46.9620 C.3   1308  SPN1308     0.0513
     19  C12       61.5480   79.7320   48.1480 C.2   1308  SPN1308    -0.0257
     20  C13       62.5550   79.1850   49.0240 C.2   1308  SPN1308    -0.0261
     21  CM5       63.1010   77.8300   48.7130 C.3   1308  SPN1308     0.0307
     22  C14       62.9430   79.9250   50.0960 C.2   1308  SPN1308    -0.0088
     23  C15       63.9710   79.4920   51.0900 C.2   1308  SPN1308    -0.0218
     24  C16       64.5100   80.2990   52.0590 C.3   1308  SPN1308     0.0517
     25  C17       64.0860   81.8030   52.2420 C.2   1308  SPN1308    -0.0257
     26  C18       64.4900   82.4970   53.3240 C.2   1308  SPN1308    -0.0258
     27  CM6       65.3620   81.8880   54.3790 C.3   1308  SPN1308     0.0307
     28  C19       64.0560   83.8910   53.4620 C.2   1308  SPN1308    -0.0046
     29  C20       63.9040   84.5130   54.6470 C.2   1308  SPN1308    -0.0010
     30  C21       63.4480   85.9020   54.6080 C.2   1308  SPN1308    -0.0085
     31  C22       63.4450   86.7940   55.6280 C.2   1308  SPN1308    -0.0436
     32  CM7       63.9230   86.5070   57.0330 C.3   1308  SPN1308     0.0264
     33  C23       62.9660   88.1330   55.2440 C.3   1308  SPN1308     0.0267
     34  C24       63.9040   89.2190   55.7120 C.3   1308  SPN1308     0.0297
     35  C25       63.3280   90.5030   55.2430 C.2   1308  SPN1308    -0.0342
     36  C26       63.9370   91.4300   54.4560 C.2   1308  SPN1308    -0.0478
     37  CM8       65.3440   91.2940   53.9680 C.3   1308  SPN1308     0.0260
     38  C27       63.1680   92.6600   54.1230 C.3   1308  SPN1308     0.0263
     39  C28       63.1170   93.5790   55.3480 C.3   1308  SPN1308     0.0297
     40  C29       62.6310   94.9390   54.9770 C.2   1308  SPN1308    -0.0342
     41  C30       62.2250   95.8290   55.9210 C.2   1308  SPN1308    -0.0478
     42  CM9       62.2680   95.4890   57.3890 C.3   1308  SPN1308     0.0260
     43  CMB       61.7290   97.1930   55.5150 C.3   1308  SPN1308     0.0260
@<TRIPOS>BOND
     1     2     1    1
     2     2     5    1
     3     3     5    1
     4     5     4    1
     5     5     6    1
     6     6     8    1
     7     6     7    2
     8     8     9    2
     9    11    10    1
    10     9    10    1
    11    10    12    2
    12    12    13    1
    13    13    14    2
    14    14    15    1
    15    16    15    1
    16    15    17    2
    17    17    18    1
    18    18    19    1
    19    19    20    2
    20    21    20    1
    21    20    22    1
    22    22    23    2
    23    23    24    1
    24    24    25    1
    25    25    26    2
    26    26    28    1
    27    26    27    1
    28    28    29    2
    29    37    36    1
    30    38    36    1
    31    38    39    1
    32    36    35    2
    33    30    29    1
    34    30    31    2
    35    40    39    1
    36    40    41    2
    37    35    34    1
    38    33    31    1
    39    33    34    1
    40    43    41    1
    41    31    32    1
    42    41    42    1
