@<TRIPOS>MOLECULE
1umz_GAL_A_1.pdb
 11 11 0 0 0
SMALL
GASTEIGER

@<TRIPOS>ATOM
      1  C1        45.4330   44.8650   20.8980 C.3   1281  GAL1281     0.1777
      2  C2        45.2830   43.8860   22.0690 C.3   1281  GAL1281     0.2141
      3  C3        46.4400   43.9550   23.0710 C.3   1281  GAL1281     0.2173
      4  C4        47.8100   44.0500   22.3910 C.3   1281  GAL1281     0.2142
      5  C5        47.7470   45.1260   21.3170 C.3   1281  GAL1281     0.1810
      6  C6        49.0610   45.3370   20.5670 C.3   1281  GAL1281     0.2141
      7  O2        44.0960   44.1920   22.7600 O.3   1281  GAL1281    -0.2176
      8  O3        46.3900   42.8150   23.8990 O.3   1281  GAL1281    -0.2175
      9  O4        48.1890   42.8250   21.8050 O.3   1281  GAL1281    -0.2176
     10  O5        46.7480   44.7690   20.3900 O.3   1281  GAL1281    -0.3481
     11  O6        48.8830   46.5000   19.7870 O.3   1281  GAL1281    -0.2176
@<TRIPOS>BOND
     1    11     6    1
     2    10     1    1
     3    10     5    1
     4     6     5    1
     5     1     2    1
     6     5     4    1
     7     9     4    1
     8     2     7    1
     9     2     3    1
    10     4     3    1
    11     3     8    1
