@<TRIPOS>MOLECULE
1umz_BGC_A_1.pdb
 11 11 0 0 0
SMALL
GASTEIGER

@<TRIPOS>ATOM
      1  C2        50.5240   44.9910   15.5640 C.3   1276  BGC1276     0.2141
      2  C3        51.5260   44.9480   14.3890 C.3   1276  BGC1276     0.2173
      3  C4        52.6830   44.0020   14.7260 C.3   1276  BGC1276     0.2142
      4  C5        52.0910   42.6480   15.1480 C.3   1276  BGC1276     0.1810
      5  C6        53.1280   41.5890   15.5030 C.3   1276  BGC1276     0.2141
      6  C1        50.0680   43.5900   15.9850 C.3   1276  BGC1276     0.1777
      7  O2        49.4110   45.7530   15.1850 O.3   1276  BGC1276    -0.2176
      8  O3        51.9540   46.2650   14.0460 O.3   1276  BGC1276    -0.2175
      9  O4        53.5170   43.8250   13.5860 O.3   1276  BGC1276    -0.2176
     10  O5        51.2080   42.7910   16.2560 O.3   1276  BGC1276    -0.3481
     11  O6        52.3940   40.3930   15.6310 O.3   1276  BGC1276    -0.2176
@<TRIPOS>BOND
     1     9     3    1
     2     8     2    1
     3     2     3    1
     4     2     1    1
     5     3     4    1
     6     4     5    1
     7     4    10    1
     8     7     1    1
     9     5    11    1
    10     1     6    1
    11     6    10    1
