@<TRIPOS>MOLECULE
1un9_ANP_A_1.pdb
 31 33 0 0 0
SMALL
GASTEIGER

@<TRIPOS>ATOM
      1  PG        16.4720   72.7230  179.7050 P.3   1551  ANP1551     0.4884
      2  O1G       17.4700   73.2090  180.8390 O.3   1551  ANP1551    -0.1240
      3  O2G       16.1460   73.9520  178.7420 O.2   1551  ANP1551    -0.2331
      4  O3G       17.2020   71.5880  178.8690 O.3   1551  ANP1551    -0.1240
      5  PB        14.3800   72.7110  181.9230 P.3   1551  ANP1551     0.4669
      6  O1B       12.8150   72.9040  181.7790 O.2   1551  ANP1551    -0.2351
      7  O2B       15.0380   74.1330  182.1590 O.3   1551  ANP1551    -0.1253
      8  N3B       15.0380   72.0310  180.4470 N.3   1551  ANP1551    -0.0163
      9  PA        15.1600   72.4910  184.5620 P.3   1551  ANP1551     0.2220
     10  O1A       15.5870   71.4240  185.6580 O.3   1551  ANP1551    -0.4370
     11  O2A       16.4020   73.4060  184.1900 O.2   1551  ANP1551    -0.5170
     12  O3A       14.6250   71.7890  183.2160 O.3   1551  ANP1551    -0.2360
     13  O5'       13.9360   73.3780  185.1140 O.3   1551  ANP1551    -0.3111
     14  C5'       13.7020   74.6950  184.6280 C.3   1551  ANP1551     0.1813
     15  C4'       13.7030   75.6970  185.7790 C.3   1551  ANP1551     0.1821
     16  O4'       14.4490   76.8740  185.4490 O.3   1551  ANP1551    -0.3135
     17  C3'       12.3010   76.1940  186.0940 C.3   1551  ANP1551     0.2184
     18  O3'       11.8400   75.4990  187.2390 O.3   1551  ANP1551    -0.2174
     19  C2'       12.4530   77.6780  186.3860 C.3   1551  ANP1551     0.2570
     20  O2'       12.0910   77.9200  187.7360 O.3   1551  ANP1551    -0.2130
     21  C1'       13.9490   77.8890  186.3030 C.3   1551  ANP1551     0.3186
     22  N9        14.3970   79.2650  185.9710 N.pl3 1551  ANP1551    -0.1439
     23  C8        14.8790   80.1870  186.8550 C.3   1551  ANP1551     0.3377
     24  N7        15.2240   81.3870  186.2790 N.2   1551  ANP1551    -0.2095
     25  C5        14.9580   81.2360  184.9770 C.2   1551  ANP1551     0.2526
     26  C6        15.0530   82.0400  183.7490 C.2   1551  ANP1551     0.4393
     27  N6        15.5290   83.3090  183.8240 N.pl3 1551  ANP1551     0.2180
     28  N1        14.6560   81.4730  182.5800 N.2   1551  ANP1551     0.0021
     29  C2        14.1780   80.2060  182.4880 C.3   1551  ANP1551     0.5254
     30  N3        14.0420   79.3710  183.5370 N.2   1551  ANP1551    -0.0055
     31  C4        14.4360   79.8830  184.8090 C.2   1551  ANP1551     0.3518
@<TRIPOS>BOND
     1     3     1    2
     2     4     1    1
     3     1     8    1
     4     1     2    1
     5     8     5    1
     6     6     5    2
     7     5     7    1
     8     5    12    1
     9    29    28    1
    10    29    30    1
    11    28    26    2
    12    12     9    1
    13    30    31    2
    14    26    27    1
    15    26    25    1
    16    11     9    2
    17     9    13    1
    18     9    10    1
    19    14    13    1
    20    14    15    1
    21    31    25    1
    22    31    22    1
    23    25    24    2
    24    16    15    1
    25    16    21    1
    26    15    17    1
    27    22    21    1
    28    22    23    1
    29    17    19    1
    30    17    18    1
    31    24    23    1
    32    21    19    1
    33    19    20    1
