@<TRIPOS>MOLECULE
1unb_AKG_A_1.pdb
 10 9 0 0 0
SMALL
GASTEIGER

@<TRIPOS>ATOM
      1  C1         5.9880   14.6430   54.9040 C.2   1311  AKG1311     0.4219
      2  O1         6.3630   13.8910   54.0380 O.co2 1311  AKG1311    -0.2373
      3  O2         4.8310   15.2660   54.9010 O.co2 1311  AKG1311    -0.2373
      4  C2         6.8980   14.9760   56.0850 C.2   1311  AKG1311     0.2526
      5  O5         7.9740   14.4510   56.2150 O.2   1311  AKG1311    -0.2843
      6  C3         6.3440   15.9390   57.1260 C.3   1311  AKG1311     0.0881
      7  C4         7.3490   16.3830   58.1560 C.3   1311  AKG1311     0.1224
      8  C5         6.8730   17.5690   59.0260 C.2   1311  AKG1311     0.3653
      9  O3         7.6770   18.3850   59.3910 O.co2 1311  AKG1311    -0.2456
     10  O4         5.6370   17.7080   59.3850 O.co2 1311  AKG1311    -0.2456
@<TRIPOS>BOND
     1     2     1   ar
     2     3     1   ar
     3     1     4    1
     4     4     5    2
     5     4     6    1
     6     6     7    1
     7     7     8    1
     8     8    10   ar
     9     8     9   ar
