@<TRIPOS>MOLECULE
1unb_PN1_A_1.pdb
 24 26 0 0 0
SMALL
GASTEIGER

@<TRIPOS>ATOM
      1  C8        -0.9980   16.2140   50.0950 C.ar  1312  PN11312    -0.0003
      2  C5         0.4630   14.6950   51.4710 C.ar  1312  PN11312     0.0038
      3  C6         7.4100   15.4440   55.3830 C.3   1312  PN11312     0.0681
      4  N1         3.3940   13.9250   53.7970 N.am  1312  PN11312    -0.1937
      5  C2         6.7210   16.7960   57.3280 C.2   1312  PN11312     0.3833
      6  N3         5.2070   15.3840   56.2430 N.am  1312  PN11312    -0.2594
      7  C4         1.8340   14.2380   51.9720 C.3   1312  PN11312     0.1915
      8  C1         8.0640   14.6380   56.5110 C.3   1312  PN11312     0.0131
      9  C3         2.1710   14.4270   53.4530 C.2   1312  PN11312     0.2635
     10  C7         0.2940   15.9930   50.6540 C.ar  1312  PN11312    -0.0024
     11  C9        -2.0440   15.2170   50.2830 C.ar  1312  PN11312    -0.0000
     12  C10       -1.9020   13.8740   51.0370 C.ar  1312  PN11312    -0.0003
     13  C11       -0.6820   13.7250   51.7020 C.ar  1312  PN11312    -0.0024
     14  C12        6.3070   16.2750   55.9860 C.3   1312  PN11312     0.1888
     15  C13        5.3930   14.1480   55.4390 C.3   1312  PN11312     0.1529
     16  C14        3.8880   14.2010   55.1140 C.3   1312  PN11312     0.1996
     17  C15        3.9620   15.5960   55.6190 C.2   1312  PN11312     0.2491
     18  C16        8.3990   16.3010   54.6030 C.3   1312  PN11312     0.0131
     19  N2         1.6990   12.7130   52.0050 N.3   1312  PN11312    -0.1182
     20  O1         6.2520   16.3300   58.3600 O.co2 1312  PN11312    -0.2438
     21  O2         7.6110   17.7640   57.4030 O.co2 1312  PN11312    -0.2438
     22  O3         1.3410   14.9550   54.2110 O.2   1312  PN11312    -0.2714
     23  O4         3.1970   16.5750   55.5220 O.2   1312  PN11312    -0.2729
     24  S1         6.7150   14.4260   54.2130 S.3   1312  PN11312    -0.1184
@<TRIPOS>BOND
     1     1    11   ar
     2     1    10   ar
     3    11    12   ar
     4    10     2   ar
     5    12    13   ar
     6     2    13   ar
     7     2     7    1
     8     7    19    1
     9     7     9    1
    10     9     4   am
    11     9    22    2
    12     4    16    1
    13    24     3    1
    14    24    15    1
    15    18     3    1
    16    16    15    1
    17    16    17    1
    18     3    14    1
    19     3     8    1
    20    15     6    1
    21    23    17    2
    22    17     6   am
    23    14     6    1
    24    14     5    1
    25     5    21   ar
    26     5    20   ar
