@<TRIPOS>MOLECULE
1ung_ALH_A_1.pdb
 20 22 0 0 0
SMALL
GASTEIGER

@<TRIPOS>ATOM
      1  OAO        0.9860   70.0120    1.0710 O.3   1293  ALH1293    -0.2866
      2  CAN        1.8070   69.0080    0.9370 C.ar  1293  ALH1293     0.1957
      3  CAU        2.3790   68.3990    2.0550 C.ar  1293  ALH1293     0.0421
      4  CAT        3.2490   67.3160    1.9140 C.ar  1293  ALH1293     0.0055
      5  CAM        3.5520   66.8900    0.6280 C.ar  1293  ALH1293     0.0269
      6  CAE        2.9860   67.5350   -0.4940 C.ar  1293  ALH1293     0.0055
      7  CAF        2.1080   68.5970   -0.3450 C.ar  1293  ALH1293     0.0421
      8  CAL        4.3980   65.8360    0.3110 C.2   1293  ALH1293     0.1262
      9  NAS        4.6370   65.4420   -0.9710 N.2   1293  ALH1293    -0.3532
     10  CAR        5.4840   64.4360   -0.8390 C.1   1293  ALH1293     0.1013
     11  NAQ        6.0700   63.6610   -1.9000 N.2   1293  ALH1293    -0.1797
     12  CAJ        5.7850   64.2120    0.4800 C.2   1293  ALH1293     0.1386
     13  NAI        6.7000   63.1680    0.8300 N.2   1293  ALH1293    -0.2351
     14  CAH        7.2010   62.4310   -0.1540 C.2   1293  ALH1293     0.1207
     15  CAP        6.8800   62.6720   -1.4960 C.2   1293  ALH1293     0.1311
     16  CAK        5.0830   65.0800    1.2990 C.3   1293  ALH1293     0.1041
     17  CAG        5.1550   65.1990    2.8220 C.3   1293  ALH1293     0.0138
     18  CAD        4.3490   64.2710    3.7290 C.3   1293  ALH1293     0.0008
     19  CAC        5.1210   64.1220    5.0390 C.3   1293  ALH1293     0.0000
     20  CAB        4.5150   64.8330    6.2450 C.3   1293  ALH1293     0.0000
@<TRIPOS>BOND
     1    11    15    1
     2    11    10    2
     3    15    14    2
     4     9    10    2
     5     9     8    2
     6    10    12    1
     7     6     7   ar
     8     6     5   ar
     9     7     2   ar
    10    14    13    1
    11     8     5    1
    12     8    16    1
    13    12    13    2
    14    12    16    1
    15     5     4   ar
    16     2     1    1
    17     2     3   ar
    18    16    17    1
    19     4     3   ar
    20    17    18    1
    21    18    19    1
    22    19    20    1
