@<TRIPOS>MOLECULE
1unh_IXM_A_1.pdb
 21 24 0 0 0
SMALL
GASTEIGER

@<TRIPOS>ATOM
      1  C1        40.8530   17.9780   30.4930 C.2   1288  IXM1288     0.0492
      2  C2        39.9810   16.8140   30.6130 C.2   1288  IXM1288     0.1563
      3  C3        40.8110   18.5550   31.7300 C.2   1288  IXM1288     0.1150
      4  N4        39.9990   17.8910   32.6120 N.2   1288  IXM1288    -0.4034
      5  C5        41.5870   19.7640   31.9750 C.3   1288  IXM1288     0.0850
      6  C7        42.3520   20.2740   30.9110 C.2   1288  IXM1288    -0.0187
      7  C9        42.3850   19.6630   29.6470 C.2   1288  IXM1288    -0.0040
      8  C11       41.6400   18.4960   29.3930 C.2   1288  IXM1288     0.0036
      9  C13       39.4990   16.8390   31.9250 C.2   1288  IXM1288     0.1638
     10  C14       38.6140   15.9230   32.5400 C.2   1288  IXM1288     0.1282
     11  C15       38.2080   16.0590   33.8490 C.1   1288  IXM1288     0.2073
     12  N16       37.3500   15.0800   34.2880 N.2   1288  IXM1288    -0.3328
     13  C17       37.2030   14.2840   33.1850 C.ar  1288  IXM1288     0.1452
     14  C18       37.9240   14.6840   32.0710 C.ar  1288  IXM1288     0.0450
     15  C19       36.4560   13.2070   33.1000 C.ar  1288  IXM1288     0.0331
     16  C20       36.3280   12.4750   32.0270 C.ar  1288  IXM1288     0.0027
     17  C21       37.0590   12.8780   30.8140 C.ar  1288  IXM1288     0.0002
     18  C22       37.8460   13.9700   30.7940 C.ar  1288  IXM1288     0.0034
     19  O23       38.6660   17.0210   34.5350 O.2   1288  IXM1288    -0.2092
     20  N24       39.7090   15.9230   29.6380 N.2   1288  IXM1288    -0.0267
     21  O39       40.2390   16.1410   28.3650 O.2   1288  IXM1288    -0.1431
@<TRIPOS>BOND
     1    21    20    1
     2     8     7    1
     3     8     1    2
     4    20     2    2
     5     7     6    2
     6     1     2    1
     7     1     3    1
     8     2     9    1
     9    18    17   ar
    10    18    14   ar
    11    17    16   ar
    12     6     5    1
    13     3     5    1
    14     3     4    2
    15     9    10    1
    16     9     4    2
    17    16    15   ar
    18    14    10    2
    19    14    13   ar
    20    10    11    1
    21    15    13   ar
    22    13    12    2
    23    11    12    2
    24    11    19    2
