@<TRIPOS>MOLECULE
1unl_RRC_A_1.pdb
 26 28 0 0 0
SMALL
GASTEIGER

@<TRIPOS>ATOM
      1  OAP       57.5260   30.7120   29.6960 O.3   1293  RRC1293    -0.2185
      2  CAQ       58.5430   30.4700   30.6370 C.3   1293  RRC1293     0.2044
      3  CAR       59.7790   30.0060   29.8600 C.3   1293  RRC1293     0.1385
      4  CAK       60.9360   29.9110   30.8560 C.3   1293  RRC1293     0.0252
      5  CAI       61.5400   28.5300   31.0020 C.3   1293  RRC1293     0.0019
      6  NAS       59.3650   28.7200   29.3170 N.pl3 1293  RRC1293    -0.1508
      7  CAT       59.1540   28.4240   28.0090 C.1   1293  RRC1293     0.2227
      8  NAU       58.7540   27.1700   27.6870 N.2   1293  RRC1293    -0.3099
      9  CAV       58.5380   26.8490   26.4000 C.2   1293  RRC1293     0.2197
     10  NAW       58.1300   25.6970   25.9200 N.pl3 1293  RRC1293    -0.2624
     11  CAZ       57.8910   24.6280   26.9030 C.3   1293  RRC1293     0.0770
     12  CAY       56.3900   24.3410   26.8940 C.3   1293  RRC1293     0.0216
     13  CBA       58.8760   23.5100   26.6870 C.3   1293  RRC1293     0.0216
     14  CAX       58.0350   25.8320   24.5670 C.3   1293  RRC1293     0.2220
     15  CAN       58.7260   27.7150   25.3830 C.2   1293  RRC1293     0.1690
     16  NAO       58.4500   27.0880   24.1650 N.2   1293  RRC1293    -0.2402
     17  NAL       59.3420   29.3060   27.0100 N.2   1293  RRC1293    -0.3084
     18  CAM       59.1360   28.9930   25.7240 C.2   1293  RRC1293     0.2344
     19  NAJ       59.2820   29.8860   24.7360 N.pl3 1293  RRC1293    -0.2027
     20  CAD       59.3710   31.3210   24.9960 C.3   1293  RRC1293     0.1413
     21  CAE       60.7840   31.8420   25.1170 C.ar  1293  RRC1293    -0.0006
     22  CAG       61.1160   32.7270   26.1490 C.ar  1293  RRC1293    -0.0026
     23  CAH       62.4230   33.2180   26.2560 C.ar  1293  RRC1293    -0.0003
     24  CAF       63.3890   32.8540   25.3140 C.ar  1293  RRC1293    -0.0000
     25  CAC       63.0520   31.9900   24.2700 C.ar  1293  RRC1293    -0.0003
     26  CAB       61.7520   31.4840   24.1730 C.ar  1293  RRC1293    -0.0026
@<TRIPOS>BOND
     1    16    14    1
     2    16    15    2
     3    26    25   ar
     4    26    21   ar
     5    25    24   ar
     6    14    10    1
     7    19    20    1
     8    19    18    1
     9    20    21    1
    10    21    22   ar
    11    24    23   ar
    12    15    18    1
    13    15     9    1
    14    18    17    2
    15    10     9    1
    16    10    11    1
    17    22    23   ar
    18     9     8    2
    19    13    11    1
    20    12    11    1
    21    17     7    2
    22     8     7    2
    23     7     6    1
    24     6     3    1
    25     1     2    1
    26     3     2    1
    27     3     4    1
    28     4     5    1
