@<TRIPOS>MOLECULE
1unq_4IP_A_1.pdb
 28 28 0 0 0
SMALL
GASTEIGER

@<TRIPOS>ATOM
      1  C1        14.7800   25.2320   17.6690 C.3   1117  4IP1117     0.1917
      2  O1        14.9640   25.3280   19.0990 O.3   1117  4IP1117    -0.2673
      3  C2        14.8250   23.7530   17.2510 C.3   1117  4IP1117     0.2120
      4  O2        16.0550   23.2120   17.7410 O.3   1117  4IP1117    -0.2177
      5  C3        14.7490   23.6280   15.7390 C.3   1117  4IP1117     0.1890
      6  O3        14.7900   22.2520   15.3880 O.3   1117  4IP1117    -0.2674
      7  C4        15.8750   24.3990   15.0720 C.3   1117  4IP1117     0.1865
      8  O4        15.7390   24.2660   13.6470 O.3   1117  4IP1117    -0.2675
      9  C5        15.8000   25.8400   15.5070 C.3   1117  4IP1117     0.1890
     10  O5        16.8860   26.5860   14.9220 O.3   1117  4IP1117    -0.2674
     11  C6        15.9380   25.9840   17.0110 C.3   1117  4IP1117     0.2120
     12  O6        15.8710   27.3680   17.3700 O.3   1117  4IP1117    -0.2177
     13  P1        13.7380   25.1680   20.1450 P.3   1117  4IP1117     0.5327
     14  O1P       13.3910   26.6010   20.6130 O.3   1117  4IP1117    -0.1145
     15  O2P       12.5880   24.5320   19.4580 O.2   1117  4IP1117    -0.2224
     16  O3P       14.2970   24.3680   21.2610 O.3   1117  4IP1117    -0.1145
     17  P3        13.4700   21.4060   14.9960 P.3   1117  4IP1117     0.5327
     18  O4P       12.8650   22.1110   13.7070 O.2   1117  4IP1117    -0.2224
     19  O5P       12.4430   21.4860   16.0200 O.3   1117  4IP1117    -0.1145
     20  O6P       13.9830   20.0940   14.4970 O.3   1117  4IP1117    -0.1145
     21  P4        16.9470   23.7430   12.7150 P.3   1117  4IP1117     0.5327
     22  O7P       16.2280   23.3490   11.4280 O.2   1117  4IP1117    -0.2224
     23  O8P       17.9160   24.9110   12.5240 O.3   1117  4IP1117    -0.1145
     24  O9P       17.6650   22.6220   13.4220 O.3   1117  4IP1117    -0.1145
     25  P5        16.6350   27.7740   13.8640 P.3   1117  4IP1117     0.5327
     26  OPF       17.7690   28.7600   14.1660 O.3   1117  4IP1117    -0.1145
     27  OPG       15.2620   28.3000   14.0300 O.3   1117  4IP1117    -0.1145
     28  OPH       16.8310   27.1620   12.4850 O.2   1117  4IP1117    -0.2224
@<TRIPOS>BOND
     1    22    21    2
     2    28    25    2
     3    23    21    1
     4    21    24    1
     5    21     8    1
     6     8     7    1
     7    18    17    2
     8    25    27    1
     9    25    26    1
    10    25    10    1
    11    20    17    1
    12    10     9    1
    13    17     6    1
    14    17    19    1
    15     7     9    1
    16     7     5    1
    17     6     5    1
    18     9    11    1
    19     5     3    1
    20    11    12    1
    21    11     1    1
    22     3     1    1
    23     3     4    1
    24     1     2    1
    25     2    13    1
    26    15    13    2
    27    13    14    1
    28    13    16    1
