@<TRIPOS>MOLECULE
1uob_AKG_A_1.pdb
 10 9 0 0 0
SMALL
GASTEIGER

@<TRIPOS>ATOM
      1  C1         5.8270   14.7980   55.0270 C.2   1312  AKG1312     0.4219
      2  O1         6.3540   14.1160   54.1890 O.co2 1312  AKG1312    -0.2373
      3  O2         4.5680   15.2090   54.9350 O.co2 1312  AKG1312    -0.2373
      4  C2         6.7430   15.1050   56.1880 C.2   1312  AKG1312     0.2526
      5  O5         7.9090   14.5670   56.2120 O.2   1312  AKG1312    -0.2843
      6  C3         6.1770   16.0750   57.2090 C.3   1312  AKG1312     0.0881
      7  C4         7.2930   16.6020   58.0570 C.3   1312  AKG1312     0.1224
      8  C5         6.8050   17.6690   59.0710 C.2   1312  AKG1312     0.3653
      9  O3         7.6640   18.4290   59.5080 O.co2 1312  AKG1312    -0.2456
     10  O4         5.5300   17.7320   59.4060 O.co2 1312  AKG1312    -0.2456
@<TRIPOS>BOND
     1     2     1   ar
     2     3     1   ar
     3     1     4    1
     4     4     5    2
     5     4     6    1
     6     6     7    1
     7     7     8    1
     8     8    10   ar
     9     8     9   ar
