@<TRIPOS>MOLECULE
1uob_PNN_A_1.pdb
 23 25 0 0 0
SMALL
GASTEIGER

@<TRIPOS>ATOM
      1  O8         2.9580   16.1710   56.4480 O.2   1311  PNN1311    -0.2729
      2  C7         3.7620   15.3020   56.1240 C.2   1311  PNN1311     0.2491
      3  N4         5.0060   15.0770   56.4360 N.am  1311  PNN1311    -0.2594
      4  C3         6.0610   16.0550   56.3260 C.3   1311  PNN1311     0.1888
      5  C11        6.3260   16.7670   57.6540 C.2   1311  PNN1311     0.3833
      6  O13        5.4060   17.0400   58.4310 O.co2 1311  PNN1311    -0.2438
      7  O12        7.5730   17.1140   57.9890 O.co2 1311  PNN1311    -0.2438
      8  C2         7.2270   15.2480   55.7530 C.3   1311  PNN1311     0.0681
      9  C10        7.8950   14.4840   56.8790 C.3   1311  PNN1311     0.0131
     10  C9         8.1870   16.1200   54.9910 C.3   1311  PNN1311     0.0131
     11  S1         6.5450   14.1690   54.5280 S.3   1311  PNN1311    -0.1184
     12  C5         5.1950   13.8760   55.6230 C.3   1311  PNN1311     0.1529
     13  C6         3.7250   14.0860   55.2260 C.3   1311  PNN1311     0.1995
     14  N14        3.4490   14.2660   53.8350 N.am  1311  PNN1311    -0.1949
     15  C15        2.2220   14.7100   53.6020 C.2   1311  PNN1311     0.2463
     16  O16        1.7080   15.5970   54.2790 O.2   1311  PNN1311    -0.2730
     17  C17        1.4520   14.1190   52.4780 C.3   1311  PNN1311     0.1131
     18  C18        0.5540   15.2340   52.0480 C.ar  1311  PNN1311    -0.0130
     19  C19        0.9190   16.5890   52.1800 C.ar  1311  PNN1311    -0.0038
     20  C20        0.0540   17.5910   51.7690 C.ar  1311  PNN1311    -0.0003
     21  C21       -1.1750   17.2350   51.2280 C.ar  1311  PNN1311    -0.0000
     22  C22       -1.5270   15.8870   51.1030 C.ar  1311  PNN1311    -0.0003
     23  C23       -0.6670   14.8850   51.5110 C.ar  1311  PNN1311    -0.0038
@<TRIPOS>BOND
     1    22    21   ar
     2    22    23   ar
     3    21    20   ar
     4    23    18   ar
     5    20    19   ar
     6    18    19   ar
     7    18    17    1
     8    17    15    1
     9    15    14   am
    10    15    16    2
    11    14    13    1
    12    11    12    1
    13    11     8    1
    14    10     8    1
    15    13    12    1
    16    13     2    1
    17    12     3    1
    18     8     4    1
    19     8     9    1
    20     2     3   am
    21     2     1    2
    22     4     3    1
    23     4     5    1
    24     5     7   ar
    25     5     6   ar
