@<TRIPOS>MOLECULE
1uod_G3H_A_1.pdb
 10 9 0 0 0
SMALL
GASTEIGER

@<TRIPOS>ATOM
      1  O1        63.3140   26.8960   59.2680 O.3   1369  G3H1369    -0.2175
      2  C1        63.5620   27.8520   60.3120 C.3   1369  G3H1369     0.2174
      3  C2        63.8350   29.2020   59.6990 C.3   1369  G3H1369     0.2147
      4  O2        65.0250   29.0700   58.9500 O.3   1369  G3H1369    -0.2176
      5  C3        62.7380   29.5320   58.6500 C.3   1369  G3H1369     0.1892
      6  O1P       61.4540   29.7040   59.2660 O.3   1369  G3H1369    -0.2674
      7  O2P       58.9590   29.8570   58.8680 O.3   1369  G3H1369    -0.1145
      8  O3P       60.2880   31.8960   59.5290 O.3   1369  G3H1369    -0.1145
      9  O4P       60.5870   30.8220   57.1950 O.2   1369  G3H1369    -0.2224
     10  P         60.2420   30.6350   58.6600 P.3   1369  G3H1369     0.5327
@<TRIPOS>BOND
     1     9    10    2
     2     5     6    1
     3     5     3    1
     4    10     7    1
     5    10     6    1
     6    10     8    1
     7     4     3    1
     8     1     2    1
     9     3     2    1
