@<TRIPOS>MOLECULE
1uof_PNN_A_1.pdb
 23 25 0 0 0
SMALL
GASTEIGER

@<TRIPOS>ATOM
      1  O8         5.8570   18.2970   57.4300 O.2   1312  PNN1312    -0.2729
      2  C7         6.3390   17.2790   57.9390 C.2   1312  PNN1312     0.2491
      3  N4         6.9240   16.2160   57.4070 N.am  1312  PNN1312    -0.2594
      4  C3         6.5320   15.5540   56.0950 C.3   1312  PNN1312     0.1888
      5  C11        7.7020   14.8230   55.4320 C.2   1312  PNN1312     0.3833
      6  O13        8.1730   14.0230   56.2580 O.co2 1312  PNN1312    -0.2438
      7  O12        8.2330   14.9930   54.1150 O.co2 1312  PNN1312    -0.2438
      8  C2         5.4370   14.6170   56.5510 C.3   1312  PNN1312     0.0681
      9  C10        5.5060   13.3280   55.6940 C.3   1312  PNN1312     0.0131
     10  C9         4.0990   15.2930   56.3860 C.3   1312  PNN1312     0.0131
     11  S1         5.5800   14.2120   58.3110 S.3   1312  PNN1312    -0.1184
     12  C5         6.8340   15.4600   58.6500 C.3   1312  PNN1312     0.1529
     13  C6         6.3900   16.7900   59.3970 C.3   1312  PNN1312     0.1995
     14  N14        5.1150   16.6590   60.0040 N.am  1312  PNN1312    -0.1949
     15  C15        5.0100   16.9770   61.2850 C.2   1312  PNN1312     0.2463
     16  O16        6.0350   17.0720   61.9470 O.2   1312  PNN1312    -0.2730
     17  C17        3.6190   17.1610   61.8050 C.3   1312  PNN1312     0.1131
     18  C18        3.1350   15.7920   62.2190 C.ar  1312  PNN1312    -0.0130
     19  C19        2.7120   15.6060   63.5460 C.ar  1312  PNN1312    -0.0038
     20  C20        2.2540   14.3630   63.9730 C.ar  1312  PNN1312    -0.0003
     21  C21        2.2190   13.3030   63.0850 C.ar  1312  PNN1312    -0.0000
     22  C22        2.6400   13.4710   61.7630 C.ar  1312  PNN1312    -0.0003
     23  C23        3.0980   14.7170   61.3270 C.ar  1312  PNN1312    -0.0038
@<TRIPOS>BOND
     1     7     5   ar
     2     5     4    1
     3     5     6   ar
     4     9     8    1
     5     4     8    1
     6     4     3    1
     7    10     8    1
     8     8    11    1
     9     3     2   am
    10     3    12    1
    11     1     2    2
    12     2    13    1
    13    11    12    1
    14    12    13    1
    15    13    14    1
    16    14    15   am
    17    15    17    1
    18    15    16    2
    19    23    22   ar
    20    23    18   ar
    21    22    21   ar
    22    17    18    1
    23    18    19   ar
    24    21    20   ar
    25    19    20   ar
