@<TRIPOS>MOLECULE
1uog_P1C_A_1.pdb
 24 25 0 0 0
SMALL
GASTEIGER

@<TRIPOS>ATOM
      1  C1         0.6870    9.3320   50.3460 C.2   1311  P1C1311     0.3819
      2  C2         0.3770    9.9960   51.6920 C.3   1311  P1C1311     0.1943
      3  C3         0.9420   11.4410   51.8020 C.3   1311  P1C1311     0.0311
      4  C4         0.9020   11.9960   53.2560 C.3   1311  P1C1311     0.0117
      5  C7         2.1140   12.8300   53.7410 C.3   1311  P1C1311     0.0869
      6  C10        1.9210   14.3250   54.0770 C.2   1311  P1C1311     0.2418
      7  N11        3.0920   14.9980   54.3830 N.am  1311  P1C1311    -0.1951
      8  C12        4.0300   14.1940   55.2720 C.3   1311  P1C1311     0.2002
      9  C13        4.5910   14.7250   56.5510 C.2   1311  P1C1311     0.2526
     10  N14       -1.0560   10.1020   51.9410 N.3   1311  P1C1311    -0.1208
     11  O15        0.7790   14.7900   54.0620 O.2   1311  P1C1311    -0.2733
     12  C16        5.5280   14.0490   54.9520 C.3   1311  P1C1311     0.1570
     13  O18        4.0120   15.1740   57.5390 O.2   1311  P1C1311    -0.2726
     14  O19        0.0290    9.4970   49.3690 O.co2 1311  P1C1311    -0.2441
     15  O20        1.8120    8.7330   50.0970 O.co2 1311  P1C1311    -0.2441
     16  N29        5.9890   14.5070   56.3040 N.am  1311  P1C1311    -0.2421
     17  C30        6.7190   15.7150   56.4010 C.2   1311  P1C1311     0.1279
     18  C31        6.6890   16.2440   57.6180 C.2   1311  P1C1311     0.4006
     19  C32        7.3830   16.3030   55.3880 C.2   1311  P1C1311    -0.0129
     20  C33        8.1210   17.5910   55.4870 C.3   1311  P1C1311     0.0288
     21  C37        7.5540   15.8100   53.9910 C.3   1311  P1C1311     0.0826
     22  O42        6.0220   15.6240   58.5890 O.co2 1311  P1C1311    -0.2392
     23  O43        7.2400   17.2970   57.8690 O.co2 1311  P1C1311    -0.2392
     24  S          6.1490   14.8830   53.4570 S.3   1311  P1C1311    -0.1141
@<TRIPOS>BOND
     1    14     1   ar
     2    15     1   ar
     3     1     2    1
     4     2     3    1
     5     2    10    1
     6     3     4    1
     7     4     5    1
     8    24    21    1
     9    24    12    1
    10     5     6    1
    11    21    19    1
    12    11     6    2
    13     6     7   am
    14     7     8    1
    15    12     8    1
    16    12    16    1
    17     8     9    1
    18    19    20    1
    19    19    17    2
    20    16    17    1
    21    16     9   am
    22    17    18    1
    23     9    13    2
    24    18    23   ar
    25    18    22   ar
