@<TRIPOS>MOLECULE
1uom_PTI_A_1.pdb
 32 36 0 0 0
SMALL
GASTEIGER

@<TRIPOS>ATOM
      1  C3        -3.1030   53.4940   19.4140 C.3   1547  PTI1547     0.0722
      2  C6        -1.9600   53.8010   18.4030 C.3   1547  PTI1547     0.0174
      3  C9        -2.5510   54.4550   17.1200 C.3   1547  PTI1547     0.0029
      4  N1        -3.9320   54.7120   19.7410 N.3   1547  PTI1547    -0.2696
      5  C12       -3.3140   55.7660   17.5060 C.3   1547  PTI1547     0.0174
      6  C15       -4.4500   55.4410   18.5200 C.3   1547  PTI1547     0.0722
      7  C18       -5.0190   54.3990   20.7130 C.3   1547  PTI1547     0.1200
      8  C21       -4.6090   54.3590   22.2140 C.3   1547  PTI1547     0.2226
      9  O24       -3.7250   53.2370   22.4260 O.3   1547  PTI1547    -0.4740
     10  C25       -3.1760   52.8610   23.6760 C.ar  1547  PTI1547     0.1386
     11  C26       -3.4350   53.5470   24.9120 C.ar  1547  PTI1547     0.0366
     12  C28       -2.8460   53.0890   26.1300 C.ar  1547  PTI1547     0.0008
     13  C30       -1.9890   51.9450   26.1420 C.ar  1547  PTI1547     0.0000
     14  C31       -1.7340   51.2670   24.9020 C.ar  1547  PTI1547     0.0008
     15  C33       -2.3210   51.7240   23.6980 C.ar  1547  PTI1547     0.0366
     16  C35       -1.3290   51.4190   27.4700 C.3   1547  PTI1547     0.1178
     17  N37       -1.8570   50.0460   27.8620 N.pl3 1547  PTI1547    -0.3015
     18  C38       -0.9350   49.0100   28.4040 C.3   1547  PTI1547     0.0960
     19  C41        0.4420   48.9400   27.6670 C.3   1547  PTI1547     0.0476
     20  C44        1.0320   50.3300   27.3360 C.ar  1547  PTI1547    -0.0194
     21  C45        0.2030   51.4910   27.2360 C.ar  1547  PTI1547    -0.0039
     22  C46        0.8050   52.7540   26.9090 C.ar  1547  PTI1547     0.0006
     23  C48        2.2040   52.8580   26.6870 C.ar  1547  PTI1547     0.0417
     24  C50        3.0240   51.7120   26.7890 C.ar  1547  PTI1547     0.1954
     25  C51        2.4340   50.4520   27.1110 C.ar  1547  PTI1547     0.0376
     26  O53        4.4020   51.7840   26.5760 O.3   1547  PTI1547    -0.2866
     27  C55       -3.2130   49.7890   27.9000 C.ar  1547  PTI1547     0.0483
     28  C56       -3.9470   50.1380   29.0730 C.ar  1547  PTI1547     0.0145
     29  C58       -5.3410   49.8980   29.1540 C.ar  1547  PTI1547     0.0013
     30  C60       -6.0260   49.3020   28.0590 C.ar  1547  PTI1547     0.0001
     31  C62       -5.3110   48.9420   26.8840 C.ar  1547  PTI1547     0.0013
     32  C64       -3.9130   49.1800   26.8020 C.ar  1547  PTI1547     0.0145
@<TRIPOS>BOND
     1     3     5    1
     2     3     2    1
     3     5     6    1
     4     2     1    1
     5     6     4    1
     6     1     4    1
     7     4     7    1
     8     7     8    1
     9     8     9    1
    10     9    10    1
    11    10    15   ar
    12    10    11   ar
    13    15    14   ar
    14    14    13   ar
    15    11    12   ar
    16    12    13   ar
    17    13    16    1
    18    26    24    1
    19    23    24   ar
    20    23    22   ar
    21    24    25   ar
    22    32    31   ar
    23    32    27   ar
    24    31    30   ar
    25    22    21   ar
    26    25    20   ar
    27    21    20   ar
    28    21    16    1
    29    20    19    1
    30    16    17    1
    31    19    18    1
    32    17    27    1
    33    17    18    1
    34    27    28   ar
    35    30    29   ar
    36    28    29   ar
