@<TRIPOS>MOLECULE
1uon_CH1_A_1.pdb
 28 29 0 0 0
SMALL
GASTEIGER

@<TRIPOS>ATOM
      1  N1       138.5750  194.9240  273.4510 N.am  2267  CH12267    -0.1779
      2  C2       138.2240  196.2190  273.8610 C.1   2267  CH12267     0.2756
      3  N3       138.7900  196.8270  274.9190 N.2   2267  CH12267    -0.3024
      4  C4       139.7520  196.1950  275.6500 C.2   2267  CH12267     0.2346
      5  C5       140.1700  194.8970  275.3180 C.2   2267  CH12267     0.0687
      6  C6       139.5490  194.3020  274.2050 C.2   2267  CH12267     0.0836
      7  O2       137.3530  196.9060  273.2770 O.2   2267  CH12267    -0.1925
      8  N4       140.2680  196.8640  276.6840 N.pl3 2267  CH12267    -0.0921
      9  C1'      137.9120  194.2620  272.2500 C.3   2267  CH12267     0.2373
     10  C2'      138.4810  194.7350  270.9090 C.3   2267  CH12267     0.2019
     11  O2'      137.9600  196.0150  270.6020 O.3   2267  CH12267    -0.2185
     12  C3'      138.0600  193.6610  269.9580 C.3   2267  CH12267     0.0695
     13  C4'      137.8210  192.4370  270.8500 C.3   2267  CH12267     0.1498
     14  O4'      138.1090  192.8530  272.1960 O.3   2267  CH12267    -0.3347
     15  C5'      138.7400  191.3650  270.3000 C.3   2267  CH12267     0.1786
     16  O5'      139.7290  190.9790  271.2280 O.3   2267  CH12267    -0.3113
     17  PA       141.2880  190.6150  270.8020 P.3   2267  CH12267     0.2189
     18  O1A      141.3150  189.1600  270.2400 O.2   2267  CH12267    -0.5170
     19  O2A      142.1060  190.7020  272.1080 O.3   2267  CH12267    -0.4371
     20  O3A      141.7110  191.7600  269.6470 O.3   2267  CH12267    -0.2700
     21  PB       142.3580  191.2980  268.1910 P.3   2267  CH12267     0.2277
     22  O1B      142.6100  192.6310  267.3940 O.2   2267  CH12267    -0.5168
     23  O2B      141.3480  190.3910  267.4090 O.3   2267  CH12267    -0.4368
     24  O3B      143.8600  190.5850  268.4440 O.3   2267  CH12267    -0.2258
     25  PG       144.5440  189.5430  267.3580 P.3   2267  CH12267     0.5373
     26  O1G      143.7390  188.7550  266.2750 O.2   2267  CH12267    -0.2221
     27  O2G      145.9690  188.9950  267.8080 O.3   2267  CH12267    -0.1143
     28  O3G      143.8950  188.4670  268.3060 O.3   2267  CH12267    -0.1143
@<TRIPOS>BOND
     1    26    25    2
     2    25    27    1
     3    25    28    1
     4    25    24    1
     5    22    21    2
     6    23    21    1
     7    21    24    1
     8    21    20    1
     9    20    17    1
    10    12    13    1
    11    12    10    1
    12    18    17    2
    13    15    13    1
    14    15    16    1
    15    11    10    1
    16    17    16    1
    17    17    19    1
    18    13    14    1
    19    10     9    1
    20    14     9    1
    21     9     1    1
    22     7     2    2
    23     1     2   am
    24     1     6    1
    25     2     3    2
    26     6     5    2
    27     3     4    2
    28     5     4    1
    29     4     8    1
