@<TRIPOS>MOLECULE
1uoo_III_B_1.pdb
 34 35 0 0 0
SMALL
GASTEIGER

@<TRIPOS>ATOM
      1  N         43.1630   39.1510   89.5250 N.3   723  GLY723     -0.1210
      2  CA        42.0000   38.8630   88.6340 C.3   723  GLY723      0.1956
      3  C         42.2990   39.1560   87.1740 C.2   723  GLY723      0.2612
      4  O         42.3490   40.3170   86.7640 O.2   723  GLY723     -0.2717
      5  N         42.4850   38.0950   86.3930 N.am  724  PHE724     -0.1962
      6  CA        42.8800   38.2050   84.9860 C.3   724  PHE724      0.1771
      7  C         41.9190   37.4600   84.0550 C.2   724  PHE724      0.2619
      8  O         42.2480   37.1660   82.9010 O.2   724  PHE724     -0.2715
      9  CB        44.3180   37.7080   84.7880 C.3   724  PHE724      0.0574
     10  CG        44.6960   36.5570   85.6780 C.ar  724  PHE724     -0.0200
     11  CD1       45.3330   36.7820   86.8970 C.ar  724  PHE724     -0.0042
     12  CD2       44.4150   35.2500   85.2990 C.ar  724  PHE724     -0.0042
     13  CE1       45.6840   35.7210   87.7280 C.ar  724  PHE724     -0.0003
     14  CE2       44.7620   34.1800   86.1210 C.ar  724  PHE724     -0.0003
     15  CZ        45.3990   34.4150   87.3380 C.ar  724  PHE724     -0.0000
     16  N         40.7310   37.1590   84.5730 N.am  725  ARG725     -0.1964
     17  CA        39.6570   36.5570   83.7910 C.3   725  ARG725      0.1714
     18  C         39.0750   37.6050   82.8310 C.2   725  ARG725      0.2459
     19  O         39.1830   38.8030   83.0930 O.2   725  ARG725     -0.2730
     20  CB        38.5660   36.0250   84.7270 C.3   725  ARG725      0.0347
     21  CG        39.0790   35.1200   85.8500 C.3   725  ARG725      0.0492
     22  CD        38.3180   35.2590   87.1690 C.3   725  ARG725      0.2205
     23  NE        39.1930   35.6170   88.2880 N.pl3 725  ARG725     -0.0865
     24  CZ        38.7720   35.8890   89.5230 C.cat 725  ARG725      0.5346
     25  NH1       37.4780   35.8490   89.8190 N.pl3 725  ARG725      0.1354
     26  NH2       39.6470   36.2050   90.4670 N.pl3 725  ARG725      0.1354
     27  N         38.4760   37.1760   81.7190 N.am  726  PRO726     -0.2699
     28  CA        37.7630   38.1100   80.8490 C.3   726  PRO726      0.1791
     29  C         36.3390   38.3100   81.3680 C.2   726  PRO726      0.3825
     30  O         35.4310   37.5340   81.0600 O.co2 726  PRO726     -0.2438
     31  CB        37.7750   37.4040   79.4890 C.3   726  PRO726      0.0332
     32  CG        37.9050   35.9530   79.7960 C.3   726  PRO726      0.0238
     33  CD        38.4130   35.8000   81.2000 C.3   726  PRO726      0.0940
     34  OXT       36.0740   39.2490   82.1270 O.co2 726  PRO726     -0.2438
@<TRIPOS>BOND
     1    31    32    1
     2    31    28    1
     3    32    33    1
     4    28    29    1
     5    28    27    1
     6    30    29   ar
     7    33    27    1
     8    29    34   ar
     9    27    18   am
    10    18    19    2
    11    18    17    1
    12     8     7    2
    13    17    16    1
    14    17    20    1
    15     7    16   am
    16     7     6    1
    17    20    21    1
    18     9     6    1
    19     9    10    1
    20     6     5    1
    21    12    10   ar
    22    12    14   ar
    23    10    11   ar
    24    21    22    1
    25    14    15   ar
    26     5     3   am
    27     4     3    2
    28    11    13   ar
    29    22    23    1
    30     3     2    1
    31    15    13   ar
    32    23    24    2
    33     2     1    1
    34    24    25    1
    35    24    26    1
