@<TRIPOS>MOLECULE
1uop_III_B_1.pdb
 32 33 0 0 0
SMALL
GASTEIGER

@<TRIPOS>ATOM
      1  N         42.8280   38.9170   90.8400 N.3   723  GLY723     -0.1210
      2  CA        41.7460   39.2190   89.8570 C.3   723  GLY723      0.1956
      3  C         42.2720   39.4670   88.4510 C.2   723  GLY723      0.2612
      4  O         42.4470   40.6150   88.0370 O.2   723  GLY723     -0.2717
      5  N         42.5210   38.3890   87.7150 N.am  724  PHE724     -0.1962
      6  CA        43.0420   38.4860   86.3470 C.3   724  PHE724      0.1771
      7  C         42.1770   37.7090   85.3530 C.2   724  PHE724      0.2619
      8  O         42.5950   37.4170   84.2340 O.2   724  PHE724     -0.2715
      9  CB        44.4960   38.0130   86.2800 C.3   724  PHE724      0.0574
     10  CG        44.7760   36.7940   87.1050 C.ar  724  PHE724     -0.0200
     11  CD1       44.5290   35.5280   86.5990 C.ar  724  PHE724     -0.0042
     12  CD2       45.2750   36.9180   88.3970 C.ar  724  PHE724     -0.0042
     13  CE1       44.7820   34.3940   87.3680 C.ar  724  PHE724     -0.0003
     14  CE2       45.5300   35.7930   89.1760 C.ar  724  PHE724     -0.0003
     15  CZ        45.2800   34.5300   88.6630 C.ar  724  PHE724     -0.0000
     16  N         40.9660   37.3780   85.7790 N.am  725  GLU725     -0.1964
     17  CA        39.9930   36.7560   84.8950 C.3   725  GLU725      0.1718
     18  C         39.4880   37.8230   83.9090 C.2   725  GLU725      0.2459
     19  O         39.6200   39.0290   84.1830 O.2   725  GLU725     -0.2730
     20  CB        38.8540   36.1430   85.7220 C.3   725  GLU725      0.0428
     21  CG        37.7690   37.1200   86.1610 C.3   725  GLU725      0.1163
     22  CD        38.1300   37.9150   87.4090 C.2   725  GLU725      0.3649
     23  OE1       39.2030   37.6720   88.0100 O.co2 725  GLU725     -0.2457
     24  OE2       37.3220   38.7900   87.7990 O.co2 725  GLU725     -0.2457
     25  N         38.9160   37.4030   82.7770 N.am  726  PRO726     -0.2699
     26  CA        38.3210   38.3630   81.8520 C.3   726  PRO726      0.1791
     27  C         36.9360   38.6980   82.3940 C.2   726  PRO726      0.3825
     28  O         35.9770   37.9740   82.0950 O.co2 726  PRO726     -0.2438
     29  CB        38.2440   37.5810   80.5400 C.3   726  PRO726      0.0332
     30  CG        38.0910   36.1660   80.9540 C.3   726  PRO726      0.0238
     31  CD        38.7550   36.0170   82.2970 C.3   726  PRO726      0.0940
     32  OXT       36.8390   39.6730   83.1620 O.co2 726  PRO726     -0.2438
@<TRIPOS>BOND
     1    29    30    1
     2    29    26    1
     3    30    31    1
     4    26    27    1
     5    26    25    1
     6    28    27   ar
     7    31    25    1
     8    27    32   ar
     9    25    18   am
    10    18    19    2
    11    18    17    1
    12     8     7    2
    13    17    20    1
    14    17    16    1
    15     7    16   am
    16     7     6    1
    17    20    21    1
    18    21    22    1
    19     9     6    1
    20     9    10    1
    21     6     5    1
    22    11    10   ar
    23    11    13   ar
    24    10    12   ar
    25    13    15   ar
    26    22    24   ar
    27    22    23   ar
    28     5     3   am
    29     4     3    2
    30    12    14   ar
    31     3     2    1
    32    15    14   ar
    33     2     1    1
