@<TRIPOS>MOLECULE
1uoq_III_B_1.pdb
 34 35 0 0 0
SMALL
GASTEIGER

@<TRIPOS>ATOM
      1  N         42.7670   39.5850   89.7450 N.3   723  GLU723     -0.1231
      2  CA        41.9590   38.8450   88.6980 C.3   723  GLU723      0.1699
      3  C         42.2150   39.2440   87.2590 C.2   723  GLU723      0.2592
      4  O         42.2600   40.4280   86.9190 O.2   723  GLU723     -0.2718
      5  CB        40.4660   38.8780   88.8870 C.3   723  GLU723      0.0402
      6  CG        39.8500   37.6700   88.1690 C.3   723  GLU723      0.1161
      7  CD        40.4480   36.3670   88.7290 C.2   723  GLU723      0.3649
      8  OE1       40.0500   35.9870   89.8880 O.co2 723  GLU723     -0.2457
      9  OE2       41.3450   35.7610   88.0420 O.co2 723  GLU723     -0.2457
     10  N         42.3620   38.2230   86.4340 N.am  724  PHE724     -0.1962
     11  CA        42.8360   38.3960   85.0850 C.3   724  PHE724      0.1771
     12  C         41.9050   37.5270   84.1720 C.2   724  PHE724      0.2620
     13  O         42.2620   37.1720   83.0950 O.2   724  PHE724     -0.2715
     14  CB        44.3300   37.9880   85.0100 C.3   724  PHE724      0.0574
     15  CG        44.6770   36.7420   85.8560 C.ar  724  PHE724     -0.0200
     16  CD1       44.4150   35.4610   85.3660 C.ar  724  PHE724     -0.0042
     17  CD2       45.1890   36.8810   87.1620 C.ar  724  PHE724     -0.0042
     18  CE1       44.6940   34.2960   86.1490 C.ar  724  PHE724     -0.0003
     19  CE2       45.4880   35.7470   87.9960 C.ar  724  PHE724     -0.0003
     20  CZ        45.2420   34.4260   87.4900 C.ar  724  PHE724     -0.0000
     21  N         40.6990   37.2400   84.6440 N.am  725  SER725     -0.1936
     22  CA        39.6800   36.6180   83.8160 C.3   725  SER725      0.2040
     23  C         39.1570   37.6620   82.7950 C.2   725  SER725      0.2485
     24  O         39.3180   38.8870   83.0010 O.2   725  SER725     -0.2729
     25  CB        38.5650   36.0730   84.7320 C.3   725  SER725      0.2129
     26  OG        37.6960   37.1190   85.2340 O.3   725  SER725     -0.2179
     27  N         38.5220   37.2170   81.7060 N.am  726  PRO726     -0.2699
     28  CA        37.9250   38.1700   80.7760 C.3   726  PRO726      0.1791
     29  C         36.5620   38.5780   81.3340 C.2   726  PRO726      0.3825
     30  O         35.5970   37.8020   81.1640 O.co2 726  PRO726     -0.2438
     31  CB        37.8040   37.3610   79.4860 C.3   726  PRO726      0.0332
     32  CG        37.6170   36.0010   79.9260 C.3   726  PRO726      0.0238
     33  CD        38.3860   35.8210   81.2330 C.3   726  PRO726      0.0940
     34  OXT       36.4330   39.6980   81.9480 O.co2 726  PRO726     -0.2438
@<TRIPOS>BOND
     1    31    32    1
     2    31    28    1
     3    32    33    1
     4    28    29    1
     5    28    27    1
     6    30    29   ar
     7    33    27    1
     8    29    34   ar
     9    27    23   am
    10    23    24    2
    11    23    22    1
    12    13    12    2
    13    22    21    1
    14    22    25    1
    15    12    21   am
    16    12    11    1
    17    25    26    1
    18    14    11    1
    19    14    15    1
    20    11    10    1
    21    16    15   ar
    22    16    18   ar
    23    15    17   ar
    24    18    20   ar
    25    10     3   am
    26     4     3    2
    27    17    19   ar
    28     3     2    1
    29    20    19   ar
    30     9     7   ar
    31     6     7    1
    32     6     5    1
    33     2     5    1
    34     2     1    1
    35     7     8   ar
