@<TRIPOS>MOLECULE
1uou_CMU_A_1.pdb
 16 17 0 0 0
SMALL
GASTEIGER

@<TRIPOS>ATOM
      1 CL1        -4.8020    4.5290   30.6010 Cl    1481  CMU1481    -0.0882
      2  C2        -3.5890    3.2930   30.6160 C.3   1481  CMU1481     0.2501
      3  C3        -3.1120    2.7640   29.4620 C.2   1481  CMU1481     0.1805
      4  C4        -3.6290    3.1660   28.0780 C.3   1481  CMU1481     0.2606
      5  N5        -4.2650    1.9450   27.4960 N.pl3 1481  CMU1481    -0.1845
      6  C6        -5.2940    1.1310   28.1790 C.3   1481  CMU1481     0.2031
      7  C7        -5.8240    0.1420   27.1130 C.3   1481  CMU1481     0.0636
      8  C8        -4.7920    0.1450   25.9440 C.3   1481  CMU1481     0.1263
      9  C9        -3.9760    1.3960   26.2670 C.2   1481  CMU1481     0.3530
     10  N10       -3.1160    1.9270   25.4500 N.2   1481  CMU1481     0.1879
     11  N11       -2.1490    1.7930   29.5710 N.2   1481  CMU1481    -0.3102
     12  C12       -1.6730    1.3490   30.7550 C.1   1481  CMU1481     0.3648
     13  O13       -0.8200    0.4700   30.7610 O.2   1481  CMU1481    -0.1745
     14  N14       -2.1450    1.8640   31.9070 N.2   1481  CMU1481    -0.2354
     15  C15       -3.0730    2.8300   31.8600 C.1   1481  CMU1481     0.2146
     16  O16       -3.4740    3.3130   32.8930 O.2   1481  CMU1481    -0.2117
@<TRIPOS>BOND
     1    10     9    2
     2     8     9    1
     3     8     7    1
     4     9     5    1
     5     7     6    1
     6     5     4    1
     7     5     6    1
     8     4     3    1
     9     3    11    2
    10     3     2    1
    11    11    12    2
    12     1     2    1
    13     2    15    1
    14    12    13    2
    15    12    14    2
    16    15    14    2
    17    15    16    2
