@<TRIPOS>MOLECULE
1uoz_GLC_A_1.pdb
 11 11 0 0 0
SMALL
GASTEIGER

@<TRIPOS>ATOM
      1  C1        26.5060   10.1850   17.9630 C.3   501  GLC501      0.1777
      2  C2        25.8480   11.0520   19.0400 C.3   501  GLC501      0.2141
      3  C3        24.5010   11.4850   18.5220 C.3   501  GLC501      0.2173
      4  C4        24.6730   12.2630   17.2380 C.3   501  GLC501      0.2142
      5  C5        25.4490   11.4270   16.2040 C.3   501  GLC501      0.1810
      6  C6        25.8150   12.2130   14.9540 C.3   501  GLC501      0.2141
      7  O2        25.6980   10.3100   20.2510 O.3   501  GLC501     -0.2176
      8  O3        23.7930   12.2590   19.4820 O.3   501  GLC501     -0.2175
      9  O4        23.4350   12.6840   16.7160 O.3   501  GLC501     -0.2176
     10  O5        26.6650   10.9680   16.7730 O.3   501  GLC501     -0.3481
     11  O6        26.4490   11.3960   13.9890 O.3   501  GLC501     -0.2176
@<TRIPOS>BOND
     1    11     6    1
     2     6     5    1
     3     5    10    1
     4     5     4    1
     5     9     4    1
     6    10     1    1
     7     4     3    1
     8     1     2    1
     9     3     2    1
    10     3     8    1
    11     2     7    1
