@<TRIPOS>MOLECULE
1uoz_SSG_A_1.pdb
 11 11 0 0 0
SMALL
GASTEIGER

@<TRIPOS>ATOM
      1  C1        30.5270    6.5740   16.4890 C.3   502  SSG502      0.1776
      2  C2        29.9530    7.5820   15.4920 C.3   502  SSG502      0.2124
      3  O2        30.9480    8.0990   14.5980 O.3   502  SSG502     -0.2177
      4  C3        29.3510    8.7280   16.2520 C.3   502  SSG502      0.1977
      5  O3        28.6860    9.5350   15.2720 O.3   502  SSG502     -0.2193
      6  C4        28.4070    8.2560   17.3520 C.3   502  SSG502      0.1206
      7  C5        29.0000    7.1270   18.1690 C.3   502  SSG502      0.1614
      8  O5        29.4700    6.1070   17.3100 O.3   502  SSG502     -0.3498
      9  C6        27.9700    6.4540   19.0640 C.3   502  SSG502      0.2124
     10  O6        28.5760    5.4720   19.9100 O.3   502  SSG502     -0.2177
     11  S4        28.1080    9.6370   18.4920 S.3   502  SSG502     -0.0777
@<TRIPOS>BOND
     1     3     2    1
     2     5     4    1
     3     2     4    1
     4     2     1    1
     5     4     6    1
     6     1     8    1
     7     8     7    1
     8     6     7    1
     9     6    11    1
    10     7     9    1
    11     9    10    1
