@<TRIPOS>MOLECULE
1up0_BGC_A_1.pdb
 12 12 0 0 0
SMALL
GASTEIGER

@<TRIPOS>ATOM
      1  C2        30.2560    7.4550   15.3410 C.3   1382  BGC1382     0.2434
      2  C3        29.4940    8.5610   16.0530 C.3   1382  BGC1382     0.2199
      3  C4        28.4950    7.9560   17.0530 C.3   1382  BGC1382     0.2144
      4  C5        29.1630    6.8990   17.9220 C.3   1382  BGC1382     0.1836
      5  C6        28.1180    6.1710   18.7590 C.3   1382  BGC1382     0.2142
      6  C1        30.8820    6.5440   16.3880 C.3   1382  BGC1382     0.3024
      7  O1        31.5900    5.5270   15.7340 O.3   1382  BGC1382    -0.1869
      8  O2        31.2370    7.9620   14.4700 O.3   1382  BGC1382    -0.2148
      9  O3        28.8380    9.4110   15.1360 O.3   1382  BGC1382    -0.2174
     10  O4        28.0220    8.9740   17.9260 O.3   1382  BGC1382    -0.2176
     11  O5        29.8160    5.9540   17.1040 O.3   1382  BGC1382    -0.3236
     12  O6        28.7200    5.0320   19.3520 O.3   1382  BGC1382    -0.2176
@<TRIPOS>BOND
     1     8     1    1
     2     9     2    1
     3     1     2    1
     4     1     6    1
     5     7     6    1
     6     2     3    1
     7     6    11    1
     8     3     4    1
     9     3    10    1
    10    11     4    1
    11     4     5    1
    12     5    12    1
