@<TRIPOS>MOLECULE
1up2_IFM_A_1.pdb
 10 10 0 0 0
SMALL
GASTEIGER

@<TRIPOS>ATOM
      1  O4        28.2060    8.9970   17.9360 O.3   381  IFM381     -0.2202
      2  C4        28.6820    7.9670   17.0590 C.3   381  IFM381      0.1874
      3  C3        29.6590    8.5660   16.0580 C.3   381  IFM381      0.1995
      4  O3        28.9520    9.4240   15.1540 O.3   381  IFM381     -0.2189
      5  C2        30.3910    7.4850   15.2530 C.3   381  IFM381      0.1241
      6  N         30.9370    6.4270   16.1000 N.3   381  IFM381     -0.2151
      7  C1        29.9950    5.8230   17.0440 C.3   381  IFM381      0.0940
      8  C5        29.3550    6.8990   17.9160 C.3   381  IFM381      0.0834
      9  C6        28.2740    6.3340   18.8560 C.3   381  IFM381      0.1861
     10  O6        28.7980    5.2320   19.5810 O.3   381  IFM381     -0.2203
@<TRIPOS>BOND
     1     4     3    1
     2     5     3    1
     3     5     6    1
     4     3     2    1
     5     6     7    1
     6     7     8    1
     7     2     8    1
     8     2     1    1
     9     8     9    1
    10     9    10    1
