@<TRIPOS>MOLECULE
1up2_BGC_A_1.pdb
 11 11 0 0 0
SMALL
GASTEIGER

@<TRIPOS>ATOM
      1  C2        26.3540   10.2050   18.8290 C.3   382  BGC382      0.2141
      2  C3        25.0050   10.8250   18.4780 C.3   382  BGC382      0.2173
      3  C4        25.1520   11.7750   17.2760 C.3   382  BGC382      0.2142
      4  C5        25.8510   11.0800   16.1230 C.3   382  BGC382      0.1810
      5  C6        26.1180   12.0470   14.9560 C.3   382  BGC382      0.2141
      6  C1        26.9470    9.5630   17.5870 C.3   382  BGC382      0.1777
      7  O2        26.2890    9.3150   19.9390 O.3   382  BGC382     -0.2176
      8  O3        24.4990   11.5390   19.5990 O.3   382  BGC382     -0.2175
      9  O4        23.8830   12.2480   16.8630 O.3   382  BGC382     -0.2176
     10  O5        27.0980   10.5470   16.5630 O.3   382  BGC382     -0.3481
     11  O6        26.6580   11.2930   13.8920 O.3   382  BGC382     -0.2176
@<TRIPOS>BOND
     1    11     5    1
     2     5     4    1
     3     4    10    1
     4     4     3    1
     5    10     6    1
     6     9     3    1
     7     3     2    1
     8     6     1    1
     9     2     1    1
    10     2     8    1
    11     1     7    1
