@<TRIPOS>MOLECULE
1up3_BGC_A_1.pdb
 11 11 0 0 0
SMALL
GASTEIGER

@<TRIPOS>ATOM
      1  C2        29.9770    7.7330   15.5620 C.3   383  BGC383      0.2141
      2  C3        29.2540    8.8830   16.2210 C.3   383  BGC383      0.2173
      3  C4        28.2590    8.4200   17.2920 C.3   383  BGC383      0.2142
      4  C5        28.9000    7.3850   18.2510 C.3   383  BGC383      0.1810
      5  C6        27.8430    6.7620   19.1680 C.3   383  BGC383      0.2141
      6  C1        30.5330    6.8250   16.6480 C.3   383  BGC383      0.1777
      7  O2        31.0050    8.2550   14.7280 O.3   383  BGC383     -0.2176
      8  O3        28.6260    9.6830   15.2140 O.3   383  BGC383     -0.2175
      9  O4        27.8680    9.4950   18.0680 O.3   383  BGC383     -0.2176
     10  O5        29.4520    6.3840   17.4560 O.3   383  BGC383     -0.3481
     11  O6        28.5300    5.9270   20.0950 O.3   383  BGC383     -0.2176
@<TRIPOS>BOND
     1     7     1    1
     2     8     2    1
     3     1     2    1
     4     1     6    1
     5     2     3    1
     6     6    10    1
     7     3     9    1
     8     3     4    1
     9    10     4    1
    10     4     5    1
    11     5    11    1
