@<TRIPOS>MOLECULE
1up6_NAD_A_1.pdb
 44 48 0 0 0
SMALL
GASTEIGER

@<TRIPOS>ATOM
      1  PA       153.5580   69.2860   94.4690 P.3   1416  NAD1416     0.2189
      2  O1A      152.2670   70.0140   94.3720 O.3   1416  NAD1416    -0.4371
      3  O2A      154.6830   70.3190   94.2950 O.2   1416  NAD1416    -0.5170
      4  O5B      153.5770   68.0960   93.3380 O.3   1416  NAD1416    -0.3112
      5  C5B      154.5620   67.1200   93.0690 C.3   1416  NAD1416     0.1813
      6  C4B      155.0460   67.1310   91.6070 C.3   1416  NAD1416     0.1821
      7  O4B      154.1200   66.4890   90.7460 O.3   1416  NAD1416    -0.3135
      8  C3B      155.2940   68.5120   90.9860 C.3   1416  NAD1416     0.2184
      9  O3B      156.6760   68.7550   90.8170 O.3   1416  NAD1416    -0.2174
     10  C2B      154.5710   68.4950   89.6360 C.3   1416  NAD1416     0.2570
     11  O2B      155.3540   68.9660   88.5610 O.3   1416  NAD1416    -0.2130
     12  C1B      154.2220   67.0300   89.4410 C.3   1416  NAD1416     0.3186
     13  N9A      152.9600   66.7890   88.7320 N.pl3 1416  NAD1416    -0.1439
     14  C8A      151.7580   67.4390   88.8720 C.3   1416  NAD1416     0.3377
     15  N7A      150.8600   66.8590   88.0300 N.2   1416  NAD1416    -0.2095
     16  C5A      151.4700   65.8490   87.3640 C.2   1416  NAD1416     0.2526
     17  C6A      151.0240   64.9460   86.4070 C.2   1416  NAD1416     0.4393
     18  N6A      149.7630   65.0020   85.9840 N.pl3 1416  NAD1416     0.2180
     19  N1A      151.8960   64.0020   85.9010 N.2   1416  NAD1416     0.0021
     20  C2A      153.2040   63.9740   86.3460 C.3   1416  NAD1416     0.5254
     21  N3A      153.6610   64.8750   87.2860 N.2   1416  NAD1416    -0.0055
     22  C4A      152.8010   65.7980   87.7900 C.2   1416  NAD1416     0.3518
     23  O3       153.5810   68.7870   96.0070 O.3   1416  NAD1416    -0.2703
     24  PN       153.5970   67.3250   96.6790 P.3   1416  NAD1416     0.2189
     25  O1N      153.1580   67.5430   98.0850 O.3   1416  NAD1416    -0.4371
     26  O2N      154.9280   66.7170   96.4630 O.2   1416  NAD1416    -0.5170
     27  O5D      152.4600   66.4640   95.9300 O.3   1416  NAD1416    -0.3112
     28  C5D      152.5840   65.0570   95.8980 C.3   1416  NAD1416     0.1813
     29  C4D      151.2190   64.3970   95.7480 C.3   1416  NAD1416     0.1799
     30  O4D      151.1890   63.3140   96.6560 O.3   1416  NAD1416    -0.3327
     31  C3D      150.0680   65.3210   96.1420 C.3   1416  NAD1416     0.2158
     32  O3D      148.8600   64.8540   95.5880 O.3   1416  NAD1416    -0.2175
     33  C2D      150.0490   65.1470   97.6400 C.3   1416  NAD1416     0.2309
     34  O2D      148.8450   65.5550   98.2480 O.3   1416  NAD1416    -0.2158
     35  C1D      150.2750   63.6440   97.6970 C.3   1416  NAD1416     0.2263
     36  N1N      150.7720   63.1920   98.9940 N.pl3 1416  NAD1416    -0.2787
     37  C2N      150.0400   62.2370   99.6110 C.3   1416  NAD1416     0.1244
     38  C3N      150.4540   61.7300  100.8360 C.2   1416  NAD1416     0.0544
     39  C7N      149.6240   60.6820  101.4930 C.2   1416  NAD1416     0.2818
     40  O7N      149.8910   60.4550  102.8690 O.2   1416  NAD1416    -0.2670
     41  N7N      148.6840   60.0460  100.7710 N.am  1416  NAD1416    -0.0839
     42  C4N      151.6130   62.2190  101.4410 C.2   1416  NAD1416     0.0033
     43  C5N      152.3520   63.2080  100.8010 C.2   1416  NAD1416     0.0157
     44  C6N      151.9160   63.6810   99.5640 C.2   1416  NAD1416     0.0633
@<TRIPOS>BOND
     1    19    20    1
     2    19    17    2
     3    18    17    1
     4    20    21    1
     5    17    16    1
     6    21    22    2
     7    16    22    1
     8    16    15    2
     9    22    13    1
    10    15    14    1
    11    11    10    1
    12    13    14    1
    13    13    12    1
    14    12    10    1
    15    12     7    1
    16    10     8    1
    17     7     6    1
    18     9     8    1
    19     8     6    1
    20     6     5    1
    21     5     4    1
    22     4     1    1
    23     3     1    2
    24     2     1    1
    25     1    23    1
    26    32    31    1
    27    29    28    1
    28    29    31    1
    29    29    30    1
    30    28    27    1
    31    27    24    1
    32    23    24    1
    33    31    33    1
    34    26    24    2
    35    30    35    1
    36    24    25    1
    37    33    35    1
    38    33    34    1
    39    35    36    1
    40    36    44    1
    41    36    37    1
    42    44    43    2
    43    37    38    1
    44    41    39   am
    45    43    42    1
    46    38    42    2
    47    38    39    1
    48    39    40    2
