@<TRIPOS>MOLECULE
1up6_G6P_A_1.pdb
 16 16 0 0 0
SMALL
GASTEIGER

@<TRIPOS>ATOM
      1  C1       149.3740   64.7420  106.1590 C.3   1418  G6P1418     0.3024
      2  C2       148.5040   63.8910  105.2460 C.3   1418  G6P1418     0.2434
      3  C3       149.0000   64.0190  103.8290 C.3   1418  G6P1418     0.2199
      4  C4       149.0460   65.4500  103.3670 C.3   1418  G6P1418     0.2143
      5  C5       149.8550   66.2860  104.3500 C.3   1418  G6P1418     0.1808
      6  C6       149.7570   67.7610  103.9430 C.3   1418  G6P1418     0.1859
      7  O1       148.8810   64.6130  107.5020 O.3   1418  G6P1418    -0.1869
      8  O2       148.6160   62.5280  105.6240 O.3   1418  G6P1418    -0.2148
      9  O3       148.1830   63.2860  102.9400 O.3   1418  G6P1418    -0.2174
     10  O4       149.7000   65.4330  102.1030 O.3   1418  G6P1418    -0.2176
     11  O5       149.3400   66.1050  105.6840 O.3   1418  G6P1418    -0.3237
     12  O6       150.8420   68.5140  104.4810 O.3   1418  G6P1418    -0.2675
     13  P        151.2300   69.8610  103.7880 P.3   1418  G6P1418     0.5327
     14  O1P      152.7500   70.1680  104.1870 O.3   1418  G6P1418    -0.1145
     15  O2P      150.4570   71.0120  104.2490 O.3   1418  G6P1418    -0.1145
     16  O3P      151.3270   69.7280  102.2500 O.2   1418  G6P1418    -0.2224
@<TRIPOS>BOND
     1    10     4    1
     2    16    13    2
     3     9     3    1
     4     4     3    1
     5     4     5    1
     6    13    14    1
     7    13    15    1
     8    13    12    1
     9     3     2    1
    10     6     5    1
    11     6    12    1
    12     5    11    1
    13     2     8    1
    14     2     1    1
    15    11     1    1
    16     1     7    1
