@<TRIPOS>MOLECULE
1up7_NAD_A_1.pdb
 44 48 0 0 0
SMALL
GASTEIGER

@<TRIPOS>ATOM
      1  PA       152.7500   67.9420   93.3370 P.3   1416  NAD1416     0.2189
      2  O1A      151.9790   69.1510   92.9870 O.2   1416  NAD1416    -0.5170
      3  O2A      154.2490   68.1690   93.6300 O.3   1416  NAD1416    -0.4371
      4  O5B      152.5610   66.9600   92.0620 O.3   1416  NAD1416    -0.3112
      5  C5B      153.4940   65.9380   91.8250 C.3   1416  NAD1416     0.1813
      6  C4B      153.9490   65.9660   90.3720 C.3   1416  NAD1416     0.1821
      7  O4B      152.9080   65.5060   89.5130 O.3   1416  NAD1416    -0.3135
      8  C3B      154.3610   67.3360   89.8480 C.3   1416  NAD1416     0.2184
      9  O3B      155.7360   67.2740   89.5000 O.3   1416  NAD1416    -0.2174
     10  C2B      153.4860   67.5610   88.6130 C.3   1416  NAD1416     0.2570
     11  O2B      154.1960   68.1710   87.5550 O.3   1416  NAD1416    -0.2130
     12  C1B      153.1400   66.1290   88.2460 C.3   1416  NAD1416     0.3186
     13  N9A      151.9460   65.9660   87.4220 N.pl3 1416  NAD1416    -0.1439
     14  C8A      150.7700   66.6920   87.4090 C.3   1416  NAD1416     0.3377
     15  N7A      149.9670   66.1090   86.4920 N.2   1416  NAD1416    -0.2095
     16  C5A      150.5640   65.0220   85.9700 C.2   1416  NAD1416     0.2526
     17  C6A      150.2010   64.0920   85.0040 C.2   1416  NAD1416     0.4393
     18  N6A      149.0260   64.1480   84.3860 N.pl3 1416  NAD1416     0.2180
     19  N1A      151.0930   63.0800   84.6700 N.2   1416  NAD1416     0.0021
     20  C2A      152.3350   63.0090   85.2780 C.3   1416  NAD1416     0.5254
     21  N3A      152.6930   63.9530   86.2100 N.2   1416  NAD1416    -0.0055
     22  C4A      151.8230   64.9340   86.5410 C.2   1416  NAD1416     0.3518
     23  O3       152.0070   67.3070   94.6150 O.3   1416  NAD1416    -0.2703
     24  PN       152.5840   66.2890   95.7090 P.3   1416  NAD1416     0.2189
     25  O1N      152.4430   67.0380   96.9830 O.3   1416  NAD1416    -0.4371
     26  O2N      153.8550   65.6990   95.3490 O.2   1416  NAD1416    -0.5170
     27  O5D      151.5600   65.0610   95.6740 O.3   1416  NAD1416    -0.3112
     28  C5D      151.1110   64.4200   94.4940 C.3   1416  NAD1416     0.1813
     29  C4D      149.8370   63.6320   94.8380 C.3   1416  NAD1416     0.1799
     30  O4D      150.0580   62.6250   95.8250 O.3   1416  NAD1416    -0.3327
     31  C3D      148.7470   64.5270   95.4090 C.3   1416  NAD1416     0.2158
     32  O3D      147.5560   64.0800   94.8350 O.3   1416  NAD1416    -0.2175
     33  C2D      148.7650   64.2560   96.9100 C.3   1416  NAD1416     0.2309
     34  O2D      147.5230   64.4370   97.5690 O.3   1416  NAD1416    -0.2158
     35  C1D      149.3040   62.8480   97.0210 C.3   1416  NAD1416     0.2263
     36  N1N      150.3120   62.7730   98.0820 N.pl3 1416  NAD1416    -0.2787
     37  C2N      151.5200   62.2340   97.7000 C.3   1416  NAD1416     0.1244
     38  C3N      152.5580   62.1000   98.5890 C.2   1416  NAD1416     0.0544
     39  C7N      153.8620   61.5180   98.0950 C.2   1416  NAD1416     0.2818
     40  O7N      154.5880   60.5450   98.8220 O.2   1416  NAD1416    -0.2670
     41  N7N      154.3300   61.9420   96.9110 N.am  1416  NAD1416    -0.0839
     42  C4N      152.3430   62.5330   99.9000 C.2   1416  NAD1416     0.0033
     43  C5N      151.1120   63.0810  100.3130 C.2   1416  NAD1416     0.0157
     44  C6N      150.0860   63.1970   99.3750 C.2   1416  NAD1416     0.0633
@<TRIPOS>BOND
     1    18    17    1
     2    19    17    2
     3    19    20    1
     4    17    16    1
     5    20    21    1
     6    16    15    2
     7    16    22    1
     8    21    22    2
     9    15    14    1
    10    22    13    1
    11    14    13    1
    12    13    12    1
    13    11    10    1
    14    12    10    1
    15    12     7    1
    16    10     8    1
    17     9     8    1
    18     7     6    1
    19     8     6    1
    20     6     5    1
    21     5     4    1
    22     4     1    1
    23     2     1    2
    24     1     3    1
    25     1    23    1
    26    28    29    1
    27    28    27    1
    28    23    24    1
    29    32    31    1
    30    29    31    1
    31    29    30    1
    32    26    24    2
    33    31    33    1
    34    27    24    1
    35    24    25    1
    36    30    35    1
    37    33    35    1
    38    33    34    1
    39    41    39   am
    40    35    36    1
    41    37    36    1
    42    37    38    1
    43    36    44    1
    44    39    38    1
    45    39    40    2
    46    38    42    2
    47    44    43    2
    48    42    43    1
