@<TRIPOS>MOLECULE
1up7_G6P_A_1.pdb
 16 16 0 0 0
SMALL
GASTEIGER

@<TRIPOS>ATOM
      1  C1       148.3970   63.8750  105.3930 C.3   1417  G6P1417     0.3024
      2  C2       147.4250   63.0220  104.5320 C.3   1417  G6P1417     0.2434
      3  C3       147.8260   63.1090  103.0600 C.3   1417  G6P1417     0.2199
      4  C4       147.7170   64.5680  102.6470 C.3   1417  G6P1417     0.2143
      5  C5       148.7330   65.3790  103.4740 C.3   1417  G6P1417     0.1808
      6  C6       148.6350   66.8600  103.1350 C.3   1417  G6P1417     0.1859
      7  O1       148.0750   63.9130  106.7960 O.3   1417  G6P1417    -0.1869
      8  O2       147.3860   61.6460  104.9080 O.3   1417  G6P1417    -0.2148
      9  O3       147.0440   62.2570  102.2160 O.3   1417  G6P1417    -0.2174
     10  O4       147.8860   64.7080  101.2360 O.3   1417  G6P1417    -0.2176
     11  O5       148.5020   65.2300  104.8990 O.3   1417  G6P1417    -0.3237
     12  O6       149.8950   67.4990  103.2670 O.3   1417  G6P1417    -0.2675
     13  P        150.2330   68.8340  102.4320 P.3   1417  G6P1417     0.5327
     14  O1P      151.7010   69.1080  102.6640 O.3   1417  G6P1417    -0.1145
     15  O2P      149.4530   70.0710  102.8500 O.3   1417  G6P1417    -0.1145
     16  O3P      149.9740   68.5270  100.9840 O.2   1417  G6P1417    -0.2224
@<TRIPOS>BOND
     1    16    13    2
     2    10     4    1
     3     9     3    1
     4    13    14    1
     5    13    15    1
     6    13    12    1
     7     4     3    1
     8     4     5    1
     9     3     2    1
    10     6    12    1
    11     6     5    1
    12     5    11    1
    13     2     8    1
    14     2     1    1
    15    11     1    1
    16     1     7    1
