@<TRIPOS>MOLECULE
1up9_HEC_A_1.pdb
 43 50 0 0 0
SMALL
GASTEIGER

@<TRIPOS>ATOM
      1 FE        -15.2740   52.0140   10.9480 Fe    201  HEC201      0.0000
      2  CHA      -15.3100   49.4270    8.7010 C.2   201  HEC201      0.0000
      3  CHB      -15.2130   54.2150    8.4430 C.2   201  HEC201      0.0000
      4  CHC      -15.7770   54.5480   13.2150 C.2   201  HEC201      0.0000
      5  CHD      -14.6310   49.8430   13.5380 C.2   201  HEC201      0.0000
      6  NA       -15.3350   51.8600    8.9540 N.ar  201  HEC201      0.0000
      7  C1A      -15.2620   50.7040    8.1680 C.ar  201  HEC201      0.0000
      8  C2A      -15.1390   51.0660    6.7700 C.ar  201  HEC201      0.0000
      9  C3A      -15.1440   52.4040    6.7110 C.ar  201  HEC201      0.0000
     10  C4A      -15.2270   52.9050    8.0670 C.ar  201  HEC201      0.0000
     11  CMA      -15.1020   53.3110    5.4640 C.3   201  HEC201      0.0000
     12  CAA      -15.0040   50.0780    5.6150 C.3   201  HEC201      0.0000
     13  CBA      -13.5150   49.7300    5.3810 C.3   201  HEC201      0.0000
     14  CGA      -12.9640   48.7840    6.4360 C.2   201  HEC201      0.0000
     15  O1A      -12.1280   49.2520    7.2550 O.co2 201  HEC201      0.0000
     16  O2A      -13.4080   47.6030    6.3870 O.co2 201  HEC201      0.0000
     17  NB       -15.5320   53.9860   10.8220 N.2   201  HEC201      0.0000
     18  C1B      -15.4110   54.7480    9.6870 C.2   201  HEC201      0.0000
     19  C2B      -15.5200   56.1600   10.0170 C.2   201  HEC201      0.0000
     20  C3B      -15.7210   56.2310   11.3540 C.2   201  HEC201      0.0000
     21  C4B      -15.6800   54.8840   11.8700 C.2   201  HEC201      0.0000
     22  CMB      -15.4490   57.2740    8.9750 C.3   201  HEC201      0.0000
     23  CAB      -15.9640   57.4370   12.2500 C.3   201  HEC201      0.0000
     24  CBB      -17.1640   58.2920   11.7640 C.3   201  HEC201      0.0000
     25  NC       -15.2140   52.1510   12.9350 N.ar  201  HEC201      0.0000
     26  C1C      -15.4710   53.2890   13.7140 C.ar  201  HEC201      0.0000
     27  C2C      -15.3290   52.9770   15.1120 C.ar  201  HEC201      0.0000
     28  C3C      -14.9790   51.7090   15.1820 C.ar  201  HEC201      0.0000
     29  C4C      -14.9180   51.1630   13.8560 C.ar  201  HEC201      0.0000
     30  CMC      -15.5070   54.0540   16.1890 C.3   201  HEC201      0.0000
     31  CAC      -14.6170   50.8800   16.4240 C.3   201  HEC201      0.0000
     32  CBC      -15.6440   50.9540   17.5880 C.3   201  HEC201      0.0000
     33  ND       -14.9940   50.0400   11.0740 N.2   201  HEC201      0.0000
     34  C1D      -14.7220   49.3390   12.2480 C.2   201  HEC201      0.0000
     35  C2D      -14.5750   47.9350   11.9150 C.2   201  HEC201      0.0000
     36  C3D      -14.7610   47.7990   10.5820 C.2   201  HEC201      0.0000
     37  C4D      -15.0340   49.1150   10.0380 C.2   201  HEC201      0.0000
     38  CMD      -14.2680   46.8610   12.9400 C.3   201  HEC201      0.0000
     39  CAD      -14.6770   46.5080    9.7580 C.3   201  HEC201      0.0000
     40  CBD      -13.2630   46.3740    9.1450 C.3   201  HEC201      0.0000
     41  CGD      -12.9320   45.0040    8.6130 C.2   201  HEC201      0.0000
     42  O1D      -11.7960   44.5760    8.9050 O.co2 201  HEC201      0.0000
     43  O2D      -13.7550   44.3910    7.9630 O.co2 201  HEC201      0.0000
@<TRIPOS>BOND
     1    13    12    1
     2    13    14    1
     3    11     9    1
     4    12     8    1
     5    16    14   ar
     6    14    15   ar
     7     9     8   ar
     8     9    10   ar
     9     8     7   ar
    10    43    41   ar
    11    10     3    2
    12    10     6   ar
    13     7     2    2
    14     7     6   ar
    15     3    18    1
    16    41    42   ar
    17    41    40    1
    18     2    37    1
    19     6     1    1
    20    22    19    1
    21    40    39    1
    22    18    19    1
    23    18    17    2
    24    39    36    1
    25    19    20    2
    26    37    36    1
    27    37    33    2
    28    36    35    2
    29    17     1    1
    30    17    21    1
    31     1    33    1
    32     1    25    1
    33    33    34    1
    34    20    21    1
    35    20    23    1
    36    24    23    1
    37    21     4    2
    38    35    34    1
    39    35    38    1
    40    34     5    2
    41    25    26   ar
    42    25    29   ar
    43     4    26    1
    44     5    29    1
    45    26    27   ar
    46    29    28   ar
    47    27    28   ar
    48    27    30    1
    49    28    31    1
    50    31    32    1
