@<TRIPOS>MOLECULE
1upa_TPP_A_1.pdb
 26 27 0 0 0
SMALL
GASTEIGER

@<TRIPOS>ATOM
      1  N1'       30.2640   61.3080   20.9890 N.2   600  TPP600     -0.1861
      2  C2'       29.0920   61.9050   20.5720 C.1   600  TPP600      0.0663
      3  CM2       27.9860   62.2880   21.5040 C.3   600  TPP600      0.1291
      4  N3'       28.9120   62.1380   19.2240 N.2   600  TPP600     -0.3368
      5  C4'       29.9040   61.8090   18.3230 C.2   600  TPP600      0.2292
      6  N4'       29.6220   62.0940   17.0640 N.pl3 600  TPP600     -0.0925
      7  C5'       31.1070   61.2390   18.7230 C.2   600  TPP600      0.0654
      8  C6'       31.2610   60.9790   20.0780 C.2   600  TPP600      0.1115
      9  C7'       32.2220   60.8850   17.7250 C.3   600  TPP600      0.1237
     10  N3        31.4960   60.1030   16.8130 N.pl3 600  TPP600     -0.2970
     11  C2        30.8420   60.6240   15.7340 C.3   600  TPP600      0.1543
     12  S1        29.9780   59.5300   14.9590 S.3   600  TPP600     -0.0951
     13  C5        30.4200   58.3900   15.9840 C.2   600  TPP600      0.0164
     14  C4        31.2460   58.8000   17.0120 C.2   600  TPP600      0.0279
     15  CM4       31.8070   57.9570   18.1180 C.3   600  TPP600      0.0473
     16  C6        29.8950   56.9990   15.7260 C.3   600  TPP600      0.0661
     17  C7        30.6870   56.3520   14.6000 C.3   600  TPP600      0.1544
     18  O7        30.3770   54.9860   14.5490 O.3   600  TPP600     -0.3134
     19  PA        29.1290   54.4310   13.7370 P.3   600  TPP600      0.2230
     20  O1A       29.1840   52.9720   13.8100 O.2   600  TPP600     -0.5169
     21  O2A       27.7920   55.0730   14.1290 O.3   600  TPP600     -0.4370
     22  O3A       29.3780   54.8930   12.2320 O.3   600  TPP600     -0.2261
     23  PB        30.6360   54.4090   11.3820 P.3   600  TPP600      0.5373
     24  O1B       30.0700   54.2650   10.0410 O.2   600  TPP600     -0.2221
     25  O2B       31.6750   55.4670   11.4140 O.3   600  TPP600     -0.1143
     26  O3B       31.1700   53.1120   11.9020 O.3   600  TPP600     -0.1143
@<TRIPOS>BOND
     1    24    23    2
     2    23    25    1
     3    23    26    1
     4    23    22    1
     5    22    19    1
     6    19    20    2
     7    19    21    1
     8    19    18    1
     9    18    17    1
    10    17    16    1
    11    12    11    1
    12    12    13    1
    13    16    13    1
    14    11    10    1
    15    13    14    2
    16    10    14    1
    17    10     9    1
    18    14    15    1
    19     6     5    1
    20     9     7    1
    21     5     7    1
    22     5     4    2
    23     7     8    2
    24     4     2    2
    25     8     1    1
    26     2     1    2
    27     2     3    1
