@<TRIPOS>MOLECULE
1upb_TPP_A_1.pdb
 26 27 0 0 0
SMALL
GASTEIGER

@<TRIPOS>ATOM
      1  N1'       30.2450   61.3070   21.1040 N.2   600  TPP600     -0.1861
      2  C2'       29.0800   61.8980   20.6600 C.1   600  TPP600      0.0663
      3  CM2       27.9740   62.3060   21.5790 C.3   600  TPP600      0.1291
      4  N3'       28.9250   62.1130   19.3060 N.2   600  TPP600     -0.3368
      5  C4'       29.9380   61.7480   18.4420 C.2   600  TPP600      0.2292
      6  N4'       29.7120   62.0120   17.1750 N.pl3 600  TPP600     -0.0925
      7  C5'       31.1320   61.1790   18.8700 C.2   600  TPP600      0.0654
      8  C6'       31.2640   60.9530   20.2280 C.2   600  TPP600      0.1115
      9  C7'       32.2370   60.7950   17.8780 C.3   600  TPP600      0.1237
     10  N3        31.4710   60.0650   16.9220 N.pl3 600  TPP600     -0.2970
     11  C2        30.7980   60.6170   15.8590 C.3   600  TPP600      0.1543
     12  S1        29.9110   59.5740   15.0420 S.3   600  TPP600     -0.0951
     13  C5        30.3560   58.3980   16.0250 C.2   600  TPP600      0.0164
     14  C4        31.2070   58.7610   17.0590 C.2   600  TPP600      0.0279
     15  CM4       31.7660   57.8790   18.1370 C.3   600  TPP600      0.0473
     16  C6        29.8110   57.0310   15.7200 C.3   600  TPP600      0.0661
     17  C7        30.7240   56.3140   14.7370 C.3   600  TPP600      0.1544
     18  O7        30.3900   54.9440   14.6780 O.3   600  TPP600     -0.3134
     19  PA        29.1370   54.3830   13.8540 P.3   600  TPP600      0.2230
     20  O1A       29.1630   52.9120   14.0220 O.2   600  TPP600     -0.5169
     21  O2A       27.8110   55.0360   14.2630 O.3   600  TPP600     -0.4370
     22  O3A       29.3670   54.7950   12.3200 O.3   600  TPP600     -0.2261
     23  PB        30.6900   54.4070   11.4990 P.3   600  TPP600      0.5373
     24  O1B       30.2950   54.2950   10.0990 O.2   600  TPP600     -0.2221
     25  O2B       31.6520   55.5400   11.5980 O.3   600  TPP600     -0.1143
     26  O3B       31.2130   53.1200   12.0410 O.3   600  TPP600     -0.1143
@<TRIPOS>BOND
     1    24    23    2
     2    23    25    1
     3    23    26    1
     4    23    22    1
     5    22    19    1
     6    19    20    2
     7    19    21    1
     8    19    18    1
     9    18    17    1
    10    17    16    1
    11    12    11    1
    12    12    13    1
    13    16    13    1
    14    11    10    1
    15    13    14    2
    16    10    14    1
    17    10     9    1
    18    14    15    1
    19     6     5    1
    20     9     7    1
    21     5     7    1
    22     5     4    2
    23     7     8    2
    24     4     2    2
    25     8     1    1
    26     2     1    2
    27     2     3    1
