@<TRIPOS>MOLECULE
1upc_TPP_A_1.pdb
 26 27 0 0 0
SMALL
GASTEIGER

@<TRIPOS>ATOM
      1  N1'       34.4290   52.1120   21.9860 N.2   600  TPP600     -0.1861
      2  C2'       34.7120   51.0640   22.8540 C.1   600  TPP600      0.0663
      3  CM2       34.4840   51.1660   24.3310 C.3   600  TPP600      0.1291
      4  N3'       35.1980   49.8800   22.3500 N.2   600  TPP600     -0.3368
      5  C4'       35.4360   49.7510   20.9860 C.2   600  TPP600      0.2292
      6  N4'       35.9020   48.5760   20.5760 N.pl3 600  TPP600     -0.0925
      7  C5'       35.1340   50.7830   20.0770 C.2   600  TPP600      0.0654
      8  C6'       34.6300   51.9730   20.6180 C.2   600  TPP600      0.1115
      9  C7'       35.3770   50.6110   18.5600 C.3   600  TPP600      0.1237
     10  N3        36.7210   50.1990   18.6270 N.pl3 600  TPP600     -0.2970
     11  C2        37.0510   48.8830   18.8370 C.3   600  TPP600      0.1543
     12  S1        38.6130   48.6860   19.0450 S.3   600  TPP600     -0.0951
     13  C5        38.9090   50.2750   18.8370 C.2   600  TPP600      0.0164
     14  C4        37.7770   51.0250   18.6320 C.2   600  TPP600      0.0279
     15  CM4       37.7310   52.5020   18.4440 C.3   600  TPP600      0.0473
     16  C6        40.3510   50.7200   18.8880 C.3   600  TPP600      0.0661
     17  C7        41.0040   50.5340   17.5090 C.3   600  TPP600      0.1544
     18  O7        42.2450   51.2120   17.3920 O.3   600  TPP600     -0.3134
     19  PA        43.5750   50.5810   18.0270 P.3   600  TPP600      0.2230
     20  O1A       44.7770   51.4340   17.7530 O.2   600  TPP600     -0.5169
     21  O2A       43.4300   50.2450   19.5100 O.3   600  TPP600     -0.4370
     22  O3A       43.7700   49.1860   17.2540 O.3   600  TPP600     -0.2261
     23  PB        43.9820   49.1510   15.6650 P.3   600  TPP600      0.5373
     24  O1B       44.8910   48.0460   15.3670 O.3   600  TPP600     -0.1143
     25  O2B       42.7120   48.7410   15.0340 O.2   600  TPP600     -0.2221
     26  O3B       44.5570   50.4880   15.2040 O.3   600  TPP600     -0.1143
@<TRIPOS>BOND
     1    25    23    2
     2    26    23    1
     3    24    23    1
     4    23    22    1
     5    22    19    1
     6    18    17    1
     7    18    19    1
     8    17    16    1
     9    20    19    2
    10    19    21    1
    11    15    14    1
    12     9    10    1
    13     9     7    1
    14    10    14    1
    15    10    11    1
    16    14    13    2
    17    13    16    1
    18    13    12    1
    19    11    12    1
    20     7     8    2
    21     7     5    1
    22     6     5    1
    23     8     1    1
    24     5     4    2
    25     1     2    2
    26     4     2    2
    27     2     3    1
