@<TRIPOS>MOLECULE
1upd_HEC_A_1.pdb
 43 50 0 0 0
SMALL
GASTEIGER

@<TRIPOS>ATOM
      1 FE        -15.1220   52.1540   10.6910 Fe    1108  HEC1108     0.0000
      2  CHA      -15.0090   49.5410    8.4630 C.2   1108  HEC1108     0.0000
      3  CHB      -15.0520   54.3670    8.1480 C.2   1108  HEC1108     0.0000
      4  CHC      -15.6630   54.7050   12.9290 C.2   1108  HEC1108     0.0000
      5  CHD      -14.4640   50.0190   13.2700 C.2   1108  HEC1108     0.0000
      6  NA       -15.1020   51.9730    8.7190 N.ar  1108  HEC1108     0.0000
      7  C1A      -15.0610   50.8270    7.9420 C.ar  1108  HEC1108     0.0000
      8  C2A      -15.0270   51.2080    6.5490 C.ar  1108  HEC1108     0.0000
      9  C3A      -14.9960   52.5480    6.4660 C.ar  1108  HEC1108     0.0000
     10  C4A      -15.0410   53.0340    7.8320 C.ar  1108  HEC1108     0.0000
     11  CMA      -14.8900   53.4210    5.2280 C.3   1108  HEC1108     0.0000
     12  CAA      -14.9410   50.2360    5.3800 C.3   1108  HEC1108     0.0000
     13  CBA      -13.4680   49.7600    5.1910 C.3   1108  HEC1108     0.0000
     14  CGA      -13.2870   48.8860    3.9610 C.2   1108  HEC1108     0.0000
     15  O1A      -14.1200   47.9660    3.7860 O.co2 1108  HEC1108     0.0000
     16  O2A      -12.3170   49.1360    3.1930 O.co2 1108  HEC1108     0.0000
     17  NB       -15.3870   54.1170   10.5670 N.2   1108  HEC1108     0.0000
     18  C1B      -15.2540   54.8760    9.4220 C.2   1108  HEC1108     0.0000
     19  C2B      -15.4020   56.2760    9.7190 C.2   1108  HEC1108     0.0000
     20  C3B      -15.6170   56.3840   11.0480 C.2   1108  HEC1108     0.0000
     21  C4B      -15.5660   55.0320   11.5700 C.2   1108  HEC1108     0.0000
     22  CMB      -15.3130   57.4030    8.6580 C.3   1108  HEC1108     0.0000
     23  CAB      -15.8750   57.6050   11.9240 C.3   1108  HEC1108     0.0000
     24  CBB      -17.0850   58.4230   11.4170 C.3   1108  HEC1108     0.0000
     25  NC       -15.1230   52.3220   12.6690 N.ar  1108  HEC1108     0.0000
     26  C1C      -15.3480   53.4570   13.4330 C.ar  1108  HEC1108     0.0000
     27  C2C      -15.1800   53.1740   14.8360 C.ar  1108  HEC1108     0.0000
     28  C3C      -14.8180   51.8880   14.9200 C.ar  1108  HEC1108     0.0000
     29  C4C      -14.7860   51.3420   13.5780 C.ar  1108  HEC1108     0.0000
     30  CMC      -15.3950   54.2470   15.9400 C.3   1108  HEC1108     0.0000
     31  CAC      -14.4480   51.0700   16.1640 C.3   1108  HEC1108     0.0000
     32  CBC      -15.4800   51.1220   17.2960 C.3   1108  HEC1108     0.0000
     33  ND       -14.8280   50.2010   10.8260 N.2   1108  HEC1108     0.0000
     34  C1D      -14.5470   49.4940   12.0000 C.2   1108  HEC1108     0.0000
     35  C2D      -14.3760   48.0950   11.6740 C.2   1108  HEC1108     0.0000
     36  C3D      -14.5830   47.9370   10.3380 C.2   1108  HEC1108     0.0000
     37  C4D      -14.8360   49.2430    9.8000 C.2   1108  HEC1108     0.0000
     38  CMD      -14.0770   46.9860   12.6940 C.3   1108  HEC1108     0.0000
     39  CAD      -14.5310   46.6170    9.5540 C.3   1108  HEC1108     0.0000
     40  CBD      -13.0850   46.4670    9.0330 C.3   1108  HEC1108     0.0000
     41  CGD      -12.7050   45.1380    8.4420 C.2   1108  HEC1108     0.0000
     42  O1D      -13.5480   44.4040    7.9510 O.co2 1108  HEC1108     0.0000
     43  O2D      -11.4900   44.8350    8.4210 O.co2 1108  HEC1108     0.0000
@<TRIPOS>BOND
     1    16    14   ar
     2    15    14   ar
     3    14    13    1
     4    13    12    1
     5    11     9    1
     6    12     8    1
     7     9     8   ar
     8     9    10   ar
     9     8     7   ar
    10    10     3    2
    11    10     6   ar
    12     7     2    2
    13     7     6   ar
    14    42    41   ar
    15     3    18    1
    16    43    41   ar
    17    41    40    1
    18     2    37    1
    19    22    19    1
    20     6     1    1
    21    40    39    1
    22    18    19    1
    23    18    17    2
    24    39    36    1
    25    19    20    2
    26    37    36    1
    27    37    33    2
    28    36    35    2
    29    17     1    1
    30    17    21    1
    31     1    33    1
    32     1    25    1
    33    33    34    1
    34    20    21    1
    35    20    23    1
    36    24    23    1
    37    21     4    2
    38    35    34    1
    39    35    38    1
    40    34     5    2
    41    25    26   ar
    42    25    29   ar
    43     4    26    1
    44     5    29    1
    45    26    27   ar
    46    29    28   ar
    47    27    28   ar
    48    27    30    1
    49    28    31    1
    50    31    32    1
