@<TRIPOS>MOLECULE
1upj_U01_A_1.pdb
 23 25 0 0 0
SMALL
GASTEIGER

@<TRIPOS>ATOM
      1  CA         9.5100   16.7270   13.9820 C.ar  201  U01201      0.0964
      2  CA2        8.4820   15.7970   13.8930 C.ar  201  U01201      0.3451
      3  CA4        6.9530   17.3520   14.9230 C.ar  201  U01201      0.1517
      4  CA5        7.9840   18.2840   15.0010 C.ar  201  U01201      0.0735
      5  CA6        9.2610   17.9820   14.5320 C.ar  201  U01201      0.2011
      6  CB1       10.6780   16.2170   11.9370 C.ar  201  U01201     -0.0181
      7  CB2        9.6960   17.0030   11.3450 C.ar  201  U01201     -0.0034
      8  CB3        9.4630   16.9230    9.9760 C.ar  201  U01201      0.0064
      9  CB4       10.2040   16.0430    9.1930 C.ar  201  U01201      0.0345
     10  CB5       11.1890   15.2590    9.7900 C.ar  201  U01201      0.0064
     11  CB6       11.4240   15.3360   11.1620 C.ar  201  U01201     -0.0034
     12  CG1       10.8910   16.3370   13.4470 C.3   201  U01201      0.0541
     13  CG2       11.4210   15.0280   14.0550 C.3   201  U01201      0.0084
     14  CG3       12.8620   14.7790   13.5960 C.3   201  U01201      0.0007
     15  CG4       11.2840   14.9870   15.5810 C.3   201  U01201      0.0007
     16  CD1        5.6710   17.6340   15.3810 C.ar  201  U01201      0.0377
     17  CD2        5.3990   18.8690   15.9530 C.ar  201  U01201      0.0031
     18  CD3        6.4150   19.8160   16.0160 C.ar  201  U01201      0.0003
     19  CD4        7.6950   19.5300   15.5480 C.ar  201  U01201      0.0062
     20  OA2        8.7300   14.6590   13.4950 O.2   201  U01201     -0.2447
     21  OA3        7.2100   16.1090   14.3590 O.2   201  U01201     -0.4211
     22  OA6       10.2460   18.9360   14.5280 O.3   201  U01201     -0.2866
     23 BR          9.8670   15.9430    7.2190 Br    201  U01201     -0.0490
@<TRIPOS>BOND
     1    23     9    1
     2     9    10   ar
     3     9     8   ar
     4    10    11   ar
     5     8     7   ar
     6    11     6   ar
     7     7     6   ar
     8     6    12    1
     9    12     1    1
    10    12    13    1
    11    20     2    2
    12    14    13    1
    13     2     1   ar
    14     2    21   ar
    15     1     5   ar
    16    13    15    1
    17    21     3   ar
    18    22     5    1
    19     5     4   ar
    20     3     4   ar
    21     3    16   ar
    22     4    19   ar
    23    16    17   ar
    24    19    18   ar
    25    17    18   ar
