@<TRIPOS>MOLECULE
1upk_III_B_1.pdb
 43 45 0 0 0
SMALL
GASTEIGER

@<TRIPOS>ATOM
      1  N         59.0090  -46.3590    8.2930 N.3     1  ASP1       -0.1225
      2  CA        59.0280  -44.8780    8.0680 C.3     1  ASP1        0.1805
      3  C         59.6170  -44.5730    6.6950 C.2     1  ASP1        0.2598
      4  O         60.4230  -45.3490    6.1510 O.2     1  ASP1       -0.2718
      5  CB        59.8730  -44.1940    9.1430 C.3     1  ASP1        0.1424
      6  CG        59.7180  -42.6870    9.1450 C.2     1  ASP1        0.3668
      7  OD1       60.0290  -42.0500    8.1180 O.co2   1  ASP1       -0.2456
      8  OD2       59.2830  -42.1380   10.1780 O.co2   1  ASP1       -0.2456
      9  N         59.2210  -43.4420    6.1250 N.am    2  TRP2       -0.1962
     10  CA        59.7440  -43.0620    4.8210 C.3     2  TRP2        0.1771
     11  C         61.1570  -42.5390    5.0310 C.2     2  TRP2        0.2620
     12  O         61.5210  -42.1460    6.1360 O.2     2  TRP2       -0.2715
     13  CB        58.9000  -41.9460    4.1810 C.3     2  TRP2        0.0590
     14  CG        57.4370  -42.2320    4.0810 C.2     2  TRP2        0.0003
     15  CD1       56.4150  -41.5340    4.6870 C.2     2  TRP2        0.0946
     16  CD2       56.8110  -43.2880    3.3370 C.2     2  TRP2        0.0113
     17  NE1       55.2060  -42.0950    4.3640 N.2     2  TRP2       -0.2442
     18  CE2       55.4150  -43.1720    3.5430 C.2     2  TRP2        0.0804
     19  CE3       57.2910  -44.3210    2.5210 C.2     2  TRP2       -0.0202
     20  CZ2       54.4950  -44.0560    2.9640 C.2     2  TRP2        0.0148
     21  CZ3       56.3720  -45.2020    1.9440 C.3     2  TRP2        0.0521
     22  CH2       54.9920  -45.0600    2.1710 C.2     2  TRP2       -0.0199
     23  N         61.9520  -42.5380    3.9700 N.am    3  GLU3       -0.1963
     24  CA        63.3080  -42.0120    4.0280 C.3     3  GLU3        0.1733
     25  C         63.4140  -40.9520    2.9380 C.2     3  GLU3        0.2617
     26  O         63.1610  -41.2320    1.7670 O.2     3  GLU3       -0.2715
     27  CB        64.3130  -43.1520    3.8290 C.3     3  GLU3        0.0429
     28  CG        64.2390  -44.1360    4.9910 C.3     3  GLU3        0.1163
     29  CD        65.3450  -45.1770    4.9940 C.2     3  GLU3        0.3649
     30  OE1       66.3150  -45.0380    4.2010 O.co2   3  GLU3       -0.2457
     31  OE2       65.2300  -46.1260    5.8030 O.co2   3  GLU3       -0.2457
     32  N         63.7730  -39.7280    3.3210 N.am    4  PHE4       -0.1938
     33  CA        63.8560  -38.6190    2.3570 C.3     4  PHE4        0.2021
     34  C         65.2690  -38.1230    2.0670 C.2     4  PHE4        0.3845
     35  O         65.5180  -37.5980    0.9450 O.co2   4  PHE4       -0.2437
     36  CB        62.9880  -37.4370    2.8390 C.3     4  PHE4        0.0596
     37  CG        61.5580  -37.8150    3.1440 C.ar    4  PHE4       -0.0199
     38  CD1       61.1110  -37.8830    4.4510 C.ar    4  PHE4       -0.0042
     39  CD2       60.6650  -38.1250    2.1160 C.ar    4  PHE4       -0.0042
     40  CE1       59.7900  -38.2590    4.7380 C.ar    4  PHE4       -0.0003
     41  CE2       59.3350  -38.5030    2.3940 C.ar    4  PHE4       -0.0003
     42  CZ        58.9040  -38.5690    3.7080 C.ar    4  PHE4       -0.0000
     43  OXT       66.1110  -38.2440    2.9790 O.co2   4  PHE4       -0.2437
@<TRIPOS>BOND
     1    35    34   ar
     2    26    25    2
     3    21    22    1
     4    21    19    1
     5    34    33    1
     6    34    43   ar
     7    39    41   ar
     8    39    37   ar
     9    22    20    2
    10    33    36    1
    11    33    32    1
    12    41    42   ar
    13    19    16    2
    14    36    37    1
    15    25    32   am
    16    25    24    1
    17    20    18    1
    18    37    38   ar
    19    16    18    1
    20    16    14    1
    21    18    17    2
    22    42    40   ar
    23    27    24    1
    24    27    28    1
    25    23    24    1
    26    23    11   am
    27    14    13    1
    28    14    15    2
    29    13    10    1
    30    30    29   ar
    31    17    15    1
    32    38    40   ar
    33    10    11    1
    34    10     9    1
    35    28    29    1
    36    29    31   ar
    37    11    12    2
    38     9     3   am
    39     4     3    2
    40     3     2    1
    41     2     1    1
    42     2     5    1
    43     7     6   ar
    44     5     6    1
    45     6     8   ar
