@<TRIPOS>MOLECULE
1upm_CAP_B_1.pdb
 21 20 0 0 0
SMALL
GASTEIGER

@<TRIPOS>ATOM
      1  C1       -89.8110   47.8430   45.5240 C.3   477  CAP477      0.1978
      2  C2       -89.0220   48.3220   44.3100 C.3   477  CAP477      0.2763
      3  C3       -88.6570   47.0640   43.5100 C.3   477  CAP477      0.2253
      4  C4       -89.8440   46.4290   42.7230 C.3   477  CAP477      0.2152
      5  C5       -89.4940   45.8260   41.3680 C.3   477  CAP477      0.1892
      6  C        -89.8120   49.3580   43.4660 C.2   477  CAP477      0.3967
      7  O1       -90.0160   48.9830   46.3770 O.3   477  CAP477     -0.2669
      8  O2       -87.9060   48.9480   44.8230 O.3   477  CAP477     -0.2086
      9  O3       -87.8270   47.3110   42.4570 O.3   477  CAP477     -0.2170
     10  O4       -90.1890   45.3870   43.5030 O.3   477  CAP477     -0.2176
     11  O5       -90.4680   44.9500   40.8650 O.3   477  CAP477     -0.2674
     12  O6       -89.3290   50.2510   42.7710 O.co2 477  CAP477     -0.2428
     13  O7       -91.0250   49.3180   43.4350 O.co2 477  CAP477     -0.2428
     14  P1       -90.7740   48.7580   47.7850 P.3   477  CAP477      0.5327
     15  P2       -90.3430   43.4600   40.4770 P.3   477  CAP477      0.5327
     16  O1P      -90.7630   49.9680   48.5680 O.3   477  CAP477     -0.1145
     17  O2P      -90.0400   47.6110   48.4970 O.3   477  CAP477     -0.1145
     18  O3P      -92.1280   48.2810   47.2360 O.2   477  CAP477     -0.2224
     19  O4P      -91.7990   42.9650   40.2240 O.3   477  CAP477     -0.1145
     20  O5P      -89.7340   42.7070   41.5760 O.3   477  CAP477     -0.1145
     21  O6P      -89.6600   43.3600   39.1630 O.2   477  CAP477     -0.2224
@<TRIPOS>BOND
     1    21    15    2
     2    19    15    1
     3    15    11    1
     4    15    20    1
     5    11     5    1
     6     5     4    1
     7     9     3    1
     8     4    10    1
     9     4     3    1
    10    12     6   ar
    11    13     6   ar
    12     6     2    1
    13     3     2    1
    14     2     8    1
    15     2     1    1
    16     1     7    1
    17     7    14    1
    18    18    14    2
    19    14    17    1
    20    14    16    1
