@<TRIPOS>MOLECULE
1upp_CAP_A_1.pdb
 21 20 0 0 0
SMALL
GASTEIGER

@<TRIPOS>ATOM
      1  C1       -36.8860   34.8480   28.7310 C.3   477  CAP477      0.1978
      2  C2       -36.0860   34.4910   29.9820 C.3   477  CAP477      0.2763
      3  C3       -35.9300   35.7940   30.8260 C.3   477  CAP477      0.2253
      4  C4       -37.2340   36.2580   31.4740 C.3   477  CAP477      0.2152
      5  C5       -37.1500   36.9660   32.8370 C.3   477  CAP477      0.1892
      6  C        -36.7100   33.2940   30.7440 C.2   477  CAP477      0.3967
      7  O1       -36.5220   33.7700   27.8340 O.3   477  CAP477     -0.2669
      8  O2       -34.8050   34.2500   29.4420 O.3   477  CAP477     -0.2086
      9  O3       -35.0530   35.6900   31.8510 O.3   477  CAP477     -0.2170
     10  O4       -37.6460   37.0850   30.4890 O.3   477  CAP477     -0.2176
     11  O5       -38.1740   37.9260   32.9690 O.3   477  CAP477     -0.2674
     12  O6       -36.0820   32.4710   31.4420 O.co2 477  CAP477     -0.2428
     13  O7       -37.8970   32.9920   30.8500 O.co2 477  CAP477     -0.2428
     14  P1       -37.2440   33.7630   26.4450 P.3   477  CAP477      0.5327
     15  P2       -38.0560   39.4120   33.4290 P.3   477  CAP477      0.5327
     16  O1P      -36.9960   32.5230   25.7840 O.3   477  CAP477     -0.1145
     17  O2P      -36.3700   34.8360   25.6980 O.2   477  CAP477     -0.2224
     18  O3P      -38.5990   34.2760   26.7580 O.3   477  CAP477     -0.1145
     19  O4P      -39.4670   39.9640   33.3170 O.3   477  CAP477     -0.1145
     20  O5P      -37.1800   40.0950   32.3660 O.2   477  CAP477     -0.2224
     21  O6P      -37.4330   39.5040   34.7400 O.3   477  CAP477     -0.1145
@<TRIPOS>BOND
     1    17    14    2
     2    16    14    1
     3    14    18    1
     4    14     7    1
     5     7     1    1
     6     1     2    1
     7     8     2    1
     8     2     6    1
     9     2     3    1
    10    10     4    1
    11     6    13   ar
    12     6    12   ar
    13     3     4    1
    14     3     9    1
    15     4     5    1
    16    20    15    2
    17     5    11    1
    18    11    15    1
    19    19    15    1
    20    15    21    1
