@<TRIPOS>MOLECULE
1upr_4IP_A_1.pdb
 28 28 0 0 0
SMALL
GASTEIGER

@<TRIPOS>ATOM
      1  C1        19.8550   32.2080   19.9030 C.3   2154  4IP2154     0.1917
      2  O1        21.0310   32.8430   20.4430 O.3   2154  4IP2154    -0.2673
      3  C2        20.2570   30.8530   19.3130 C.3   2154  4IP2154     0.2120
      4  O2        21.3900   31.0040   18.4450 O.3   2154  4IP2154    -0.2177
      5  C3        19.0890   30.1640   18.5790 C.3   2154  4IP2154     0.1890
      6  O3        19.5450   28.9780   17.8960 O.3   2154  4IP2154    -0.2674
      7  C4        18.4060   31.0560   17.5380 C.3   2154  4IP2154     0.1865
      8  O4        17.1880   30.4070   17.1900 O.3   2154  4IP2154    -0.2675
      9  C5        18.0630   32.4790   18.0180 C.3   2154  4IP2154     0.1890
     10  O5        17.6850   33.2730   16.8440 O.3   2154  4IP2154    -0.2674
     11  C6        19.1850   33.1430   18.8740 C.3   2154  4IP2154     0.2120
     12  O6        18.6430   34.2510   19.6030 O.3   2154  4IP2154    -0.2177
     13  P1        21.3360   32.8140   22.0380 P.3   2154  4IP2154     0.5327
     14  O1P       20.9240   31.3180   22.5200 O.3   2154  4IP2154    -0.1145
     15  O2P       20.2500   33.8360   22.6660 O.3   2154  4IP2154    -0.1145
     16  O3P       22.7240   33.1710   22.4070 O.2   2154  4IP2154    -0.2224
     17  P3        19.7150   27.5300   18.6360 P.3   2154  4IP2154     0.5327
     18  O4P       18.7070   27.5550   19.8990 O.3   2154  4IP2154    -0.1145
     19  O5P       19.0580   26.3990   17.6920 O.2   2154  4IP2154    -0.2224
     20  O6P       21.1170   27.2260   18.9740 O.3   2154  4IP2154    -0.1145
     21  P4        17.1230   29.5180   15.8840 P.3   2154  4IP2154     0.5327
     22  O7P       17.5570   28.0230   16.2900 O.3   2154  4IP2154    -0.1145
     23  O8P       15.5620   29.4410   15.4260 O.3   2154  4IP2154    -0.1145
     24  O9P       17.9870   30.0490   14.8060 O.2   2154  4IP2154    -0.2224
     25  P5        16.1190   33.7470   16.5660 P.3   2154  4IP2154     0.5327
     26  OPF       15.3440   33.4510   17.9430 O.3   2154  4IP2154    -0.1145
     27  OPG       16.1650   35.3680   16.5120 O.3   2154  4IP2154    -0.1145
     28  OPH       15.4190   33.1300   15.4180 O.2   2154  4IP2154    -0.2224
@<TRIPOS>BOND
     1    24    21    2
     2    28    25    2
     3    23    21    1
     4    21    22    1
     5    21     8    1
     6    27    25    1
     7    25    10    1
     8    25    26    1
     9    10     9    1
    10     8     7    1
    11     7     9    1
    12     7     5    1
    13    19    17    2
    14     6     5    1
    15     6    17    1
    16     9    11    1
    17     4     3    1
    18     5     3    1
    19    17    20    1
    20    17    18    1
    21    11    12    1
    22    11     1    1
    23     3     1    1
    24     1     2    1
    25     2    13    1
    26    13    16    2
    27    13    14    1
    28    13    15    1
