@<TRIPOS>MOLECULE
1upt_GTP_A_1.pdb
 32 34 0 0 0
SMALL
GASTEIGER

@<TRIPOS>ATOM
      1  PG       -25.5090   -5.6920   34.2160 P.3   1182  GTP1182     0.5373
      2  O1G      -24.2280   -4.9910   34.0600 O.3   1182  GTP1182    -0.1143
      3  O2G      -26.7020   -5.2580   33.3970 O.2   1182  GTP1182    -0.2221
      4  O3G      -25.9580   -5.5930   35.7190 O.3   1182  GTP1182    -0.1143
      5  O3B      -25.2460   -7.2660   33.9860 O.3   1182  GTP1182    -0.2258
      6  PB       -26.3150   -8.4600   33.9980 P.3   1182  GTP1182     0.2277
      7  O1B      -26.2370   -9.1570   35.3000 O.3   1182  GTP1182    -0.4368
      8  O2B      -27.6930   -8.1180   33.5970 O.2   1182  GTP1182    -0.5168
      9  O3A      -25.7210   -9.5080   32.9290 O.3   1182  GTP1182    -0.2700
     10  PA       -26.4550   -9.9560   31.5870 P.3   1182  GTP1182     0.2189
     11  O1A      -27.7480  -10.6110   31.6460 O.3   1182  GTP1182    -0.4371
     12  O2A      -26.3540   -8.7360   30.6830 O.2   1182  GTP1182    -0.5170
     13  O5'      -25.4160  -11.1130   31.1170 O.3   1182  GTP1182    -0.3112
     14  C5'      -24.0780  -10.7990   30.8560 C.3   1182  GTP1182     0.1813
     15  C4'      -23.5360  -11.8410   29.8810 C.3   1182  GTP1182     0.1799
     16  O4'      -23.5400  -13.1370   30.4540 O.3   1182  GTP1182    -0.3326
     17  C3'      -24.3600  -11.9470   28.6160 C.3   1182  GTP1182     0.2158
     18  O3'      -23.4240  -12.1600   27.5770 O.3   1182  GTP1182    -0.2175
     19  C2'      -25.2160  -13.1570   28.8310 C.3   1182  GTP1182     0.2310
     20  O2'      -25.5860  -13.8100   27.6600 O.3   1182  GTP1182    -0.2158
     21  C1'      -24.3130  -14.0250   29.6840 C.3   1182  GTP1182     0.2293
     22  N9       -25.0260  -14.9740   30.5390 N.pl3 1182  GTP1182    -0.2354
     23  C8       -26.0750  -14.7440   31.4010 C.3   1182  GTP1182     0.2246
     24  N7       -26.4350  -15.8940   31.9950 N.2   1182  GTP1182    -0.2322
     25  C5       -25.6030  -16.8770   31.5460 C.2   1182  GTP1182     0.2182
     26  C6       -25.5040  -18.2270   31.8210 C.1   1182  GTP1182     0.2372
     27  O6       -26.2210  -18.8400   32.6160 O.2   1182  GTP1182    -0.2069
     28  N1       -24.5450  -18.9710   31.1610 N.2   1182  GTP1182    -0.2485
     29  C2       -23.6650  -18.4000   30.2830 C.1   1182  GTP1182     0.2531
     30  N2       -22.7720  -19.2230   29.7160 N.pl3 1182  GTP1182    -0.0226
     31  N3       -23.7530  -17.0420   29.9900 N.2   1182  GTP1182    -0.3074
     32  C4       -24.7220  -16.3070   30.6220 C.2   1182  GTP1182     0.2300
@<TRIPOS>BOND
     1    18    17    1
     2    20    19    1
     3    17    19    1
     4    17    15    1
     5    19    21    1
     6    21    16    1
     7    21    22    1
     8    30    29    1
     9    15    16    1
    10    15    14    1
    11    31    29    2
    12    31    32    2
    13    29    28    2
    14    22    32    1
    15    22    23    1
    16    32    25    1
    17    12    10    2
    18    14    13    1
    19    13    10    1
    20    28    26    2
    21    23    24    1
    22    25    26    1
    23    25    24    2
    24    10    11    1
    25    10     9    1
    26    26    27    2
    27     9     6    1
    28     3     1    2
    29     8     6    2
    30     5     6    1
    31     5     1    1
    32     6     7    1
    33     2     1    1
    34     1     4    1
