@<TRIPOS>MOLECULE
1upu_U5P_A_1.pdb
 21 22 0 0 0
SMALL
GASTEIGER

@<TRIPOS>ATOM
      1  N1         8.4570   94.1420   46.2030 N.am  999  U5P999     -0.1766
      2  C2         9.4610   93.7000   47.0600 C.1   999  U5P999      0.2845
      3  N3        10.3720   94.6670   47.4210 N.2   999  U5P999     -0.2452
      4  C4        10.3940   95.9930   46.9970 C.1   999  U5P999      0.2182
      5  C5         9.3340   96.3610   46.0960 C.2   999  U5P999      0.1242
      6  C6         8.4320   95.4460   45.7360 C.2   999  U5P999      0.0929
      7  O2         9.5210   92.5620   47.5020 O.2   999  U5P999     -0.1918
      8  O4        11.2720   96.7560   47.3990 O.2   999  U5P999     -0.2085
      9  C1'        7.3900   93.1610   45.7670 C.3   999  U5P999      0.2401
     10  C2'        5.9910   93.5510   46.2550 C.3   999  U5P999      0.2319
     11  O2'        5.6490   92.8050   47.4110 O.3   999  U5P999     -0.2157
     12  C3'        5.0730   93.2490   45.0600 C.3   999  U5P999      0.2158
     13  C4'        6.0030   93.1740   43.8510 C.3   999  U5P999      0.1801
     14  O3'        4.3690   92.0220   45.2140 O.3   999  U5P999     -0.2175
     15  O4'        7.3640   93.1790   44.3550 O.3   999  U5P999     -0.3320
     16  C5'        5.8270   94.3030   42.8470 C.3   999  U5P999      0.1859
     17  O5'        5.4030   95.4870   43.5130 O.3   999  U5P999     -0.2675
     18  P          4.8740   96.7810   42.7390 P.3   999  U5P999      0.5327
     19  O1P        5.9990   97.3490   41.9710 O.2   999  U5P999     -0.2224
     20  O2P        3.6180   96.4220   42.0400 O.3   999  U5P999     -0.1145
     21  O3P        4.1730   97.6330   43.7280 O.3   999  U5P999     -0.1145
@<TRIPOS>BOND
     1    19    18    2
     2    20    18    1
     3    18    17    1
     4    18    21    1
     5    16    17    1
     6    16    13    1
     7    13    15    1
     8    13    12    1
     9    15     9    1
    10    12    14    1
    11    12    10    1
    12     6     5    2
    13     6     1    1
    14     9     1    1
    15     9    10    1
    16     5     4    1
    17     1     2   am
    18    10    11    1
    19     4     8    2
    20     4     3    2
    21     2     3    2
    22     2     7    2
