@<TRIPOS>MOLECULE
1upv_444_A_1.pdb
 31 32 0 0 0
SMALL
GASTEIGER

@<TRIPOS>ATOM
      1  O13       41.1470   -3.2530   14.6650 O.2   462  444462     -0.1497
      2  S12       40.8500   -1.8700   14.9730 S.O2  462  444462      0.0768
      3  O14       41.9060   -1.0230   14.4760 O.2   462  444462     -0.1497
      4  C01       40.7790   -1.7680   16.5630 C.ar  462  444462      0.1254
      5  C02       40.8160   -0.5220   17.1900 C.ar  462  444462      0.0202
      6  C03       40.7400   -0.4770   18.5710 C.ar  462  444462      0.0014
      7  C04       40.6340   -1.6630   19.2990 C.ar  462  444462      0.0001
      8  C05       40.6030   -2.9080   18.6820 C.ar  462  444462      0.0014
      9  C06       40.6730   -2.9510   17.3010 C.ar  462  444462      0.0202
     10  N15       39.4910   -1.4680   14.3940 N.pl3 462  444462     -0.1818
     11  C16       38.7310   -2.4780   13.6860 C.3   462  444462      0.2186
     12  C19       39.3150   -2.6480   12.2930 C.3   462  444462      0.4174
     13  F22       38.8180   -1.6850   11.5340 F     462  444462     -0.1681
     14  F21       38.9660   -3.8600   11.9020 F     462  444462     -0.1681
     15  F20       40.6340   -2.5730   12.2560 F     462  444462     -0.1681
     16  C23       38.9640   -0.1760   14.5710 C.ar  462  444462      0.0691
     17  C24       37.7860   -0.0260   15.3010 C.ar  462  444462      0.0159
     18  C25       37.2580    1.2440   15.5050 C.ar  462  444462     -0.0000
     19  C28       39.6140    0.9510   14.0580 C.ar  462  444462      0.0159
     20  C27       39.0850    2.2260   14.2620 C.ar  462  444462     -0.0000
     21  C26       37.8940    2.3760   14.9810 C.ar  462  444462      0.0216
     22  C33       37.3240    3.7480   15.2150 C.3   462  444462      0.3171
     23  C34       37.7060    4.1810   16.6360 C.3   462  444462      0.4344
     24  F36       37.2120    3.3850   17.5570 F     462  444462     -0.1668
     25  F37       39.0070    4.1660   16.8470 F     462  444462     -0.1668
     26  F35       37.2150    5.3900   16.7960 F     462  444462     -0.1668
     27  O42       37.8870    4.6950   14.3000 O.3   462  444462     -0.2033
     28  C38       35.8000    3.7970   14.9910 C.3   462  444462      0.4344
     29  F39       35.4530    3.2670   13.8410 F     462  444462     -0.1668
     30  F40       35.1360    3.2280   15.9760 F     462  444462     -0.1668
     31  F41       35.4140    5.0370   14.9350 F     462  444462     -0.1668
@<TRIPOS>BOND
     1    13    12    1
     2    14    12    1
     3    15    12    1
     4    12    11    1
     5    11    10    1
     6    29    28    1
     7    19    20   ar
     8    19    16   ar
     9    20    21   ar
    10    27    22    1
    11    10    16    1
    12    10     2    1
    13     3     2    2
    14    16    17   ar
    15     1     2    2
    16    31    28    1
    17     2     4    1
    18    21    22    1
    19    21    18   ar
    20    28    22    1
    21    28    30    1
    22    22    23    1
    23    17    18   ar
    24     4     5   ar
    25     4     9   ar
    26    23    26    1
    27    23    25    1
    28    23    24    1
    29     5     6   ar
    30     9     8   ar
    31     6     7   ar
    32     8     7   ar
