@<TRIPOS>MOLECULE
1upw_444_A_1.pdb
 31 32 0 0 0
SMALL
GASTEIGER

@<TRIPOS>ATOM
      1  O13       93.2490  -15.4930   13.1830 O.2   1462  4441462    -0.1497
      2  S12       93.4450  -14.1110   12.7980 S.O2  1462  4441462     0.0768
      3  O14       92.5760  -13.2610   13.5740 O.2   1462  4441462    -0.1497
      4  C01       93.0580  -14.0140   11.2540 C.ar  1462  4441462     0.1254
      5  C02       92.8430  -12.7700   10.6600 C.ar  1462  4441462     0.0202
      6  C03       92.5190  -12.7300    9.3150 C.ar  1462  4441462     0.0014
      7  C04       92.4120  -13.9180    8.5910 C.ar  1462  4441462     0.0001
      8  C05       92.6190  -15.1610    9.1780 C.ar  1462  4441462     0.0014
      9  C06       92.9480  -15.2000   10.5210 C.ar  1462  4441462     0.0202
     10  N15       94.9130  -13.7090   12.9630 N.pl3 1462  4441462    -0.1818
     11  C16       95.8440  -14.7170   13.4270 C.3   1462  4441462     0.2186
     12  C19       95.6830  -14.8820   14.9290 C.3   1462  4441462     0.4174
     13  F22       96.3770  -13.9170   15.5110 F     1462  4441462    -0.1681
     14  F21       96.1290  -16.0930   15.2080 F     1462  4441462    -0.1681
     15  F20       94.4300  -14.8060   15.3420 F     1462  4441462    -0.1681
     16  C23       95.3670  -12.4180   12.6380 C.ar  1462  4441462     0.0691
     17  C24       96.2870  -12.2710   11.6010 C.ar  1462  4441462     0.0159
     18  C25       96.7350  -11.0030   11.2500 C.ar  1462  4441462    -0.0000
     19  C28       94.8920  -11.2880   13.3120 C.ar  1462  4441462     0.0159
     20  C27       95.3400  -10.0150   12.9610 C.ar  1462  4441462    -0.0000
     21  C26       96.2750   -9.8680   11.9300 C.ar  1462  4441462     0.0216
     22  C33       96.7550   -8.4980   11.5380 C.3   1462  4441462     0.3171
     23  C34       95.9820   -8.0690   10.2850 C.3   1462  4441462     0.4344
     24  F36       96.1910   -8.8680    9.2630 F     1462  4441462    -0.1668
     25  F37       94.6750   -8.0830   10.4550 F     1462  4441462    -0.1668
     26  F35       96.4070   -6.8610    9.9870 F     1462  4441462    -0.1668
     27  O42       96.4770   -7.5470   12.5730 O.3   1462  4441462    -0.2033
     28  C38       98.2790   -8.4490   11.3160 C.3   1462  4441462     0.4344
     29  F39       98.9410   -8.9760   12.3210 F     1462  4441462    -0.1668
     30  F40       98.6330   -9.0220   10.1840 F     1462  4441462    -0.1668
     31  F41       98.6650   -7.2100   11.2550 F     1462  4441462    -0.1668
@<TRIPOS>BOND
     1     7     8   ar
     2     7     6   ar
     3     8     9   ar
     4    24    23    1
     5     6     5   ar
     6    26    23    1
     7    30    28    1
     8    23    25    1
     9    23    22    1
    10     9     4   ar
    11     5     4   ar
    12    18    17   ar
    13    18    21   ar
    14     4     2    1
    15    31    28    1
    16    28    22    1
    17    28    29    1
    18    22    21    1
    19    22    27    1
    20    17    16   ar
    21    21    20   ar
    22    16    10    1
    23    16    19   ar
    24     2    10    1
    25     2     1    2
    26     2     3    2
    27    20    19   ar
    28    10    11    1
    29    11    12    1
    30    12    14    1
    31    12    15    1
    32    12    13    1
