@<TRIPOS>MOLECULE
1upx_FSO_A_1.pdb
 10 13 0 0 0
SMALL
GASTEIGER

@<TRIPOS>ATOM
      1 FE5        -3.2980    1.8840   -5.8630 Fe    1546  FSO1546     0.0000
      2 FE6        -1.0320    3.3290   -5.4680 Fe    1546  FSO1546     0.0000
      3 FE7        -3.8990    1.0630   -2.1580 Fe    1546  FSO1546     0.0000
      4 FE8        -0.6190    0.8810   -3.8580 Fe    1546  FSO1546     0.0000
      5  S5        -3.3520    4.1190   -5.7600 S.3   1546  FSO1546     0.0000
      6  S6        -0.9760    1.2840   -6.2000 S.3   1546  FSO1546     0.0000
      7  S7        -0.0610   -1.4280   -4.1910 S.3   1546  FSO1546     0.0000
      8  O8        -0.7410    3.2270   -3.5990 O.3   1546  FSO1546     0.0000
      9  O9        -1.6830    1.4460   -2.1250 O.3   1546  FSO1546     0.0000
     10  O10       -4.0110    0.5550   -4.4270 O.3   1546  FSO1546     0.0000
@<TRIPOS>BOND
     1     6     1    1
     2     6     2    1
     3     6     4    1
     4     1     5    1
     5     1     2    1
     6     1    10    1
     7     5     2    1
     8     2     8    1
     9    10     3    1
    10     7     4    1
    11     4     8    1
    12     4     9    1
    13     3     9    1
