@<TRIPOS>MOLECULE
1uqt_U2F_A_1.pdb
 36 38 0 0 0
SMALL
GASTEIGER

@<TRIPOS>ATOM
      1  C1        36.3790   25.6720   14.6270 C.3   900  U2F900      0.2764
      2  O1        35.0070   24.8690   14.5370 O.3   900  U2F900     -0.2856
      3  PB        34.2710   24.1210   15.7440 P.3   900  U2F900      0.2208
      4  O1B       33.8640   22.7530   15.2620 O.2   900  U2F900     -0.5170
      5  O2B       35.5120   23.7680   16.5300 O.3   900  U2F900     -0.4371
      6  O3A       33.2060   24.5970   16.7910 O.3   900  U2F900     -0.2703
      7  PA        32.0100   25.6020   16.5180 P.3   900  U2F900      0.2189
      8  O1A       32.5400   26.9050   16.2430 O.2   900  U2F900     -0.5170
      9  O2A       31.1450   25.5100   17.7570 O.3   900  U2F900     -0.4371
     10  O5'       31.2750   25.1130   15.1830 O.3   900  U2F900     -0.3112
     11  C5'       30.5580   23.9010   15.2580 C.3   900  U2F900      0.1813
     12  C4'       29.5410   24.0330   14.1200 C.3   900  U2F900      0.1799
     13  O4'       29.0720   22.7500   13.7180 O.3   900  U2F900     -0.3320
     14  C1'       27.6500   22.7250   13.8680 C.3   900  U2F900      0.2401
     15  C2'       27.3390   23.6490   14.9940 C.3   900  U2F900      0.2319
     16  C3'       28.3140   24.7520   14.6540 C.3   900  U2F900      0.2158
     17  O3'       27.7790   25.6050   13.6730 O.3   900  U2F900     -0.2175
     18  O2'       26.0240   24.0710   14.9480 O.3   900  U2F900     -0.2157
     19  N1        27.3570   21.3290   14.1360 N.am  900  U2F900     -0.1766
     20  C6'       26.3200   20.7410   13.4190 C.1   900  U2F900      0.2845
     21  O6'       25.7690   21.3380   12.5390 O.2   900  U2F900     -0.1918
     22  N3        26.0380   19.3940   13.6030 N.2   900  U2F900     -0.2452
     23  C7'       26.7130   18.6600   14.5340 C.1   900  U2F900      0.2182
     24  O7'       26.4160   17.6030   14.6790 O.2   900  U2F900     -0.2085
     25  C8'       27.6950   19.2710   15.3090 C.2   900  U2F900      0.1242
     26  C9'       28.0360   20.6080   15.1020 C.2   900  U2F900      0.0929
     27  C2        36.9880   26.3740   15.7800 C.3   900  U2F900      0.2498
     28  F1        37.4930   25.4170   16.6910 F     900  U2F900     -0.2290
     29  C3        35.9360   27.2310   16.6700 C.3   900  U2F900      0.2220
     30  O3        36.2990   27.7270   18.1130 O.3   900  U2F900     -0.2172
     31  C4        35.4360   28.4380   15.8090 C.3   900  U2F900      0.2146
     32  O4        34.1760   29.0060   16.4980 O.3   900  U2F900     -0.2176
     33  C5        35.0680   27.8640   14.2630 C.3   900  U2F900      0.1835
     34  C6        34.8250   29.1280   13.3320 C.3   900  U2F900      0.2142
     35  O6        35.7690   30.1930   13.4180 O.3   900  U2F900     -0.2176
     36  O5        36.1830   27.0190   13.8600 O.3   900  U2F900     -0.3253
@<TRIPOS>BOND
     1    21    20    2
     2    34    35    1
     3    34    33    1
     4    20    22    2
     5    20    19   am
     6    22    23    2
     7    17    16    1
     8    13    14    1
     9    13    12    1
    10    36    33    1
    11    36     1    1
    12    14    19    1
    13    14    15    1
    14    12    16    1
    15    12    11    1
    16    19    26    1
    17    33    31    1
    18    23    24    2
    19    23    25    1
    20     2     1    1
    21     2     3    1
    22     1    27    1
    23    16    15    1
    24    18    15    1
    25    26    25    2
    26    10    11    1
    27    10     7    1
    28     4     3    2
    29     3     5    1
    30     3     6    1
    31    27    29    1
    32    27    28    1
    33    31    32    1
    34    31    29    1
    35     8     7    2
    36     7     6    1
    37     7     9    1
    38    29    30    1
