@<TRIPOS>MOLECULE
1uqu_UPG_A_1.pdb
 36 38 0 0 0
SMALL
GASTEIGER

@<TRIPOS>ATOM
      1  N1        27.3580   21.6720   14.2570 N.am  1457  UPG1457    -0.1766
      2  C2        26.4120   21.0330   13.4430 C.1   1457  UPG1457     0.2845
      3  N3        26.0620   19.6960   13.6530 N.2   1457  UPG1457    -0.2452
      4  C4        26.6750   18.9870   14.6840 C.1   1457  UPG1457     0.2182
      5  C5        27.6630   19.6040   15.4670 C.2   1457  UPG1457     0.1242
      6  C6        27.9970   20.9540   15.2660 C.2   1457  UPG1457     0.0929
      7  O2        25.8030   21.6930   12.6100 O.2   1457  UPG1457    -0.1918
      8  O4        26.2030   17.8620   14.9750 O.2   1457  UPG1457    -0.2085
      9  C1C       27.6690   23.0500   13.9430 C.3   1457  UPG1457     0.2401
     10  C2C       27.3550   23.9830   15.0540 C.3   1457  UPG1457     0.2319
     11  O2C       26.0140   24.3240   15.0460 O.3   1457  UPG1457    -0.2157
     12  C3C       28.3010   25.1090   14.7470 C.3   1457  UPG1457     0.2158
     13  C4C       29.5380   24.3870   14.2070 C.3   1457  UPG1457     0.1799
     14  O4C       29.0770   23.0920   13.8260 O.3   1457  UPG1457    -0.3320
     15  O3C       27.8040   26.0370   13.7720 O.3   1457  UPG1457    -0.2175
     16  C5C       30.6040   24.2680   15.3040 C.3   1457  UPG1457     0.1813
     17  O5C       31.3670   25.4630   15.2670 O.3   1457  UPG1457    -0.3112
     18  PA        32.0060   25.9050   16.6860 P.3   1457  UPG1457     0.2189
     19  O1A       32.4510   27.2570   16.5390 O.2   1457  UPG1457    -0.5170
     20  O2A       31.0330   25.7150   17.8070 O.3   1457  UPG1457    -0.4371
     21  O3A       33.1600   24.8740   16.9740 O.3   1457  UPG1457    -0.2703
     22  PB        34.3140   24.4170   16.0120 P.3   1457  UPG1457     0.2208
     23  O1B       34.0000   23.1060   15.3700 O.2   1457  UPG1457    -0.5170
     24  O2B       35.5150   24.0440   16.8510 O.3   1457  UPG1457    -0.4371
     25  O3B       35.0510   25.1290   14.8010 O.3   1457  UPG1457    -0.2857
     26  C1'       36.3300   25.9130   14.9100 C.3   1457  UPG1457     0.2742
     27  C2'       36.9080   26.6430   16.0490 C.3   1457  UPG1457     0.2409
     28  C3'       35.8320   27.5180   16.9000 C.3   1457  UPG1457     0.2198
     29  C4'       35.2800   28.6630   15.9790 C.3   1457  UPG1457     0.2144
     30  C5'       34.7850   27.9880   14.5090 C.3   1457  UPG1457     0.1835
     31  C6'       34.6740   29.1810   13.4670 C.3   1457  UPG1457     0.2142
     32  O2'       37.4510   25.6720   16.9380 O.3   1457  UPG1457    -0.2149
     33  O3'       36.2000   28.1830   18.2580 O.3   1457  UPG1457    -0.2174
     34  O4'       34.0670   29.2890   16.7030 O.3   1457  UPG1457    -0.2176
     35  O5'       35.8720   27.1220   14.1070 O.3   1457  UPG1457    -0.3254
     36  O6'       35.6520   30.2130   13.6400 O.3   1457  UPG1457    -0.2176
@<TRIPOS>BOND
     1     7     2    2
     2     2     3    2
     3     2     1   am
     4    31    36    1
     5    31    30    1
     6     3     4    2
     7    15    12    1
     8    14     9    1
     9    14    13    1
    10     9     1    1
    11     9    10    1
    12    35    30    1
    13    35    26    1
    14    13    12    1
    15    13    16    1
    16     1     6    1
    17    30    29    1
    18     4     8    2
    19     4     5    1
    20    12    10    1
    21    25    26    1
    22    25    22    1
    23    26    27    1
    24    11    10    1
    25     6     5    2
    26    17    16    1
    27    17    18    1
    28    23    22    2
    29    29    34    1
    30    29    28    1
    31    22    24    1
    32    22    21    1
    33    27    28    1
    34    27    32    1
    35    19    18    2
    36    18    21    1
    37    18    20    1
    38    28    33    1
