@<TRIPOS>MOLECULE
1uqx_MMA_A_1.pdb
 13 13 0 0 0
SMALL
GASTEIGER

@<TRIPOS>ATOM
      1  C1       -12.8770   16.7330   16.0140 C.3   1116  MMA1116     0.2695
      2  C2       -12.6300   15.5740   15.0150 C.3   1116  MMA1116     0.2406
      3  C3       -12.0070   14.4440   15.8510 C.3   1116  MMA1116     0.2198
      4  C4       -10.7720   14.9230   16.6360 C.3   1116  MMA1116     0.2144
      5  C5       -11.2020   16.1360   17.5110 C.3   1116  MMA1116     0.1835
      6  C6       -10.0590   16.7130   18.3720 C.3   1116  MMA1116     0.2142
      7  C7       -14.4530   17.6810   17.5680 C.3   1116  MMA1116     0.1769
      8  O1       -14.0330   16.4930   16.8120 O.3   1116  MMA1116    -0.3259
      9  O2       -11.7870   15.9560   13.9390 O.3   1116  MMA1116    -0.2149
     10  O3       -11.7040   13.4050   14.9390 O.3   1116  MMA1116    -0.2174
     11  O4       -10.2610   13.7730   17.3190 O.3   1116  MMA1116    -0.2176
     12  O5       -11.7160   17.1720   16.6770 O.3   1116  MMA1116    -0.3256
     13  O6        -9.0540   17.1990   17.5070 O.3   1116  MMA1116    -0.2176
@<TRIPOS>BOND
     1     9     2    1
     2    10     3    1
     3     2     3    1
     4     2     1    1
     5     3     4    1
     6     1    12    1
     7     1     8    1
     8     4    11    1
     9     4     5    1
    10    12     5    1
    11     8     7    1
    12    13     6    1
    13     5     6    1
