@<TRIPOS>MOLECULE
1uqy_XYP_A_4.pdb
 10 10 0 0 0
SMALL
GASTEIGER

@<TRIPOS>ATOM
      1  O4A       -1.9930   20.7610   31.3130 O.3   1377  XYP1377    -0.1869
      2  C1B       -2.9650   21.0360   30.3160 C.3   1377  XYP1377     0.3024
      3  C2B       -3.5270   22.4240   30.5000 C.3   1377  XYP1377     0.2434
      4  C3B       -4.3690   22.8130   29.2880 C.3   1377  XYP1377     0.2199
      5  C4B       -3.5710   22.5980   28.0020 C.3   1377  XYP1377     0.2143
      6  C5B       -3.1470   21.1390   27.9800 C.3   1377  XYP1377     0.1804
      7  O2B       -4.3830   22.4710   31.6310 O.3   1377  XYP1377    -0.2148
      8  O3B       -4.8520   24.1320   29.4770 O.3   1377  XYP1377    -0.2174
      9  O4B       -4.3560   22.8310   26.8470 O.3   1377  XYP1377    -0.2176
     10  O5B       -2.3410   20.9050   29.1210 O.3   1377  XYP1377    -0.3237
@<TRIPOS>BOND
     1     9     5    1
     2     6     5    1
     3     6    10    1
     4     5     4    1
     5    10     2    1
     6     4     8    1
     7     4     3    1
     8     2     3    1
     9     2     1    1
    10     3     7    1
