@<TRIPOS>MOLECULE
1uqy_XYS_A_1.pdb
 10 10 0 0 0
SMALL
GASTEIGER

@<TRIPOS>ATOM
      1  C1         2.3880   33.4140   16.2420 C.3   1373  XYS1373     0.3024
      2  C2         2.3040   34.4440   15.1200 C.3   1373  XYS1373     0.2434
      3  C3         3.0080   35.7160   15.5090 C.3   1373  XYS1373     0.2199
      4  C4         2.3940   36.2090   16.8130 C.3   1373  XYS1373     0.2143
      5  C5         2.6390   35.1700   17.8740 C.3   1373  XYS1373     0.1804
      6  O1         3.6970   32.8890   16.3190 O.3   1373  XYS1373    -0.1869
      7  O2         2.8540   33.8340   13.9560 O.3   1373  XYS1373    -0.2148
      8  O3         2.8390   36.7140   14.4700 O.3   1373  XYS1373    -0.2174
      9  O4         3.1230   37.3590   17.1690 O.3   1373  XYS1373    -0.2176
     10  O5         2.1150   33.9160   17.4530 O.3   1373  XYS1373    -0.3237
@<TRIPOS>BOND
     1     7     2    1
     2     8     3    1
     3     2     3    1
     4     2     1    1
     5     3     4    1
     6     1     6    1
     7     1    10    1
     8     4     9    1
     9     4     5    1
    10    10     5    1
