@<TRIPOS>MOLECULE
1uqz_GCV_A_1.pdb
 13 13 0 0 0
SMALL
GASTEIGER

@<TRIPOS>ATOM
      1  C7        -9.5100   34.7630   17.9060 C.3   1377  GCV1377     0.1742
      2  C1        -5.5040   31.8560   19.9200 C.3   1377  GCV1377     0.1783
      3  C2        -6.7570   31.0650   19.5050 C.3   1377  GCV1377     0.2140
      4  C3        -7.5350   31.8260   18.4180 C.3   1377  GCV1377     0.2145
      5  C4        -7.8220   33.2810   18.8480 C.3   1377  GCV1377     0.1862
      6  C5        -6.5110   33.9490   19.4010 C.3   1377  GCV1377     0.2479
      7  C6        -6.6770   35.3610   20.0410 C.2   1377  GCV1377     0.3939
      8  O2        -6.3820   29.7660   19.0870 O.3   1377  GCV1377    -0.2176
      9  O3        -8.7470   31.1390   18.1130 O.3   1377  GCV1377    -0.2176
     10  O4        -8.3900   33.9170   17.6960 O.3   1377  GCV1377    -0.3478
     11  O5        -5.8770   33.1310   20.3840 O.3   1377  GCV1377    -0.3404
     12  O6A       -7.2490   35.4900   21.1360 O.co2 1377  GCV1377    -0.2429
     13  O6B       -6.1940   36.3110   19.4180 O.co2 1377  GCV1377    -0.2429
@<TRIPOS>BOND
     1    10     1    1
     2    10     5    1
     3     9     4    1
     4     4     5    1
     5     4     3    1
     6     5     6    1
     7     8     3    1
     8     6     7    1
     9     6    11    1
    10    13     7   ar
    11     3     2    1
    12     2    11    1
    13     7    12   ar
