@<TRIPOS>MOLECULE
1uqz_XYS_A_1.pdb
 10 10 0 0 0
SMALL
GASTEIGER

@<TRIPOS>ATOM
      1  C1         2.3130   33.6730   16.3760 C.3   1378  XYS1378     0.3024
      2  C2         2.2460   34.6920   15.2550 C.3   1378  XYS1378     0.2434
      3  C3         3.0360   35.9320   15.6380 C.3   1378  XYS1378     0.2199
      4  C4         2.4820   36.4670   16.9540 C.3   1378  XYS1378     0.2143
      5  C5         2.6420   35.3780   18.0060 C.3   1378  XYS1378     0.1804
      6  O1         3.6220   33.1650   16.4730 O.3   1378  XYS1378    -0.1869
      7  O2         2.7790   34.1290   14.0500 O.3   1378  XYS1378    -0.2148
      8  O3         2.8510   36.9560   14.6670 O.3   1378  XYS1378    -0.2174
      9  O4         3.1990   37.6480   17.2870 O.3   1378  XYS1378    -0.2176
     10  O5         1.9230   34.2150   17.5870 O.3   1378  XYS1378    -0.3237
@<TRIPOS>BOND
     1     7     2    1
     2     8     3    1
     3     2     3    1
     4     2     1    1
     5     3     4    1
     6     1     6    1
     7     1    10    1
     8     4     9    1
     9     4     5    1
    10    10     5    1
