@<TRIPOS>MOLECULE
1uqz_XYP_A_1.pdb
 10 10 0 0 0
SMALL
GASTEIGER

@<TRIPOS>ATOM
      1  O4A       -4.0670   22.2210   26.7030 O.3   1374  XYP1374    -0.1869
      2  C1B       -3.4880   22.9720   25.6530 C.3   1374  XYP1374     0.3024
      3  C2B       -4.4720   23.1930   24.5350 C.3   1374  XYP1374     0.2434
      4  C3B       -3.7370   23.9420   23.4230 C.3   1374  XYP1374     0.2199
      5  C4B       -3.0740   25.2060   23.9600 C.3   1374  XYP1374     0.2143
      6  C5B       -2.2350   24.8750   25.1960 C.3   1374  XYP1374     0.1804
      7  O2B       -4.9420   21.9520   24.0420 O.3   1374  XYP1374    -0.2148
      8  O3B       -4.6390   24.2750   22.4010 O.3   1374  XYP1374    -0.2174
      9  O4B       -2.2400   25.7590   22.9580 O.3   1374  XYP1374    -0.2176
     10  O5B       -3.0310   24.1620   26.1350 O.3   1374  XYP1374    -0.3237
@<TRIPOS>BOND
     1     8     4    1
     2     9     5    1
     3     4     5    1
     4     4     3    1
     5     5     6    1
     6     7     3    1
     7     3     2    1
     8     6    10    1
     9     2    10    1
    10     2     1    1
