@<TRIPOS>MOLECULE
1ur0_B4G_A_1.pdb
 34 36 0 0 0
SMALL
GASTEIGER

@<TRIPOS>ATOM
      1  O1        17.2160   -4.9570   36.6370 O.3   1401  B4G1401    -0.1869
      2  O2        15.6360   -6.7770   38.1220 O.3   1401  B4G1401    -0.2148
      3  O3        16.6840   -7.5710   40.6530 O.3   1401  B4G1401    -0.2175
      4  O4        19.3360   -6.7680   40.1620 O.3   1401  B4G1401    -0.3257
      5  O5        18.5250   -4.4840   38.4960 O.3   1401  B4G1401    -0.3237
      6  CJ1       19.8180   -7.5380   41.2460 C.3   1401  B4G1401     0.2695
      7  CJ2       20.1150   -8.9570   40.7750 C.3   1401  B4G1401     0.2404
      8  CJ3       20.6490   -9.7380   41.9750 C.3   1401  B4G1401     0.2167
      9  CJ4       21.9420   -9.0780   42.4640 C.3   1401  B4G1401     0.1804
     10  CJ5       21.6420   -7.6120   42.8840 C.3   1401  B4G1401     0.1803
     11  CJ6       22.8810   -6.8520   43.3680 C.3   1401  B4G1401     0.2141
     12  OJ5       21.0370   -6.8980   41.7440 O.3   1401  B4G1401    -0.3257
     13  OJ2       18.8990   -9.5470   40.3130 O.3   1401  B4G1401    -0.2149
     14  OJ3       20.9440  -11.0880   41.5760 O.3   1401  B4G1401    -0.2175
     15  OJ4       22.9310   -9.1040   41.3800 O.3   1401  B4G1401    -0.3257
     16  OJ6       23.6620   -6.4600   42.2430 O.3   1401  B4G1401    -0.2176
     17  CQ1       24.1190   -9.8020   41.7320 C.3   1401  B4G1401     0.2695
     18  CQ2       24.6720  -10.5590   40.5140 C.3   1401  B4G1401     0.2406
     19  CQ3       25.9530  -11.2610   40.9660 C.3   1401  B4G1401     0.2198
     20  CQ4       26.9620  -10.1800   41.4250 C.3   1401  B4G1401     0.2144
     21  CQ5       26.3700   -9.3890   42.5970 C.3   1401  B4G1401     0.1835
     22  CQ6       27.3050   -8.2730   43.0690 C.3   1401  B4G1401     0.2142
     23  OQ5       25.0900   -8.8060   42.1870 O.3   1401  B4G1401    -0.3256
     24  OQ2       23.7180  -11.5470   40.0840 O.3   1401  B4G1401    -0.2149
     25  OQ3       26.5120  -11.9890   39.8530 O.3   1401  B4G1401    -0.2174
     26  OQ4       27.1950   -9.2510   40.3540 O.3   1401  B4G1401    -0.2176
     27  OQ6       26.5240   -7.1770   43.5670 O.3   1401  B4G1401    -0.2176
     28  C1A       17.2160   -4.9320   38.0230 C.3   1401  B4G1401     0.3023
     29  C2A       16.9310   -6.3420   38.5680 C.3   1401  B4G1401     0.2433
     30  C3A       16.9480   -6.2680   40.0980 C.3   1401  B4G1401     0.2168
     31  C4A       18.3240   -5.8000   40.5670 C.3   1401  B4G1401     0.1804
     32  C5A       18.6340   -4.4160   39.9610 C.3   1401  B4G1401     0.1804
     33  C6A       20.0220   -3.9090   40.3480 C.3   1401  B4G1401     0.2141
     34  O6        20.4230   -2.9060   39.4160 O.3   1401  B4G1401    -0.2176
@<TRIPOS>BOND
     1     1    28    1
     2    28     5    1
     3    28    29    1
     4     2    29    1
     5     5    32    1
     6    29    30    1
     7    34    33    1
     8    25    19    1
     9    32    33    1
    10    32    31    1
    11    24    18    1
    12    30    31    1
    13    30     3    1
    14     4    31    1
    15     4     6    1
    16    13     7    1
    17    26    20    1
    18    18    19    1
    19    18    17    1
    20     7     6    1
    21     7     8    1
    22    19    20    1
    23     6    12    1
    24    15    17    1
    25    15     9    1
    26    20    21    1
    27    14     8    1
    28    17    23    1
    29    12    10    1
    30     8     9    1
    31    23    21    1
    32    16    11    1
    33     9    10    1
    34    21    22    1
    35    10    11    1
    36    22    27    1
