@<TRIPOS>MOLECULE
1ur1_XYS_A_1.pdb
 10 10 0 0 0
SMALL
GASTEIGER

@<TRIPOS>ATOM
      1  C1         2.3960   33.4150   16.4070 C.3   1376  XYS1376     0.3024
      2  C2         2.3580   34.4210   15.2650 C.3   1376  XYS1376     0.2434
      3  C3         3.1000   35.6620   15.6830 C.3   1376  XYS1376     0.2199
      4  C4         2.5250   36.1710   16.9840 C.3   1376  XYS1376     0.2143
      5  C5         2.6480   35.0830   18.0570 C.3   1376  XYS1376     0.1804
      6  O1         3.6840   32.8690   16.5790 O.3   1376  XYS1376    -0.1869
      7  O2         2.9040   33.7950   14.1050 O.3   1376  XYS1376    -0.2148
      8  O3         2.9890   36.6980   14.6950 O.3   1376  XYS1376    -0.2174
      9  O4         3.2190   37.3260   17.3510 O.3   1376  XYS1376    -0.2176
     10  O5         1.9320   33.9470   17.6120 O.3   1376  XYS1376    -0.3237
@<TRIPOS>BOND
     1     7     2    1
     2     8     3    1
     3     2     3    1
     4     2     1    1
     5     3     4    1
     6     1     6    1
     7     1    10    1
     8     4     9    1
     9     4     5    1
    10    10     5    1
