@<TRIPOS>MOLECULE
1ur2_XYS_A_1.pdb
 10 10 0 0 0
SMALL
GASTEIGER

@<TRIPOS>ATOM
      1  C1         2.2810   33.3170   16.3080 C.3   1379  XYS1379     0.3024
      2  C2         2.2320   34.3360   15.1890 C.3   1379  XYS1379     0.2434
      3  C3         2.9790   35.5890   15.5760 C.3   1379  XYS1379     0.2199
      4  C4         2.4520   36.0670   16.9240 C.3   1379  XYS1379     0.2143
      5  C5         2.6590   34.9640   17.9510 C.3   1379  XYS1379     0.1804
      6  O1         3.5650   32.7480   16.4170 O.3   1379  XYS1379    -0.1869
      7  O2         2.8240   33.8030   14.0070 O.3   1379  XYS1379    -0.2148
      8  O3         2.8220   36.6130   14.5840 O.3   1379  XYS1379    -0.2174
      9  O4         3.1900   37.2050   17.2720 O.3   1379  XYS1379    -0.2176
     10  O5         1.9040   33.8340   17.5320 O.3   1379  XYS1379    -0.3237
@<TRIPOS>BOND
     1     7     2    1
     2     8     3    1
     3     2     3    1
     4     2     1    1
     5     3     4    1
     6     1     6    1
     7     1    10    1
     8     4     9    1
     9     4     5    1
    10    10     5    1
