@<TRIPOS>MOLECULE
1ur2_XYP_A_1.pdb
 10 10 0 0 0
SMALL
GASTEIGER

@<TRIPOS>ATOM
      1  O4A       -3.9800   21.8890   26.5090 O.3   1376  XYP1376    -0.1869
      2  C1B       -3.4380   22.6410   25.4420 C.3   1376  XYP1376     0.3024
      3  C2B       -4.4630   22.8740   24.3600 C.3   1376  XYP1376     0.2434
      4  C3B       -3.7550   23.5870   23.2140 C.3   1376  XYP1376     0.2199
      5  C4B       -3.1480   24.8800   23.7380 C.3   1376  XYP1376     0.2143
      6  C5B       -2.2440   24.5470   24.9290 C.3   1376  XYP1376     0.1804
      7  O2B       -4.9980   21.6560   23.8850 O.3   1376  XYP1376    -0.2148
      8  O3B       -4.6570   23.8710   22.1760 O.3   1376  XYP1376    -0.2174
      9  O4B       -2.4240   25.4820   22.6860 O.3   1376  XYP1376    -0.2176
     10  O5B       -3.0040   23.8430   25.9020 O.3   1376  XYP1376    -0.3237
@<TRIPOS>BOND
     1     8     4    1
     2     9     5    1
     3     4     5    1
     4     4     3    1
     5     5     6    1
     6     7     3    1
     7     3     2    1
     8     6    10    1
     9     2    10    1
    10     2     1    1
