@<TRIPOS>MOLECULE
1ur4_B2G_A_1.pdb
 23 24 0 0 0
SMALL
GASTEIGER

@<TRIPOS>ATOM
      1  C1A       16.1860   -4.9580   38.4050 C.3   1399  B2G1399     0.3023
      2  C2A       15.8740   -6.3210   39.0350 C.3   1399  B2G1399     0.2433
      3  C3A       15.9350   -6.1730   40.5550 C.3   1399  B2G1399     0.2168
      4  C4A       17.3370   -5.7110   40.9660 C.3   1399  B2G1399     0.1804
      5  C5A       17.6460   -4.3560   40.2890 C.3   1399  B2G1399     0.1804
      6  C6A       19.0500   -3.8460   40.6280 C.3   1399  B2G1399     0.2141
      7  O2A       14.5570   -6.7370   38.6450 O.3   1399  B2G1399    -0.2148
      8  O3A       15.6520   -7.4460   41.1650 O.3   1399  B2G1399    -0.2175
      9  O4A       18.3110   -6.7000   40.5360 O.3   1399  B2G1399    -0.3257
     10  O5A       17.5160   -4.5130   38.8270 O.3   1399  B2G1399    -0.3237
     11  O6A       19.3970   -2.8010   39.7220 O.3   1399  B2G1399    -0.2176
     12  C1B       18.9280   -7.3450   41.6210 C.3   1399  B2G1399     0.2695
     13  C2B       19.1090   -8.8280   41.3070 C.3   1399  B2G1399     0.2406
     14  C3B       19.8050   -9.4600   42.5200 C.3   1399  B2G1399     0.2198
     15  C4B       21.1680   -8.7950   42.7140 C.3   1399  B2G1399     0.2144
     16  C5B       20.9570   -7.2840   42.9460 C.3   1399  B2G1399     0.1835
     17  C6B       22.2680   -6.5320   43.1120 C.3   1399  B2G1399     0.2142
     18  O2B       17.8180   -9.4220   41.1300 O.3   1399  B2G1399    -0.2149
     19  O3B       20.0140  -10.8660   42.2880 O.3   1399  B2G1399    -0.2174
     20  O4B       21.9770   -8.9910   41.5240 O.3   1399  B2G1399    -0.2176
     21  O5B       20.2130   -6.7070   41.8230 O.3   1399  B2G1399    -0.3256
     22  O6B       22.8190   -6.8560   44.3950 O.3   1399  B2G1399    -0.2176
     23  O1A       16.1670   -5.0740   37.0250 O.3   1399  B2G1399    -0.1869
@<TRIPOS>BOND
     1    23     1    1
     2     1    10    1
     3     1     2    1
     4     7     2    1
     5    10     5    1
     6     2     3    1
     7    11     6    1
     8     5     6    1
     9     5     4    1
    10     9     4    1
    11     9    12    1
    12     3     4    1
    13     3     8    1
    14    18    13    1
    15    13    12    1
    16    13    14    1
    17    20    15    1
    18    12    21    1
    19    21    16    1
    20    19    14    1
    21    14    15    1
    22    15    16    1
    23    16    17    1
    24    17    22    1
