@<TRIPOS>MOLECULE
1ur5_NAD_A_1.pdb
 44 48 0 0 0
SMALL
GASTEIGER

@<TRIPOS>ATOM
      1  PA        61.2420   66.2700   61.2980 P.3   1308  NAD1308     0.2189
      2  O1A       60.3080   67.3850   61.1080 O.2   1308  NAD1308    -0.5170
      3  O2A       62.2720   66.2940   62.4370 O.3   1308  NAD1308    -0.4371
      4  O5B       62.1730   66.0110   60.0030 O.3   1308  NAD1308    -0.3112
      5  C5B       61.6430   65.9710   58.6290 C.3   1308  NAD1308     0.1813
      6  C4B       62.7280   66.5920   57.7700 C.3   1308  NAD1308     0.1821
      7  O4B       62.1860   66.5480   56.3710 O.3   1308  NAD1308    -0.3135
      8  C3B       62.9830   68.1320   57.9830 C.3   1308  NAD1308     0.2184
      9  O3B       64.4420   68.3200   58.3040 O.3   1308  NAD1308    -0.2174
     10  C2B       62.5930   68.8570   56.7310 C.3   1308  NAD1308     0.2570
     11  O2B       63.1880   70.0060   56.3590 O.3   1308  NAD1308    -0.2130
     12  C1B       62.7130   67.6740   55.7220 C.3   1308  NAD1308     0.3186
     13  N9A       61.9050   67.8750   54.5420 N.pl3 1308  NAD1308    -0.1439
     14  C8A       60.6540   68.3580   54.2590 C.3   1308  NAD1308     0.3377
     15  N7A       60.2990   68.3610   52.9800 N.2   1308  NAD1308    -0.2095
     16  C5A       61.3510   67.8530   52.3210 C.2   1308  NAD1308     0.2526
     17  C6A       61.5840   67.5930   50.8590 C.2   1308  NAD1308     0.4393
     18  N6A       60.7080   67.8490   49.9230 N.pl3 1308  NAD1308     0.2180
     19  N1A       62.8190   67.0570   50.6330 N.2   1308  NAD1308     0.0021
     20  C2A       63.8000   66.7490   51.4930 C.3   1308  NAD1308     0.5254
     21  N3A       63.6310   66.9770   52.8900 N.2   1308  NAD1308    -0.0055
     22  C4A       62.3840   67.5310   53.2400 C.2   1308  NAD1308     0.3518
     23  O3        60.4850   64.9350   61.4540 O.3   1308  NAD1308    -0.2703
     24  PN        60.6020   63.5300   62.1010 P.3   1308  NAD1308     0.2189
     25  O1N       60.1560   63.5850   63.5070 O.3   1308  NAD1308    -0.4371
     26  O2N       62.0140   63.0580   61.8860 O.2   1308  NAD1308    -0.5170
     27  O5D       59.5500   62.5150   61.3980 O.3   1308  NAD1308    -0.3112
     28  C5D       59.8130   62.3100   59.9470 C.3   1308  NAD1308     0.1813
     29  C4D       58.6170   61.6050   59.3560 C.3   1308  NAD1308     0.1799
     30  O4D       58.4720   60.2590   60.0000 O.3   1308  NAD1308    -0.3327
     31  C3D       57.1990   62.2390   59.6000 C.3   1308  NAD1308     0.2158
     32  O3D       56.3800   62.0910   58.4190 O.3   1308  NAD1308    -0.2175
     33  C2D       56.5710   61.5080   60.7890 C.3   1308  NAD1308     0.2309
     34  O2D       55.1700   61.5620   60.8890 O.3   1308  NAD1308    -0.2158
     35  C1D       57.1200   60.0610   60.5770 C.3   1308  NAD1308     0.2263
     36  N1N       57.2840   59.1520   61.7720 N.pl3 1308  NAD1308    -0.2787
     37  C2N       56.7910   57.8570   61.7600 C.3   1308  NAD1308     0.1244
     38  C3N       56.9670   57.0870   62.8710 C.2   1308  NAD1308     0.0544
     39  C7N       56.4300   55.6560   62.8770 C.2   1308  NAD1308     0.2818
     40  O7N       55.8300   55.0950   61.9670 O.2   1308  NAD1308    -0.2670
     41  N7N       56.6980   54.9880   64.1040 N.am  1308  NAD1308    -0.0839
     42  C4N       57.6580   57.5660   64.0920 C.2   1308  NAD1308     0.0033
     43  C5N       58.1200   58.8990   63.9950 C.2   1308  NAD1308     0.0157
     44  C6N       57.9750   59.6990   62.9270 C.2   1308  NAD1308     0.0633
@<TRIPOS>BOND
     1    18    17    1
     2    19    17    2
     3    19    20    1
     4    17    16    1
     5    20    21    1
     6    16    15    2
     7    16    22    1
     8    21    22    2
     9    15    14    1
    10    22    13    1
    11    14    13    1
    12    13    12    1
    13    12     7    1
    14    12    10    1
    15    11    10    1
    16     7     6    1
    17    10     8    1
    18     6     8    1
    19     6     5    1
    20     8     9    1
    21    32    31    1
    22     5     4    1
    23    29    31    1
    24    29    28    1
    25    29    30    1
    26    31    33    1
    27    28    27    1
    28    30    35    1
    29     4     1    1
    30    35    33    1
    31    35    36    1
    32    33    34    1
    33     2     1    2
    34     1    23    1
    35     1     3    1
    36    27    24    1
    37    23    24    1
    38    37    36    1
    39    37    38    1
    40    36    44    1
    41    26    24    2
    42    40    39    2
    43    24    25    1
    44    38    39    1
    45    38    42    2
    46    39    41   am
    47    44    43    2
    48    43    42    1
