@<TRIPOS>MOLECULE
1ur8_GDL_A_1.pdb
 15 15 0 0 0
SMALL
GASTEIGER

@<TRIPOS>ATOM
      1  C1        19.3020   44.0130  100.9720 C.2   2502  GDL2502     0.3397
      2  C2        17.8070   44.2130  101.2530 C.3   2502  GDL2502     0.2261
      3  C3        17.2200   43.1150  102.1470 C.3   2502  GDL2502     0.2164
      4  C4        17.9800   41.7880  102.0480 C.3   2502  GDL2502     0.2267
      5  C5        19.4270   42.1140  102.3840 C.3   2502  GDL2502     0.2343
      6  C6        20.2540   40.8310  102.5090 C.3   2502  GDL2502     0.2281
      7  C7        18.4900   45.9350  102.8550 C.2   2502  GDL2502     0.2424
      8  C8        18.3400   47.3270  103.4730 C.3   2502  GDL2502     0.0964
      9  N1        17.6350   45.5150  101.9220 N.am  2502  GDL2502    -0.1930
     10  O1        19.9860   44.9950  100.3230 O.2   2502  GDL2502    -0.2481
     11  O3        15.8660   42.9040  101.7350 O.3   2502  GDL2502    -0.2178
     12  O4        17.5120   40.8650  103.0460 O.3   2502  GDL2502    -0.2163
     13  O5        19.9720   42.8700  101.2910 O.3   2502  GDL2502    -0.4455
     14  O6        20.2630   40.1610  101.2450 O.3   2502  GDL2502    -0.2163
     15  O7        19.4420   45.2300  103.1930 O.2   2502  GDL2502    -0.2733
@<TRIPOS>BOND
     1    10     1    2
     2     1     2    1
     3     1    13    1
     4    14     6    1
     5     2     9    1
     6     2     3    1
     7    13     5    1
     8    11     3    1
     9     9     7   am
    10     4     3    1
    11     4     5    1
    12     4    12    1
    13     5     6    1
    14     7    15    2
    15     7     8    1
