@<TRIPOS>MOLECULE
1ur9_PHJ_A_1.pdb
 11 11 0 0 0
SMALL
GASTEIGER

@<TRIPOS>ATOM
      1  N         21.1270   42.7310   97.3260 N.am  2503  PHJ2503    -0.1410
      2  C         20.1310   43.4750   97.8450 C.2   2503  PHJ2503     0.4460
      3  O         20.1240   43.6410   99.1750 O.3   2503  PHJ2503    -0.3105
      4  OXT       19.3190   44.1150   97.1310 O.2   2503  PHJ2503    -0.2223
      5  C1        21.2470   42.3730   96.0340 C.ar  2503  PHJ2503     0.0768
      6  C2        22.2990   41.5050   95.6810 C.ar  2503  PHJ2503     0.0167
      7  C3        22.3820   40.9740   94.3800 C.ar  2503  PHJ2503     0.0013
      8  C4        21.4110   41.3140   93.4240 C.ar  2503  PHJ2503     0.0001
      9  C5        20.3620   42.1910   93.7660 C.ar  2503  PHJ2503     0.0013
     10  C6        20.2790   42.7310   95.0630 C.ar  2503  PHJ2503     0.0167
     11  N2        18.9730   44.2340   99.5750 N.3   2503  PHJ2503     0.1148
@<TRIPOS>BOND
     1     8     9   ar
     2     8     7   ar
     3     9    10   ar
     4     7     6   ar
     5    10     5   ar
     6     6     5   ar
     7     5     1    1
     8     4     2    2
     9     1     2   am
    10     2     3    1
    11     3    11    1
