@<TRIPOS>MOLECULE
1ur9_GDL_A_1.pdb
 14 14 0 0 0
SMALL
GASTEIGER

@<TRIPOS>ATOM
      1  C1        18.7000   44.0530  100.8360 C.3   2502  GDL2502     0.1665
      2  C2        17.3300   44.4710  101.3990 C.3   2502  GDL2502     0.1576
      3  C3        16.7770   43.4160  102.3960 C.3   2502  GDL2502     0.2069
      4  C4        17.6320   42.1160  102.3970 C.3   2502  GDL2502     0.2134
      5  C5        19.0820   42.5210  102.6480 C.3   2502  GDL2502     0.1809
      6  C6        19.9650   41.2660  102.7950 C.3   2502  GDL2502     0.2141
      7  C7        18.4210   46.2680  102.7850 C.2   2502  GDL2502     0.2420
      8  C8        18.3690   47.6980  103.3370 C.3   2502  GDL2502     0.0964
      9  N1        17.3930   45.8250  102.0330 N.am  2502  GDL2502    -0.2019
     10  O3        15.4320   43.0940  101.9960 O.3   2502  GDL2502    -0.2184
     11  O4        17.2870   41.2480  103.4730 O.3   2502  GDL2502    -0.2176
     12  O5        19.6050   43.3060  101.5520 O.3   2502  GDL2502    -0.3489
     13  O6        19.9650   40.5260  101.5540 O.3   2502  GDL2502    -0.2176
     14  O7        19.4070   45.5620  103.0080 O.2   2502  GDL2502    -0.2733
@<TRIPOS>BOND
     1     1     2    1
     2     1    12    1
     3     2     9    1
     4     2     3    1
     5    12     5    1
     6    13     6    1
     7    10     3    1
     8     9     7   am
     9     3     4    1
    10     4     5    1
    11     4    11    1
    12     5     6    1
    13     7    14    2
    14     7     8    1
