@<TRIPOS>MOLECULE
1urc_III_E_1.pdb
 46 47 0 0 0
SMALL
GASTEIGER

@<TRIPOS>ATOM
      1  C         35.3960   18.7820   -2.0240 C.2   500  ACE500      0.2423
      2  O         34.2160   18.5140   -2.2200 O.2   500  ACE500     -0.2733
      3  CH3       36.4040   17.6870   -1.7060 C.3   500  ACE500      0.0964
      4  N         35.8140   20.0360   -1.9690 N.am  501  ARG501     -0.1978
      5  CA        37.2040   20.4270   -1.8800 C.3   501  ARG501      0.1729
      6  C         37.4680   21.4440   -0.7980 C.2   501  ARG501      0.2622
      7  O         36.9090   22.5280   -0.6940 O.2   501  ARG501     -0.2715
      8  CB        37.4910   21.0380   -3.2630 C.3   501  ARG501      0.0348
      9  CG        38.9500   21.3700   -3.4170 C.3   501  ARG501      0.0492
     10  CD        39.3240   21.4400   -4.9050 C.3   501  ARG501      0.2205
     11  NE        40.5590   22.2240   -4.8790 N.pl3 501  ARG501     -0.0865
     12  CZ        40.7030   23.2440   -5.7010 C.cat 501  ARG501      0.5346
     13  NH1       41.8030   23.9950   -5.6050 N.pl3 501  ARG501      0.1354
     14  NH2       39.7450   23.4320   -6.6120 N.pl3 501  ARG501      0.1354
     15  N         38.3650   21.0430    0.0520 N.am  502  LYS502     -0.1887
     16  CA        38.7490   21.9250    1.1170 C.3   502  LYS502      0.2001
     17  C         40.0810   22.5030    0.6640 C.1   502  LYS502      0.1467
     18  O         40.9740   21.7450    0.3110 O.2   502  LYS502     -0.2253
     19  CB        39.0910   21.0460    2.2950 C.3   502  LYS502      0.0388
     20  CG        40.0280   21.8980    3.1590 C.3   502  LYS502      0.0050
     21  CD        39.8950   21.5260    4.6350 C.3   502  LYS502      0.0273
     22  CE        41.2390   20.9560    5.1420 C.3   502  LYS502      0.1376
     23  NZ        42.2900   21.9800    5.0020 N.2   502  LYS502     -0.2046
     24  N         40.1840   23.8200    0.6760 N.2   503  LEU503     -0.1888
     25  CA        41.4040   24.5390    0.2970 C.3   503  LEU503      0.2310
     26  C         42.1710   24.9470    1.5760 C.1   503  LEU503      0.2037
     27  O         41.5770   25.1670    2.6300 O.2   503  LEU503     -0.2122
     28  CB        40.8960   25.8450   -0.3390 C.3   503  LEU503      0.0434
     29  CG        39.9450   25.6300   -1.5470 C.3   503  LEU503      0.0031
     30  CD1       39.4580   27.0200   -1.9170 C.3   503  LEU503      0.0001
     31  CD2       40.5990   25.1090   -2.8200 C.3   503  LEU503      0.0001
     32  N         43.4890   25.0680    1.4840 N.2   504  PHE504     -0.3271
     33  CA        44.3190   25.5470    2.6140 C.2   504  PHE504      0.2075
     34  C         44.5660   24.6400    3.8240 C.1   504  PHE504      0.1785
     35  O         45.6970   24.2050    4.0330 O.2   504  PHE504     -0.2199
     36  CB        44.0670   27.0060    3.0120 C.3   504  PHE504      0.0985
     37  CG        43.7400   27.8260    1.7660 C.ar  504  PHE504     -0.0143
     38  CD1       42.4470   28.3040    1.5410 C.ar  504  PHE504     -0.0038
     39  CD2       44.3890   28.6930   -0.3830 C.ar  504  PHE504     -0.0003
     40  CE1       42.1290   28.9890    0.3620 C.ar  504  PHE504     -0.0003
     41  CE2       44.7230   28.0190    0.7970 C.ar  504  PHE504     -0.0038
     42  CZ        43.1150   29.2220   -0.5940 C.ar  504  PHE504     -0.0000
     43  N         43.5770   24.3810    4.6660 N.2   505  GLY505     -0.1823
     44  CA        43.9330   23.5470    5.8210 C.3   505  GLY505      0.2581
     45  C         42.8750   22.4960    6.0800 C.1   505  GLY505      0.1524
     46  O         42.6180   22.1620    7.2370 O.2   505  GLY505     -0.2250
@<TRIPOS>BOND
     1    14    12    1
     2    12    13    1
     3    12    11    2
     4    10    11    1
     5    10     9    1
     6     9     8    1
     7     8     5    1
     8    31    29    1
     9     2     1    2
    10     1     4   am
    11     1     3    1
    12     4     5    1
    13    30    29    1
    14     5     6    1
    15    29    28    1
    16     6     7    2
    17     6    15   am
    18    42    39   ar
    19    42    40   ar
    20    39    41   ar
    21    28    25    1
    22    15    16    1
    23    25    24    1
    24    25    26    1
    25    18    17    2
    26    40    38   ar
    27    17    24    2
    28    17    16    1
    29    41    37   ar
    30    16    19    1
    31    32    26    2
    32    32    33    2
    33    38    37   ar
    34    26    27    2
    35    37    36    1
    36    19    20    1
    37    33    36    1
    38    33    34    1
    39    20    21    1
    40    34    35    2
    41    34    43    2
    42    21    22    1
    43    43    44    1
    44    23    22    1
    45    23    45    2
    46    44    45    1
    47    45    46    2
