@<TRIPOS>MOLECULE
1urd_MLR_A_1.pdb
 34 36 0 0 0
SMALL
GASTEIGER

@<TRIPOS>ATOM
      1  C1A        1.9020    5.3920   33.8420 C.3   1400  MLR1400     0.3023
      2  C2A        1.6470    5.3060   35.3330 C.3   1400  MLR1400     0.2433
      3  C3A        2.8790    4.8240   36.0600 C.3   1400  MLR1400     0.2168
      4  C4A        3.1980    3.4030   35.5030 C.3   1400  MLR1400     0.1804
      5  C5A        3.5210    3.5540   33.9640 C.3   1400  MLR1400     0.1804
      6  C6A        3.8260    2.2570   33.2250 C.3   1400  MLR1400     0.2141
      7  O1X        2.9020    6.3630   33.5310 O.3   1400  MLR1400    -0.1869
      8  O2A        1.2130    6.5960   35.7440 O.3   1400  MLR1400    -0.2148
      9  O3A        2.5760    4.7530   37.4700 O.3   1400  MLR1400    -0.2175
     10  O4A        4.3670    2.9920   36.1760 O.3   1400  MLR1400    -0.3257
     11  O5A        2.3900    4.1520   33.3200 O.3   1400  MLR1400    -0.3237
     12  O6A        4.7900    2.5250   32.1760 O.3   1400  MLR1400    -0.2176
     13  C1B        4.1770    1.5290   36.7900 C.3   1400  MLR1400     0.2695
     14  C2B        4.3830    1.5500   38.3330 C.3   1400  MLR1400     0.2404
     15  C3B        5.8080    2.0460   38.6280 C.3   1400  MLR1400     0.2167
     16  C4B        6.8150    1.1430   37.9570 C.3   1400  MLR1400     0.1804
     17  C5B        6.5780    1.1030   36.4090 C.3   1400  MLR1400     0.1803
     18  C6B        7.5770    0.1360   35.7390 C.3   1400  MLR1400     0.2141
     19  O2B        3.4200    2.4120   38.9400 O.3   1400  MLR1400    -0.2149
     20  O3B        6.0370    2.0380   40.0640 O.3   1400  MLR1400    -0.2175
     21  O4B        8.1290    1.6700   38.2250 O.3   1400  MLR1400    -0.3257
     22  O5B        5.2120    0.6280   36.1730 O.3   1400  MLR1400    -0.3257
     23  O6B        7.6410    0.2640   34.3250 O.3   1400  MLR1400    -0.2176
     24  C1C        9.0730    1.0050   38.9970 C.3   1400  MLR1400     0.2695
     25  C2C        9.6980    2.0610   39.9500 C.3   1400  MLR1400     0.2406
     26  C3C       10.4470    3.1520   39.1190 C.3   1400  MLR1400     0.2198
     27  C4C       11.5330    2.4620   38.2660 C.3   1400  MLR1400     0.2144
     28  C5C       10.8570    1.4150   37.3390 C.3   1400  MLR1400     0.1835
     29  C6C       11.8700    0.6600   36.4920 C.3   1400  MLR1400     0.2142
     30  O2C        8.6880    2.6250   40.7480 O.3   1400  MLR1400    -0.2149
     31  O3C       11.0210    4.1130   39.9880 O.3   1400  MLR1400    -0.2174
     32  O4C       12.2400    3.4320   37.4910 O.3   1400  MLR1400    -0.2176
     33  O5C       10.1070    0.4260   38.1430 O.3   1400  MLR1400    -0.3256
     34  O6C       11.1790   -0.0800   35.4850 O.3   1400  MLR1400    -0.2176
@<TRIPOS>BOND
     1    12     6    1
     2     6     5    1
     3    11     1    1
     4    11     5    1
     5     7     1    1
     6     1     2    1
     7     5     4    1
     8    23    18    1
     9     2     8    1
    10     2     3    1
    11    34    29    1
    12     4     3    1
    13     4    10    1
    14    18    17    1
    15     3     9    1
    16    22    17    1
    17    22    13    1
    18    10    13    1
    19    17    16    1
    20    29    28    1
    21    13    14    1
    22    28    33    1
    23    28    27    1
    24    32    27    1
    25    16    21    1
    26    16    15    1
    27    33    24    1
    28    21    24    1
    29    27    26    1
    30    14    15    1
    31    14    19    1
    32    15    20    1
    33    24    25    1
    34    26    25    1
    35    26    31    1
    36    25    30    1
