@<TRIPOS>MOLECULE
1urg_MAL_A_1.pdb
 23 24 0 0 0
SMALL
GASTEIGER

@<TRIPOS>ATOM
      1  C1       -34.5870   -0.0020   41.6420 C.3   1403  MAL1403     0.2695
      2  C2       -35.1750   -0.9660   42.6760 C.3   1403  MAL1403     0.2406
      3  C3       -35.9110   -2.0900   41.9280 C.3   1403  MAL1403     0.2198
      4  C4       -36.9940   -1.4960   41.0210 C.3   1403  MAL1403     0.2144
      5  C5       -36.3750   -0.4520   40.0820 C.3   1403  MAL1403     0.1835
      6  C6       -37.4080    0.2940   39.2580 C.3   1403  MAL1403     0.2142
      7  O1       -33.6660   -0.7020   40.8590 O.3   1403  MAL1403    -0.3257
      8  O2       -34.1280   -1.5140   43.4690 O.3   1403  MAL1403    -0.2149
      9  O3       -36.4900   -3.0050   42.8430 O.3   1403  MAL1403    -0.2174
     10  O4       -37.5900   -2.5310   40.2520 O.3   1403  MAL1403    -0.2176
     11  O5       -35.6420    0.5390   40.8440 O.3   1403  MAL1403    -0.3256
     12  O6       -36.7770    1.0580   38.2410 O.3   1403  MAL1403    -0.2176
     13  C1'      -29.7960   -0.3900   39.4060 C.3   1403  MAL1403     0.3023
     14  C2'      -29.9220   -0.4040   40.9290 C.3   1403  MAL1403     0.2433
     15  C3'      -31.3100   -0.9020   41.3240 C.3   1403  MAL1403     0.2168
     16  C4'      -32.3970   -0.0820   40.6280 C.3   1403  MAL1403     0.1804
     17  C5'      -32.1570   -0.0070   39.1130 C.3   1403  MAL1403     0.1804
     18  C6'      -33.1050    0.9870   38.4620 C.3   1403  MAL1403     0.2141
     19  O1'      -29.9460   -1.6770   38.9160 O.3   1403  MAL1403    -0.1869
     20  O2'      -28.9350   -1.2630   41.4760 O.3   1403  MAL1403    -0.2148
     21  O3'      -31.4810   -0.8170   42.7300 O.3   1403  MAL1403    -0.2175
     22  O5'      -30.8140    0.4450   38.8290 O.3   1403  MAL1403    -0.3237
     23  O6'      -33.0440    0.9060   37.0470 O.3   1403  MAL1403    -0.2176
@<TRIPOS>BOND
     1    23    18    1
     2    12     6    1
     3    18    17    1
     4    22    17    1
     5    22    13    1
     6    19    13    1
     7    17    16    1
     8     6     5    1
     9    13    14    1
    10     5    11    1
    11     5     4    1
    12    10     4    1
    13    16     7    1
    14    16    15    1
    15    11     1    1
    16     7     1    1
    17    14    15    1
    18    14    20    1
    19     4     3    1
    20    15    21    1
    21     1     2    1
    22     3     2    1
    23     3     9    1
    24     2     8    1
