@<TRIPOS>MOLECULE
1urk_FUC_A_1.pdb
 10 10 0 0 0
SMALL
GASTEIGER

@<TRIPOS>ATOM
      1  C1         6.8640   15.1010    6.3540 C.3   136  FUC136      0.1776
      2  C2         6.6980   14.3820    7.6910 C.3   136  FUC136      0.2141
      3  C3         7.5280   13.1050    7.6860 C.3   136  FUC136      0.2172
      4  C4         8.9780   13.4690    7.3990 C.3   136  FUC136      0.2116
      5  C5         9.0510   14.2070    6.0670 C.3   136  FUC136      0.1483
      6  C6        10.4620   14.6260    5.7040 C.3   136  FUC136      0.0349
      7  O2         5.3290   14.0740    7.9100 O.3   136  FUC136     -0.2176
      8  O3         7.4300   12.4600    8.9470 O.3   136  FUC136     -0.2175
      9  O4         9.4690   14.3090    8.4330 O.3   136  FUC136     -0.2177
     10  O5         8.2450   15.3990    6.1240 O.3   136  FUC136     -0.3508
@<TRIPOS>BOND
     1     6     5    1
     2     5    10    1
     3     5     4    1
     4    10     1    1
     5     1     2    1
     6     4     3    1
     7     4     9    1
     8     3     2    1
     9     3     8    1
    10     2     7    1
