@<TRIPOS>MOLECULE
1url_III_B_1.pdb
 44 46 0 0 0
SMALL
GASTEIGER

@<TRIPOS>ATOM
      1  N         18.9900   23.2350    1.9720 N.3     2  GLY2       -0.1210
      2  CA        17.8500   23.4540    2.9210 C.3     2  GLY2        0.1956
      3  C         18.1410   24.5990    3.8700 C.2     2  GLY2        0.2612
      4  O         17.4800   25.6390    3.8190 O.2     2  GLY2       -0.2717
      5  N         19.1250   24.4000    4.7440 N.am    3  HIS3       -0.1942
      6  CA        19.5070   25.4490    5.6690 C.3     3  HIS3        0.2014
      7  C         19.3810   25.2150    7.1620 C.2     3  HIS3        0.2640
      8  O         19.7230   24.1580    7.6860 O.2     3  HIS3       -0.2714
      9  N         18.8870   26.2540    7.8270 N.am    4  THR4       -0.1936
     10  CA        18.6720   26.3330    9.2710 C.3     4  THR4        0.2028
     11  C         19.5330   25.5230   10.2300 C.2     4  THR4        0.2642
     12  O         20.4690   26.0630   10.8070 O.2     4  THR4       -0.2714
     13  CB        17.1690   26.1160    9.6190 C.3     4  THR4        0.1808
     14  OG1       16.4020   27.1750    9.0040 O.3     4  THR4       -0.2208
     15  CG2       16.9600   26.1520   11.1400 C.3     4  THR4        0.0379
     16  N         19.2290   24.2440   10.3970 N.am    5  TRP5       -0.1959
     17  CA        19.9710   23.4080   11.3320 C.3     5  TRP5        0.1768
     18  C         21.2840   22.7990   10.8810 C.2     5  TRP5        0.2620
     19  O         22.0760   22.3630   11.7060 O.2     5  TRP5       -0.2715
     20  CB        19.0450   22.3080   11.8650 C.3     5  TRP5        0.0553
     21  CG        17.8920   22.8780   12.6320 C.2     5  TRP5       -0.0136
     22  CD1       16.6020   22.9930   12.2150 C.2     5  TRP5        0.0907
     23  CD2       17.9530   23.4780   13.9250 C.3     5  TRP5        0.0819
     24  NE1       15.8530   23.6310   13.1670 N.2     5  TRP5       -0.2482
     25  CE2       16.6590   23.9410   14.2290 C.2     5  TRP5        0.0665
     26  CE3       18.9810   23.6740   14.8560 C.2     5  TRP5       -0.0164
     27  CZ2       16.3610   24.5860   15.4280 C.2     5  TRP5        0.0153
     28  CZ3       18.6880   24.3150   16.0470 C.2     5  TRP5       -0.0038
     29  CH2       17.3860   24.7650   16.3230 C.2     5  TRP5        0.0009
     30  N         21.5110   22.7570    9.5790 N.am    6  GLY6       -0.1940
     31  CA        22.7360   22.1750    9.0780 C.3     6  GLY6        0.2014
     32  C         22.6290   20.6710    8.9800 C.2     6  GLY6        0.2639
     33  O         21.5510   20.1160    9.1800 O.2     6  GLY6       -0.2714
     34  N         23.7470   20.0220    8.6600 N.am    7  HIS7       -0.1958
     35  CA        23.8110   18.5660    8.5120 C.3     7  HIS7        0.1800
     36  CB        23.3730   17.8740    9.8050 C.3     7  HIS7        0.0745
     37  CG        24.2960   18.1120   10.9580 C.2     7  HIS7        0.0653
     38  ND1       24.7730   19.3630   11.2840 N.2     7  HIS7       -0.2310
     39  CD2       24.8310   17.2580   11.8650 C.3     7  HIS7        0.1683
     40  CE1       25.5630   19.2710   12.3400 C.2     7  HIS7        0.1939
     41  NE2       25.6140   18.0040   12.7110 N.2     7  HIS7       -0.2440
     42  C         22.9650   18.0610    7.3500 C.2     7  HIS7        0.2809
     43  O         23.4730   17.2090    6.5930 O.2     7  HIS7       -0.2698
     44  NXT       21.8090   18.5130    7.2200 N.am    7  HIS7       -0.0863
@<TRIPOS>BOND
     1     1     2    1
     2     2     3    1
     3     4     3    2
     4     3     5   am
     5     5     6    1
     6     6     7    1
     7    43    42    2
     8     7     8    2
     9     7     9   am
    10    44    42   am
    11    42    35    1
    12     9    10    1
    13    35    34    1
    14    35    36    1
    15    34    32   am
    16    32    31    1
    17    32    33    2
    18    14    13    1
    19    31    30    1
    20    10    13    1
    21    10    11    1
    22    30    18   am
    23    13    15    1
    24    36    37    1
    25    11    16   am
    26    11    12    2
    27    16    17    1
    28    18    17    1
    29    18    19    2
    30    37    38    2
    31    37    39    1
    32    38    40    1
    33    17    20    1
    34    20    21    1
    35    39    41    1
    36    22    21    2
    37    22    24    1
    38    40    41    2
    39    21    23    1
    40    24    25    2
    41    23    25    1
    42    23    26    1
    43    25    27    1
    44    26    28    2
    45    27    29    2
    46    28    29    1
