@<TRIPOS>MOLECULE
1url_SIA_B_1.pdb
 20 20 0 0 0
SMALL
GASTEIGER

@<TRIPOS>ATOM
      1  C1        14.8910   25.4450    8.3590 C.2   1004  SIA1004     0.3914
      2  C2        15.0560   26.8700    8.8550 C.3   1004  SIA1004     0.2203
      3  C3        14.4490   27.8460    7.8280 C.3   1004  SIA1004     0.0760
      4  C4        12.9300   27.8210    7.8390 C.3   1004  SIA1004     0.1773
      5  C5        12.4690   28.1130    9.2450 C.3   1004  SIA1004     0.1552
      6  C6        12.9790   26.9800   10.1170 C.3   1004  SIA1004     0.1710
      7  C7        12.4240   27.1270   11.5230 C.3   1004  SIA1004     0.2134
      8  C8        12.9380   26.0110   12.4110 C.3   1004  SIA1004     0.2173
      9  C9        12.2330   26.0600   13.7550 C.3   1004  SIA1004     0.2175
     10  C10       10.4200   29.3480    9.5990 C.2   1004  SIA1004     0.2420
     11  C11        8.9030   29.3660    9.5760 C.3   1004  SIA1004     0.0964
     12  N5        11.0210   28.1960    9.3050 N.am  1004  SIA1004    -0.2020
     13  O1A       15.5320   25.0890    7.3440 O.co2 1004  SIA1004    -0.2430
     14  O1B       14.1200   24.6830    8.9760 O.co2 1004  SIA1004    -0.2430
     15  O4        12.4010   28.7790    6.9350 O.3   1004  SIA1004    -0.2211
     16  O6        14.4250   26.9960   10.1480 O.3   1004  SIA1004    -0.3429
     17  O7        12.8120   28.3800   12.0550 O.3   1004  SIA1004    -0.2176
     18  O8        12.6890   24.7630   11.7830 O.3   1004  SIA1004    -0.2175
     19  O9        12.6170   24.9380   14.5290 O.3   1004  SIA1004    -0.2175
     20  O10       11.0360   30.3790    9.8760 O.2   1004  SIA1004    -0.2733
@<TRIPOS>BOND
     1    15     4    1
     2    13     1   ar
     3     3     4    1
     4     3     2    1
     5     4     5    1
     6     1     2    1
     7     1    14   ar
     8     2    16    1
     9     5    12    1
    10     5     6    1
    11    12    10   am
    12    11    10    1
    13    10    20    2
    14     6    16    1
    15     6     7    1
    16     7    17    1
    17     7     8    1
    18    18     8    1
    19     8     9    1
    20     9    19    1
