@<TRIPOS>MOLECULE
1urs_MLR_A_1.pdb
 34 36 0 0 0
SMALL
GASTEIGER

@<TRIPOS>ATOM
      1  C1A       16.6240    5.4810   18.0290 C.3   1396  MLR1396     0.3023
      2  C2A       17.0410    5.2780   16.5900 C.3   1396  MLR1396     0.2433
      3  C3A       15.8740    4.7600   15.7840 C.3   1396  MLR1396     0.2168
      4  C4A       15.4680    3.3880   16.4040 C.3   1396  MLR1396     0.1804
      5  C5A       15.0010    3.6440   17.8860 C.3   1396  MLR1396     0.1804
      6  C6A       14.6050    2.3880   18.6730 C.3   1396  MLR1396     0.2141
      7  O1X       15.5980    6.4740   18.1320 O.3   1396  MLR1396    -0.1869
      8  O2A       17.5340    6.5310   16.1250 O.3   1396  MLR1396    -0.2148
      9  O3A       16.3170    4.5780   14.4250 O.3   1396  MLR1396    -0.2175
     10  O4A       14.3570    2.9720   15.6560 O.3   1396  MLR1396    -0.3257
     11  O5A       16.0750    4.2800   18.5880 O.3   1396  MLR1396    -0.3237
     12  O6A       14.2480    2.7540   20.0310 O.3   1396  MLR1396    -0.2176
     13  C1B       14.5620    1.5030   15.0980 C.3   1396  MLR1396     0.2695
     14  C2B       14.3660    1.5020   13.5660 C.3   1396  MLR1396     0.2404
     15  C3B       12.9430    1.9910   13.2460 C.3   1396  MLR1396     0.2167
     16  C4B       11.9270    1.0990   13.9300 C.3   1396  MLR1396     0.1804
     17  C5B       12.1650    1.0740   15.4690 C.3   1396  MLR1396     0.1803
     18  C6B       11.1680    0.1050   16.1450 C.3   1396  MLR1396     0.2141
     19  O2B       15.3260    2.3700   12.9710 O.3   1396  MLR1396    -0.2149
     20  O3B       12.7250    1.9470   11.8100 O.3   1396  MLR1396    -0.2175
     21  O4B       10.6080    1.6360   13.6620 O.3   1396  MLR1396    -0.3257
     22  O5B       13.5300    0.6090   15.7130 O.3   1396  MLR1396    -0.3257
     23  O6B       11.1050    0.2070   17.5610 O.3   1396  MLR1396    -0.2176
     24  C1C        9.6390    1.0040   12.8890 C.3   1396  MLR1396     0.2695
     25  C2C        9.0390    2.0920   11.9520 C.3   1396  MLR1396     0.2406
     26  C3C        8.3330    3.1950   12.8160 C.3   1396  MLR1396     0.2198
     27  C4C        7.2270    2.5190   13.6710 C.3   1396  MLR1396     0.2144
     28  C5C        7.8740    1.4350   14.5670 C.3   1396  MLR1396     0.1835
     29  C6C        6.8490    0.6900   15.4100 C.3   1396  MLR1396     0.2142
     30  O2C       10.0690    2.6380   11.1610 O.3   1396  MLR1396    -0.2149
     31  O3C        7.7840    4.1890   11.9730 O.3   1396  MLR1396    -0.2174
     32  O4C        6.5640    3.4870   14.4860 O.3   1396  MLR1396    -0.2176
     33  O5C        8.5870    0.4450   13.7450 O.3   1396  MLR1396    -0.3256
     34  O6C        7.5290   -0.0450   16.4190 O.3   1396  MLR1396    -0.2176
@<TRIPOS>BOND
     1    30    25    1
     2    20    15    1
     3    25    26    1
     4    25    24    1
     5    31    26    1
     6    26    27    1
     7    24    21    1
     8    24    33    1
     9    19    14    1
    10    15    14    1
    11    15    16    1
    12    14    13    1
    13    21    16    1
    14    27    32    1
    15    27    28    1
    16    33    28    1
    17    16    17    1
    18     9     3    1
    19    28    29    1
    20    13    10    1
    21    13    22    1
    22    29    34    1
    23    17    22    1
    24    17    18    1
    25    10     4    1
    26     3     4    1
    27     3     2    1
    28     8     2    1
    29    18    23    1
    30     4     5    1
    31     2     1    1
    32     5    11    1
    33     5     6    1
    34     1     7    1
    35     1    11    1
    36     6    12    1
