@<TRIPOS>MOLECULE
1urv_HEM_A_1.pdb
 43 50 0 0 0
SMALL
GASTEIGER

@<TRIPOS>ATOM
      1 FE         21.9350    4.2730   51.7200 Fe    1172  HEM1172     0.0000
      2  CHA       20.6380    5.4750   54.6950 C.2   1172  HEM1172     0.0000
      3  CHB       24.8000    5.9560   52.3520 C.2   1172  HEM1172     0.0000
      4  CHC       23.1490    3.2800   48.6840 C.2   1172  HEM1172     0.0000
      5  CHD       19.0360    2.6110   51.1010 C.2   1172  HEM1172     0.0000
      6  NA        22.5700    5.5600   53.2400 N.2   1172  HEM1172     0.0000
      7  C1A       21.9460    5.7930   54.4290 C.2   1172  HEM1172     0.0000
      8  C2A       22.9040    6.4160   55.3430 C.2   1172  HEM1172     0.0000
      9  C3A       24.0630    6.5610   54.6820 C.2   1172  HEM1172     0.0000
     10  C4A       23.8590    6.0250   53.3400 C.2   1172  HEM1172     0.0000
     11  CMA       25.4000    7.1600   55.1860 C.3   1172  HEM1172     0.0000
     12  CAA       22.5760    6.8560   56.7790 C.3   1172  HEM1172     0.0000
     13  CBA       23.0840    5.8820   57.8390 C.3   1172  HEM1172     0.0000
     14  CGA       22.2930    4.6130   57.7530 C.2   1172  HEM1172     0.0000
     15  O1A       21.1440    4.5950   58.2550 O.co2 1172  HEM1172     0.0000
     16  O2A       22.8120    3.6190   57.1900 O.co2 1172  HEM1172     0.0000
     17  NB        23.6250    4.5890   50.6910 N.ar  1172  HEM1172     0.0000
     18  C1B       24.7230    5.2610   51.1510 C.ar  1172  HEM1172     0.0000
     19  C2B       25.8100    5.0990   50.2160 C.ar  1172  HEM1172     0.0000
     20  C3B       25.3580    4.3670   49.1800 C.ar  1172  HEM1172     0.0000
     21  C4B       23.9760    4.0270   49.4780 C.ar  1172  HEM1172     0.0000
     22  CMB       27.2440    5.6810   50.3820 C.3   1172  HEM1172     0.0000
     23  CAB       26.1300    3.9060   47.9210 C.2   1172  HEM1172     0.0000
     24  CBB       27.1080    4.5900   47.3180 C.2   1172  HEM1172     0.0000
     25  NC        21.2250    3.1830   50.1540 N.2   1172  HEM1172     0.0000
     26  C1C       21.8910    2.8810   49.0050 C.2   1172  HEM1172     0.0000
     27  C2C       21.0280    2.0700   48.1770 C.2   1172  HEM1172     0.0000
     28  C3C       19.8880    1.9010   48.8410 C.2   1172  HEM1172     0.0000
     29  C4C       20.0010    2.5900   50.1080 C.2   1172  HEM1172     0.0000
     30  CMC       21.4140    1.5620   46.7770 C.3   1172  HEM1172     0.0000
     31  CAC       18.6490    1.1260   48.3990 C.2   1172  HEM1172     0.0000
     32  CBC       18.2780    1.1070   47.1040 C.2   1172  HEM1172     0.0000
     33  ND        20.1670    4.0740   52.7350 N.ar  1172  HEM1172     0.0000
     34  C1D       19.0900    3.3240   52.2680 C.ar  1172  HEM1172     0.0000
     35  C2D       17.9850    3.4130   53.1850 C.ar  1172  HEM1172     0.0000
     36  C3D       18.4810    4.3050   54.2850 C.ar  1172  HEM1172     0.0000
     37  C4D       19.8280    4.6720   53.9430 C.ar  1172  HEM1172     0.0000
     38  CMD       16.6010    2.7550   53.0590 C.3   1172  HEM1172     0.0000
     39  CAD       17.6750    4.7440   55.5060 C.3   1172  HEM1172     0.0000
     40  CBD       17.1560    6.1110   55.0840 C.3   1172  HEM1172     0.0000
     41  CGD       16.2350    6.6720   56.1240 C.2   1172  HEM1172     0.0000
     42  O1D       15.1940    7.2150   55.7100 O.co2 1172  HEM1172     0.0000
     43  O2D       16.5490    6.5930   57.3330 O.co2 1172  HEM1172     0.0000
@<TRIPOS>BOND
     1    30    27    1
     2    32    31    2
     3    24    23    2
     4    23    20    1
     5    27    28    2
     6    27    26    1
     7    31    28    1
     8     4    26    2
     9     4    21    1
    10    28    29    1
    11    26    25    1
    12    20    21   ar
    13    20    19   ar
    14    21    17   ar
    15    29    25    2
    16    29     5    1
    17    25     1    1
    18    19    22    1
    19    19    18   ar
    20    17    18   ar
    21    17     1    1
    22     5    34    2
    23    18     3    1
    24     1    33    1
    25     1     6    1
    26    34    33   ar
    27    34    35   ar
    28     3    10    2
    29    33    37   ar
    30    38    35    1
    31    35    36   ar
    32     6    10    1
    33     6     7    2
    34    10     9    1
    35    37    36   ar
    36    37     2    2
    37    36    39    1
    38     7     2    1
    39     7     8    1
    40     9    11    1
    41     9     8    2
    42    40    39    1
    43    40    41    1
    44     8    12    1
    45    42    41   ar
    46    41    43   ar
    47    12    13    1
    48    16    14   ar
    49    14    13    1
    50    14    15   ar
