@<TRIPOS>MOLECULE
1urw_I1P_A_1.pdb
 32 35 0 0 0
SMALL
GASTEIGER

@<TRIPOS>ATOM
      1  C22        8.6020  -11.8350   11.7020 C.ar  1300  I1P1300     0.0187
      2  C1        17.4510   -5.8040   13.3890 C.ar  1300  I1P1300     0.0256
      3  C2        16.7050   -5.7110   12.2190 C.ar  1300  I1P1300     0.0404
      4  C7        13.9060   -7.9330   12.9490 C.ar  1300  I1P1300     0.1339
      5  C6        17.0620   -6.5740   14.4790 C.ar  1300  I1P1300     0.1207
      6  C3        15.3940   -6.5600   12.1540 C.ar  1300  I1P1300     0.1640
      7  N5        15.9460   -7.2920   14.4550 N.ar  1300  I1P1300    -0.1621
      8  C11       13.4070   -8.9970   15.1560 C.2   1300  I1P1300     0.0561
      9  C10       13.1360   -8.8360   13.7480 C.2   1300  I1P1300     0.1648
     10  C9        13.5960   -7.4850   11.5970 C.ar  1300  I1P1300     0.1223
     11  C17        9.6150  -10.8910   12.0370 C.ar  1300  I1P1300     0.0827
     12  C14       11.4130  -10.4070   13.9510 C.1   1300  I1P1300     0.1697
     13  C13       12.5900   -9.9160   15.8700 C.2   1300  I1P1300     0.1145
     14  N15       12.1280   -9.5630   13.1890 N.2   1300  I1P1300    -0.3345
     15  C18        9.8370   -9.7660   11.1720 C.ar  1300  I1P1300     0.0187
     16  C19        9.0610   -9.5840   10.0160 C.ar  1300  I1P1300     0.0213
     17  C20        8.0550  -10.5260    9.7140 C.ar  1300  I1P1300     0.1236
     18  N4        15.1460   -7.3460   13.2810 N.ar  1300  I1P1300    -0.2081
     19  N8        14.5560   -6.5990   11.0750 N.ar  1300  I1P1300    -0.2234
     20  N13       11.6090  -10.6050   15.2590 N.2   1300  I1P1300    -0.1683
     21  N16       10.3630  -11.1090   13.2540 N.pl3 1300  I1P1300    -0.1358
     22  C21        7.8170  -11.6560   10.5390 C.ar  1300  I1P1300     0.0213
     23  S23        7.0600  -10.2820    8.3090 S.O2  1300  I1P1300     0.0768
     24  N24        8.0120   -9.4770    7.0960 N.3   1300  I1P1300    -0.0777
     25  C25        8.9500  -10.4070    6.4280 C.3   1300  I1P1300     0.1169
     26  C26        9.2920   -9.9200    5.0140 C.3   1300  I1P1300     0.0381
     27  C27        8.0420   -9.8120    4.0910 C.3   1300  I1P1300     0.0737
     28  N28        8.2740   -9.6630    2.6080 N.3   1300  I1P1300    -0.2703
     29  C29        8.6270  -10.9290    1.9080 C.3   1300  I1P1300     0.0897
     30  C30        9.2700   -8.5860    2.2800 C.3   1300  I1P1300     0.0897
     31  O31        5.8420   -9.3400    8.6930 O.2   1300  I1P1300    -0.1516
     32  O32        6.5250  -11.6650    7.7570 O.2   1300  I1P1300    -0.1516
@<TRIPOS>BOND
     1    29    28    1
     2    30    28    1
     3    28    27    1
     4    27    26    1
     5    26    25    1
     6    25    24    1
     7    24    23    1
     8    32    23    2
     9    23    31    2
    10    23    17    1
    11    17    16   ar
    12    17    22   ar
    13    16    15   ar
    14    22     1   ar
    15    19    10   ar
    16    19     6   ar
    17    15    11   ar
    18    10     4   ar
    19     1    11   ar
    20    11    21    1
    21     6     3   ar
    22     6    18   ar
    23     3     2   ar
    24     4    18   ar
    25     4     9    1
    26    14     9    2
    27    14    12    2
    28    21    12    1
    29    18     7   ar
    30     2     5   ar
    31     9     8    1
    32    12    20    2
    33     7     5   ar
    34     8    13    2
    35    20    13    1
