@<TRIPOS>MOLECULE
1urx_AAL_A_1.pdb
 10 11 0 0 0
SMALL
GASTEIGER

@<TRIPOS>ATOM
      1  C1        15.9330   11.0800   12.2240 C.3   1289  AAL1289     0.1776
      2  C2        15.5090   11.9850   11.0340 C.3   1289  AAL1289     0.2109
      3  C3        14.5750   11.2430   10.0640 C.3   1289  AAL1289     0.1807
      4  C4        15.0680    9.9060    9.6220 C.3   1289  AAL1289     0.2109
      5  C5        15.1200    9.2150   10.9450 C.3   1289  AAL1289     0.1775
      6  C6        13.6850    9.5420   11.4020 C.3   1289  AAL1289     0.1743
      7  O2        16.6420   12.4500   10.3000 O.3   1289  AAL1289    -0.2177
      8  O3        13.3930   10.8400   10.7940 O.3   1289  AAL1289    -0.3482
      9  O4        14.7420    8.9490    8.5530 O.3   1289  AAL1289    -0.2177
     10  O5        16.1460    9.6980   11.8260 O.3   1289  AAL1289    -0.3482
@<TRIPOS>BOND
     1     9     4    1
     2     4     3    1
     3     4     5    1
     4     3     8    1
     5     3     2    1
     6     7     2    1
     7     8     6    1
     8     5     6    1
     9     5    10    1
    10     2     1    1
    11    10     1    1
