@<TRIPOS>MOLECULE
1urx_GAL_A_1.pdb
 11 11 0 0 0
SMALL
GASTEIGER

@<TRIPOS>ATOM
      1  C1        17.3070   14.3910   15.2370 C.3   1290  GAL1290     0.1777
      2  C2        17.0790   13.6350   13.9350 C.3   1290  GAL1290     0.2141
      3  C3        17.0440   12.1010   14.1230 C.3   1290  GAL1290     0.2173
      4  C4        18.2470   11.6320   14.9420 C.3   1290  GAL1290     0.2142
      5  C5        18.3700   12.4700   16.2440 C.3   1290  GAL1290     0.1810
      6  C6        19.6360   12.1270   16.9970 C.3   1290  GAL1290     0.2141
      7  O2        15.9080   14.0780   13.3140 O.3   1290  GAL1290    -0.2176
      8  O3        17.1370   11.5390   12.8320 O.3   1290  GAL1290    -0.2175
      9  O4        19.4780   11.8110   14.2450 O.3   1290  GAL1290    -0.2176
     10  O5        18.4250   13.8580   15.9310 O.3   1290  GAL1290    -0.3481
     11  O6        19.5710   12.5890   18.3220 O.3   1290  GAL1290    -0.2176
@<TRIPOS>BOND
     1     8     3    1
     2     7     2    1
     3     2     3    1
     4     2     1    1
     5     3     4    1
     6     9     4    1
     7     4     5    1
     8     1    10    1
     9    10     5    1
    10     5     6    1
    11     6    11    1
