@<TRIPOS>MOLECULE
1urx_GLA_A_1.pdb
 12 12 0 0 0
SMALL
GASTEIGER

@<TRIPOS>ATOM
      1  C1        18.0590   23.1740   19.6620 C.3   1292  GLA1292     0.3024
      2  C2        18.2930   21.7030   19.3790 C.3   1292  GLA1292     0.2434
      3  C3        17.1220   20.9850   18.6750 C.3   1292  GLA1292     0.2199
      4  C4        15.7840   21.3490   19.3440 C.3   1292  GLA1292     0.2144
      5  C5        15.6510   22.8570   19.3130 C.3   1292  GLA1292     0.1836
      6  C6        14.3250   23.4460   19.8520 C.3   1292  GLA1292     0.2142
      7  O1        17.9110   23.6720   18.3520 O.3   1292  GLA1292    -0.1869
      8  O2        19.5550   21.5400   18.7260 O.3   1292  GLA1292    -0.2148
      9  O3        17.3680   19.5920   18.7790 O.3   1292  GLA1292    -0.2174
     10  O4        15.7890   20.8040   20.6580 O.3   1292  GLA1292    -0.2176
     11  O5        16.7250   23.5740   19.9230 O.3   1292  GLA1292    -0.3236
     12  O6        14.2020   23.2140   21.2410 O.3   1292  GLA1292    -0.2176
@<TRIPOS>BOND
     1     7     1    1
     2     3     9    1
     3     3     4    1
     4     3     2    1
     5     8     2    1
     6     5     4    1
     7     5     6    1
     8     5    11    1
     9     4    10    1
    10     2     1    1
    11     1    11    1
    12     6    12    1
