@<TRIPOS>MOLECULE
1ury_HEM_A_1.pdb
 43 50 0 0 0
SMALL
GASTEIGER

@<TRIPOS>ATOM
      1 FE         17.7630    4.3910   51.1080 Fe    700  HEM700      0.0000
      2  CHA       16.0460    5.6120   53.8920 C.2   700  HEM700      0.0000
      3  CHB       20.5900    5.8720   52.1380 C.2   700  HEM700      0.0000
      4  CHC       19.3740    3.1720   48.2970 C.2   700  HEM700      0.0000
      5  CHD       14.9670    2.5430   50.2210 C.2   700  HEM700      0.0000
      6  NA        18.2150    5.5190   52.7240 N.2   700  HEM700      0.0000
      7  C1A       17.3870    5.9310   53.7380 C.2   700  HEM700      0.0000
      8  C2A       18.1920    6.7620   54.6120 C.2   700  HEM700      0.0000
      9  C3A       19.4450    6.8140   54.1440 C.2   700  HEM700      0.0000
     10  C4A       19.4810    6.0380   52.9370 C.2   700  HEM700      0.0000
     11  CMA       20.6360    7.5760   54.7690 C.3   700  HEM700      0.0000
     12  CAA       17.7080    7.4200   55.9150 C.3   700  HEM700      0.0000
     13  CBA       18.1640    6.5470   57.0910 C.3   700  HEM700      0.0000
     14  CGA       17.3920    5.2480   57.0840 C.2   700  HEM700      0.0000
     15  O1A       16.1490    5.3050   57.2720 O.co2 700  HEM700      0.0000
     16  O2A       18.0140    4.1690   56.8850 O.co2 700  HEM700      0.0000
     17  NB        19.6000    4.5100   50.3670 N.ar  700  HEM700      0.0000
     18  C1B       20.6460    5.1870   50.9560 C.ar  700  HEM700      0.0000
     19  C2B       21.8240    5.0340   50.1210 C.ar  700  HEM700      0.0000
     20  C3B       21.4830    4.2900   49.0650 C.ar  700  HEM700      0.0000
     21  C4B       20.0840    3.9380   49.2020 C.ar  700  HEM700      0.0000
     22  CMB       23.1970    5.6370   50.4190 C.3   700  HEM700      0.0000
     23  CAB       22.3430    3.8540   47.8770 C.2   700  HEM700      0.0000
     24  CBB       23.4130    4.5530   47.5240 C.2   700  HEM700      0.0000
     25  NC        17.2640    3.1310   49.5400 N.2   700  HEM700      0.0000
     26  C1C       18.0860    2.7480   48.4970 C.2   700  HEM700      0.0000
     27  C2C       17.3650    1.8460   47.6310 C.2   700  HEM700      0.0000
     28  C3C       16.1430    1.6960   48.1500 C.2   700  HEM700      0.0000
     29  C4C       16.0590    2.4890   49.3660 C.2   700  HEM700      0.0000
     30  CMC       17.9530    1.1900   46.3590 C.3   700  HEM700      0.0000
     31  CAC       15.0140    0.8050   47.6160 C.2   700  HEM700      0.0000
     32  CBC       14.8440    0.6080   46.3110 C.2   700  HEM700      0.0000
     33  ND        15.8000    4.1040   51.9540 N.ar  700  HEM700      0.0000
     34  C1D       14.8320    3.2860   51.3760 C.ar  700  HEM700      0.0000
     35  C2D       13.6340    3.3660   52.1720 C.ar  700  HEM700      0.0000
     36  C3D       13.9680    4.3420   53.2860 C.ar  700  HEM700      0.0000
     37  C4D       15.3340    4.7520   53.0900 C.ar  700  HEM700      0.0000
     38  CMD       12.2660    2.6730   51.9720 C.3   700  HEM700      0.0000
     39  CAD       12.9870    4.7930   54.3690 C.3   700  HEM700      0.0000
     40  CBD       12.3810    6.0120   53.6620 C.3   700  HEM700      0.0000
     41  CGD       11.5140    6.7850   54.5880 C.2   700  HEM700      0.0000
     42  O1D       10.7730    7.6420   54.0940 O.co2 700  HEM700      0.0000
     43  O2D       11.5680    6.5020   55.7930 O.co2 700  HEM700      0.0000
@<TRIPOS>BOND
     1    32    31    2
     2    30    27    1
     3    24    23    2
     4    31    28    1
     5    27    28    2
     6    27    26    1
     7    23    20    1
     8    28    29    1
     9     4    26    2
    10     4    21    1
    11    26    25    1
    12    20    21   ar
    13    20    19   ar
    14    21    17   ar
    15    29    25    2
    16    29     5    1
    17    25     1    1
    18    19    22    1
    19    19    18   ar
    20     5    34    2
    21    17    18   ar
    22    17     1    1
    23    18     3    1
    24     1    33    1
    25     1     6    1
    26    34    33   ar
    27    34    35   ar
    28    33    37   ar
    29    38    35    1
    30     3    10    2
    31    35    36   ar
    32     6    10    1
    33     6     7    2
    34    10     9    1
    35    37    36   ar
    36    37     2    2
    37    36    39    1
    38    40    39    1
    39    40    41    1
    40     7     2    1
    41     7     8    1
    42    42    41   ar
    43     9     8    2
    44     9    11    1
    45    41    43   ar
    46     8    12    1
    47    12    13    1
    48    16    14   ar
    49    14    13    1
    50    14    15   ar
