@<TRIPOS>MOLECULE
1ury_FC6_A_1.pdb
 13 12 0 0 0
SMALL
GASTEIGER

@<TRIPOS>ATOM
      1  N24       26.9590   -2.6810   41.1360 N.1   1175  FC61175     0.0000
      2  C24       27.5860   -3.4690   40.5230 C.1   1175  FC61175     0.0000
      3 FE2        28.6930   -4.6240   39.6330 Fe    1175  FC61175     0.0000
      4  C21       27.7990   -6.0910   40.2610 C.1   1175  FC61175     0.0000
      5  N25       27.1790   -7.0700   40.4760 N.1   1175  FC61175     0.0000
      6  C22       27.6240   -4.5240   38.1510 C.1   1175  FC61175     0.0000
      7  N22       26.9470   -4.3340   37.2240 N.1   1175  FC61175     0.0000
      8  C26       29.6990   -4.6210   41.1660 C.1   1175  FC61175     0.0000
      9  N21       30.1030   -4.7600   42.2890 N.1   1175  FC61175     0.0000
     10  C23       29.6800   -3.2450   38.9480 C.1   1175  FC61175     0.0000
     11  N23       30.4830   -2.4720   38.5870 N.1   1175  FC61175     0.0000
     12  C11       29.8740   -5.7090   38.7590 C.1   1175  FC61175     0.0000
     13  N11       30.5320   -6.3640   38.0560 N.1   1175  FC61175     0.0000
@<TRIPOS>BOND
     1     7     6    3
     2    13    12    3
     3     6     3    1
     4    11    10    3
     5    12     3    1
     6    10     3    1
     7     3     4    1
     8     3     2    1
     9     3     8    1
    10     4     5    3
    11     2     1    3
    12     8     9    3
