@<TRIPOS>MOLECULE
1us0_LDT_A_1.pdb
 24 25 0 0 0
SMALL
GASTEIGER

@<TRIPOS>ATOM
      1  C2        15.6400   -9.4110   18.1200 C.ar  320  LDT320      0.0666
      2  C3        15.9720  -10.3230   15.5230 C.ar  320  LDT320      0.0071
      3  C4        16.5250   -8.7630   17.2660 C.ar  320  LDT320      0.1433
      4  C5        14.9520  -10.5000   17.6370 C.ar  320  LDT320      0.1432
      5  C6        15.0900  -10.9890   16.3460 C.ar  320  LDT320      0.0299
      6  C7        16.6860   -9.2100   15.9390 C.ar  320  LDT320      0.0556
      7 BR8        14.8790   -3.7460    9.6860 Br    320  LDT320     -0.0489
      8  F9        14.1120  -11.1350   18.4840 F     320  LDT320     -0.2041
      9  C11       17.5610   -8.5030   14.9740 C.2   320  LDT320      0.1039
     10  C13       18.2490   -6.3210   14.1510 C.3   320  LDT320      0.1414
     11  F14       19.1990   -4.3570   12.4630 F     320  LDT320     -0.2044
     12  O15       17.3380   -7.7550   17.6750 O.3   320  LDT320     -0.4636
     13  S16       18.5130   -9.3640   13.8880 S.2   320  LDT320     -0.0331
     14  N17       17.4890   -7.1870   15.0190 N.am  320  LDT320     -0.2257
     15  C20       16.8200   -6.8740   18.6680 C.3   320  LDT320      0.3186
     16  C24       17.4200   -5.7730   13.0230 C.ar  320  LDT320      0.0269
     17  C25       15.9480   -4.5980   10.9740 C.ar  320  LDT320      0.0368
     18  C26       16.1200   -6.1790   12.7580 C.ar  320  LDT320      0.0002
     19  C27       17.9320   -4.7820   12.2100 C.ar  320  LDT320      0.1383
     20  C28       17.2360   -4.1760   11.1900 C.ar  320  LDT320      0.0361
     21  C29       15.3660   -5.6010   11.7400 C.ar  320  LDT320      0.0066
     22  C32       15.6720   -6.0140   18.1320 C.2   320  LDT320      0.4084
     23  O33       14.9550   -5.4940   19.0320 O.co2 320  LDT320     -0.2415
     24  O34       15.5530   -5.8820   16.9060 O.co2 320  LDT320     -0.2415
@<TRIPOS>BOND
     1     7    17    1
     2    17    20   ar
     3    17    21   ar
     4    20    19   ar
     5    21    18   ar
     6    19    11    1
     7    19    16   ar
     8    18    16   ar
     9    16    10    1
    10    13     9    2
    11    10    14    1
    12     9    14    1
    13     9     6    1
    14     2     6   ar
    15     2     5   ar
    16     6     3   ar
    17     5     4   ar
    18    24    22   ar
    19     3    12    1
    20     3     1   ar
    21     4     1   ar
    22     4     8    1
    23    12    15    1
    24    22    15    1
    25    22    23   ar
