@<TRIPOS>MOLECULE
1us0_NDP_A_1.pdb
 48 52 0 0 0
SMALL
GASTEIGER

@<TRIPOS>ATOM
      1  PA        22.6070   -4.7330   26.9090 P.3   318  NDP318      0.2189
      2  O1A       23.5240   -3.6820   26.4060 O.2   318  NDP318     -0.5170
      3  O2A       21.5220   -4.3960   27.8560 O.3   318  NDP318     -0.4371
      4  O5B       23.5470   -5.9070   27.4370 O.3   318  NDP318     -0.3112
      5  C5B       22.9510   -7.1170   27.9410 C.3   318  NDP318      0.1813
      6  C4B       24.0930   -8.0290   28.3030 C.3   318  NDP318      0.1820
      7  O4B       24.8670   -7.4160   29.3740 O.3   318  NDP318     -0.3136
      8  C3B       23.7020   -9.4220   28.7860 C.3   318  NDP318      0.2157
      9  O3B       24.6480  -10.3390   28.2830 O.3   318  NDP318     -0.2175
     10  C2B       23.8310   -9.2920   30.3090 C.3   318  NDP318      0.2314
     11  O2B       24.1690  -10.5240   30.9150 O.3   318  NDP318     -0.2630
     12  C1B       24.9850   -8.3190   30.4570 C.3   318  NDP318      0.3158
     13  N9A       24.9680   -7.5610   31.6910 N.pl3 318  NDP318     -0.1439
     14  C8A       23.8730   -6.9320   32.2370 C.3   318  NDP318      0.3377
     15  N7A       24.1530   -6.2890   33.3480 N.2   318  NDP318     -0.2095
     16  C5A       25.4850   -6.5170   33.5340 C.2   318  NDP318      0.2526
     17  C6A       26.3540   -6.1470   34.5680 C.2   318  NDP318      0.4393
     18  N6A       25.9360   -5.4210   35.6150 N.pl3 318  NDP318      0.2180
     19  N1A       27.6290   -6.5690   34.4700 N.2   318  NDP318      0.0021
     20  C2A       28.0290   -7.2910   33.4130 C.3   318  NDP318      0.5254
     21  N3A       27.2830   -7.7240   32.3860 N.2   318  NDP318     -0.0055
     22  C4A       26.0080   -7.2930   32.5180 C.2   318  NDP318      0.3518
     23  O3        21.9860   -5.4560   25.5990 O.3   318  NDP318     -0.2703
     24  PN        20.6090   -5.5610   24.8230 P.3   318  NDP318      0.2189
     25  O1N       19.8110   -6.6870   25.3910 O.3   318  NDP318     -0.4371
     26  O2N       20.9500   -5.5770   23.3750 O.2   318  NDP318     -0.5170
     27  O5D       19.8650   -4.1650   25.0600 O.3   318  NDP318     -0.3112
     28  C5D       18.9860   -3.9310   26.1760 C.3   318  NDP318      0.1813
     29  C4D       17.5430   -4.0430   25.7670 C.3   318  NDP318      0.1799
     30  O4D       17.2130   -3.0400   24.7840 O.3   318  NDP318     -0.3327
     31  C3D       17.1260   -5.3340   25.0750 C.3   318  NDP318      0.2158
     32  O3D       17.0690   -6.4440   25.9400 O.3   318  NDP318     -0.2175
     33  C2D       15.7840   -4.9240   24.4840 C.3   318  NDP318      0.2309
     34  O2D       14.8350   -4.8900   25.5310 O.3   318  NDP318     -0.2158
     35  C1D       16.1470   -3.5080   23.9800 C.3   318  NDP318      0.2263
     36  N1N       16.5910   -3.4840   22.5660 N.pl3 318  NDP318     -0.2787
     37  C2N       15.7480   -2.9590   21.6380 C.3   318  NDP318      0.1244
     38  C3N       16.0860   -2.9580   20.3010 C.2   318  NDP318      0.0544
     39  C7N       15.2210   -2.2830   19.2830 C.2   318  NDP318      0.2818
     40  O7N       15.4110   -2.5050   18.0850 O.2   318  NDP318     -0.2670
     41  N7N       14.2770   -1.4500   19.7360 N.am  318  NDP318     -0.0839
     42  C4N       17.2880   -3.5440   19.8860 C.2   318  NDP318      0.0033
     43  C5N       18.1560   -4.0270   20.8510 C.2   318  NDP318      0.0157
     44  C6N       17.8180   -3.9740   22.1860 C.2   318  NDP318      0.0633
     45  P2B       23.1300  -11.4300   31.7540 P.3   318  NDP318      0.5328
     46  O1X       21.7420  -11.2120   31.1850 O.2   318  NDP318     -0.2224
     47  O2X       23.7170  -12.8060   31.5380 O.3   318  NDP318     -0.1145
     48  O3X       23.2400  -10.9720   33.1970 O.3   318  NDP318     -0.1145
@<TRIPOS>BOND
     1    40    39    2
     2    39    41   am
     3    39    38    1
     4    42    38    2
     5    42    43    1
     6    38    37    1
     7    43    44    2
     8    37    36    1
     9    44    36    1
    10    36    35    1
    11    26    24    2
    12    35    33    1
    13    35    30    1
    14    33    31    1
    15    33    34    1
    16    30    29    1
    17    24    27    1
    18    24    25    1
    19    24    23    1
    20    27    28    1
    21    31    29    1
    22    31    32    1
    23    23     1    1
    24    29    28    1
    25     2     1    2
    26     1     4    1
    27     1     3    1
    28     4     5    1
    29     5     6    1
    30     9     8    1
    31     6     8    1
    32     6     7    1
    33     8    10    1
    34     7    12    1
    35    10    12    1
    36    10    11    1
    37    12    13    1
    38    11    45    1
    39    46    45    2
    40    47    45    1
    41    13    14    1
    42    13    22    1
    43    45    48    1
    44    14    15    1
    45    21    22    2
    46    21    20    1
    47    22    16    1
    48    15    16    2
    49    20    19    1
    50    16    17    1
    51    19    17    2
    52    17    18    1
