@<TRIPOS>MOLECULE
1us2_XYP_A_2.pdb
 10 10 0 0 0
SMALL
GASTEIGER

@<TRIPOS>ATOM
      1  O4A       12.0260   59.9710  129.9720 O.3   1609  XYP1609    -0.1869
      2  C1B       13.0280   59.7430  128.9950 C.3   1609  XYP1609     0.3024
      3  C2B       14.3490   59.5440  129.7070 C.3   1609  XYP1609     0.2434
      4  C3B       15.4690   59.1300  128.7310 C.3   1609  XYP1609     0.2199
      5  C4B       14.9950   57.9110  127.9200 C.3   1609  XYP1609     0.2143
      6  C5B       13.6710   58.3240  127.2370 C.3   1609  XYP1609     0.1804
      7  O2B       14.7350   60.7620  130.3670 O.3   1609  XYP1609    -0.2148
      8  O3B       16.6150   58.7080  129.4680 O.3   1609  XYP1609    -0.2174
      9  O4B       16.0250   57.5270  127.0180 O.3   1609  XYP1609    -0.2176
     10  O5B       12.6740   58.6410  128.2180 O.3   1609  XYP1609    -0.3237
@<TRIPOS>BOND
     1     9     5    1
     2     6     5    1
     3     6    10    1
     4     5     4    1
     5    10     2    1
     6     4     8    1
     7     4     3    1
     8     2     3    1
     9     2     1    1
    10     3     7    1
