@<TRIPOS>MOLECULE
1us4_GLU_A_1.pdb
 10 9 0 0 0
SMALL
GASTEIGER

@<TRIPOS>ATOM
      1  N         45.3060   38.7400   59.9170 N.3   1313  GLU1313    -0.1208
      2  CA        46.3790   37.7470   59.6230 C.3   1313  GLU1313     0.1949
      3  C         45.9780   36.8300   58.4680 C.2   1313  GLU1313     0.3819
      4  O         44.7600   36.6640   58.2340 O.co2 1313  GLU1313    -0.2441
      5  CB        46.6680   36.9150   60.8750 C.3   1313  GLU1313     0.0424
      6  CG        47.1300   37.7520   62.0670 C.3   1313  GLU1313     0.1161
      7  CD        47.2410   36.9460   63.3470 C.2   1313  GLU1313     0.3649
      8  OE1       47.4230   35.7130   63.2640 O.co2 1313  GLU1313    -0.2457
      9  OE2       47.1600   37.5470   64.4370 O.co2 1313  GLU1313    -0.2457
     10  OXT       46.8870   36.2900   57.8120 O.co2 1313  GLU1313    -0.2441
@<TRIPOS>BOND
     1    10     3   ar
     2     4     3   ar
     3     3     2    1
     4     2     1    1
     5     2     5    1
     6     5     6    1
     7     6     7    1
     8     8     7   ar
     9     7     9   ar
