@<TRIPOS>MOLECULE
1us5_GLU_A_1.pdb
 10 9 0 0 0
SMALL
GASTEIGER

@<TRIPOS>ATOM
      1  N         38.3550   39.2570   81.3670 N.3   1315  GLU1315    -0.1208
      2  CA        39.0460   38.2750   80.4850 C.3   1315  GLU1315     0.1949
      3  C         38.0580   37.3480   79.7930 C.2   1315  GLU1315     0.3819
      4  O         36.9910   37.0780   80.3780 O.co2 1315  GLU1315    -0.2441
      5  CB        40.0440   37.4530   81.3050 C.3   1315  GLU1315     0.0424
      6  CG        41.1220   38.3050   81.9430 C.3   1315  GLU1315     0.1161
      7  CD        42.0810   37.5160   82.8130 C.2   1315  GLU1315     0.3649
      8  OE1       42.2750   36.3090   82.5590 O.co2 1315  GLU1315    -0.2457
      9  OE2       42.6560   38.1220   83.7420 O.co2 1315  GLU1315    -0.2457
     10  OXT       38.3630   36.9140   78.6650 O.co2 1315  GLU1315    -0.2441
@<TRIPOS>BOND
     1    10     3   ar
     2     3     4   ar
     3     3     2    1
     4     2     5    1
     5     2     1    1
     6     5     6    1
     7     6     7    1
     8     8     7   ar
     9     7     9   ar
