@<TRIPOS>MOLECULE
1usb_GSH_A_1.pdb
 20 19 0 0 0
SMALL
GASTEIGER

@<TRIPOS>ATOM
      1  N1        75.0900   26.9470   13.3180 N.3   1001  GSH1001    -0.1208
      2  CA1       75.9410   27.9840   12.7950 C.3   1001  GSH1001     0.1948
      3  C1        76.5770   27.4980   11.5210 C.2   1001  GSH1001     0.3819
      4  O11       76.9820   28.3860   10.5420 O.co2 1001  GSH1001    -0.2441
      5  O12       76.7440   26.2430   11.2810 O.co2 1001  GSH1001    -0.2441
      6  CB1       77.0240   28.4170   13.7760 C.3   1001  GSH1001     0.0402
      7  CG1       77.7780   29.6800   13.2800 C.3   1001  GSH1001     0.0889
      8  CD1       78.7870   30.0910   14.3530 C.2   1001  GSH1001     0.2418
      9  OE1       78.8020   29.4070   15.5770 O.2   1001  GSH1001    -0.2733
     10  N2        79.6500   31.0900   14.1090 N.am  1001  GSH1001    -0.1968
     11  CA2       80.6220   31.6010   15.0510 C.3   1001  GSH1001     0.1843
     12  C2        80.3510   33.0560   15.3350 C.2   1001  GSH1001     0.2627
     13  O2        80.1910   33.9630   14.2720 O.2   1001  GSH1001    -0.2714
     14  CB2       82.0250   31.5760   14.4380 C.3   1001  GSH1001     0.0997
     15  SG2       82.5690   29.9040   14.0130 S.3   1001  GSH1001    -0.0797
     16  N3        80.2960   33.4350   16.6030 N.am  1001  GSH1001    -0.1917
     17  CA3       79.8810   34.7780   16.9840 C.3   1001  GSH1001     0.2285
     18  C3        78.6990   34.8400   17.9370 C.2   1001  GSH1001     0.3865
     19  O31       78.4280   36.0770   18.5570 O.co2 1001  GSH1001    -0.2437
     20  O32       77.9350   33.7940   18.1820 O.co2 1001  GSH1001    -0.2437
@<TRIPOS>BOND
     1     4     3   ar
     2     5     3   ar
     3     3     2    1
     4     2     1    1
     5     2     6    1
     6     7     6    1
     7     7     8    1
     8    15    14    1
     9    10     8   am
    10    10    11    1
    11    13    12    2
    12     8     9    2
    13    14    11    1
    14    11    12    1
    15    12    16   am
    16    16    17    1
    17    17    18    1
    18    18    20   ar
    19    18    19   ar
