@<TRIPOS>MOLECULE
1usc_FMN_A_1.pdb
 31 33 0 0 0
SMALL
GASTEIGER

@<TRIPOS>ATOM
      1  N1        52.2040  -29.8250   18.2920 N.2   1179  FMN1179    -0.2890
      2  C2        51.1030  -29.0640   18.1150 C.1   1179  FMN1179     0.3669
      3  O2        49.9100  -29.4130   18.1110 O.2   1179  FMN1179    -0.1744
      4  N3        51.3010  -27.6180   17.8950 N.2   1179  FMN1179    -0.2300
      5  C4        52.5990  -27.0140   17.8650 C.1   1179  FMN1179     0.2513
      6  O4        52.5900  -25.7930   17.6690 O.2   1179  FMN1179    -0.2057
      7  C4A       53.6760  -27.8580   18.0600 C.2   1179  FMN1179     0.2700
      8  N5        54.8670  -27.3430   18.0450 N.2   1179  FMN1179    -0.3878
      9  C5A       55.9860  -28.1240   18.4310 C.2   1179  FMN1179     0.1320
     10  C6        57.2830  -27.5760   18.6360 C.2   1179  FMN1179     0.0250
     11  C7        58.3930  -28.4320   19.0310 C.2   1179  FMN1179    -0.0238
     12  C7M       59.7640  -27.8150   19.2560 C.3   1179  FMN1179     0.0308
     13  C8        58.1840  -29.8720   19.2090 C.2   1179  FMN1179    -0.0280
     14  C8M       59.3190  -30.7360   19.6000 C.3   1179  FMN1179     0.0304
     15  C9        56.9280  -30.4090   19.0170 C.2   1179  FMN1179    -0.0041
     16  C9A       55.7570  -29.5760   18.6240 C.3   1179  FMN1179     0.1497
     17  N10       54.5300  -30.2000   18.4710 N.pl3 1179  FMN1179    -0.2691
     18  C10       53.4660  -29.3580   18.2830 C.2   1179  FMN1179     0.2416
     19  C1'       54.2090  -31.5960   18.7540 C.3   1179  FMN1179     0.1294
     20  C2'       53.8430  -31.9060   20.1970 C.3   1179  FMN1179     0.2044
     21  O2'       54.6270  -31.1290   21.0840 O.3   1179  FMN1179    -0.2185
     22  C3'       54.1150  -33.3710   20.3540 C.3   1179  FMN1179     0.2164
     23  O3'       53.1530  -34.1390   19.5600 O.3   1179  FMN1179    -0.2175
     24  C4'       53.9510  -33.8680   21.8100 C.3   1179  FMN1179     0.2147
     25  O4'       54.5250  -35.1410   21.9420 O.3   1179  FMN1179    -0.2176
     26  C5'       52.4510  -33.8760   22.2420 C.3   1179  FMN1179     0.1892
     27  O5'       52.4520  -34.3150   23.6240 O.3   1179  FMN1179    -0.2674
     28  P         51.0800  -34.7140   24.2770 P.3   1179  FMN1179     0.5327
     29  O1P       50.1680  -33.5450   24.2680 O.3   1179  FMN1179    -0.1145
     30  O2P       50.4450  -35.8880   23.4770 O.2   1179  FMN1179    -0.2224
     31  O3P       51.3580  -35.1440   25.7130 O.3   1179  FMN1179    -0.1145
@<TRIPOS>BOND
     1     6     5    2
     2     5     4    2
     3     5     7    1
     4     4     2    2
     5     8     7    2
     6     8     9    2
     7     7    18    1
     8     3     2    2
     9     2     1    2
    10    18     1    2
    11    18    17    1
    12     9    16    1
    13     9    10    1
    14    17    16    1
    15    17    19    1
    16    16    15    1
    17    10    11    2
    18    19    20    1
    19    15    13    2
    20    11    13    1
    21    11    12    1
    22    13    14    1
    23    23    22    1
    24    20    22    1
    25    20    21    1
    26    22    24    1
    27    24    25    1
    28    24    26    1
    29    26    27    1
    30    30    28    2
    31    27    28    1
    32    29    28    1
    33    28    31    1
