@<TRIPOS>MOLECULE
1usf_NAP_A_1.pdb
 27 29 0 0 0
SMALL
GASTEIGER

@<TRIPOS>ATOM
      1  PA        53.7760  -34.9230   12.0560 P.3   1180  NAP1180     0.5327
      2  O1A       52.2170  -34.7050   12.0650 O.3   1180  NAP1180    -0.1145
      3  O2A       54.3830  -34.4780   10.8310 O.2   1180  NAP1180    -0.2224
      4  O5B       54.2210  -33.8410   13.2100 O.3   1180  NAP1180    -0.2675
      5  C5B       54.1040  -34.2040   14.5890 C.3   1180  NAP1180     0.1860
      6  C4B       54.4980  -32.9530   15.3890 C.3   1180  NAP1180     0.1822
      7  O4B       55.8300  -33.2310   15.8670 O.3   1180  NAP1180    -0.3136
      8  C3B       54.5750  -31.6380   14.6520 C.3   1180  NAP1180     0.2157
      9  O3B       54.1070  -30.5580   15.5020 O.3   1180  NAP1180    -0.2175
     10  C2B       55.9990  -31.4250   14.3090 C.3   1180  NAP1180     0.2314
     11  O2B       56.4580  -30.0800   14.2200 O.3   1180  NAP1180    -0.2630
     12  C1B       56.6980  -32.2490   15.3380 C.3   1180  NAP1180     0.3158
     13  N9A       57.9150  -32.9180   14.7980 N.pl3 1180  NAP1180    -0.1439
     14  C8A       58.1630  -33.4210   13.4970 C.3   1180  NAP1180     0.3377
     15  N7A       59.3500  -33.9860   13.4320 N.2   1180  NAP1180    -0.2095
     16  C5A       59.9090  -33.8550   14.6700 C.2   1180  NAP1180     0.2526
     17  C6A       61.1330  -34.2560   15.2420 C.2   1180  NAP1180     0.4393
     18  N6A       62.0280  -34.9210   14.5120 N.pl3 1180  NAP1180     0.2180
     19  N1A       61.3910  -33.9590   16.5410 N.2   1180  NAP1180     0.0021
     20  C2A       60.4810  -33.2710   17.2720 C.3   1180  NAP1180     0.5254
     21  N3A       59.2980  -32.8390   16.8220 N.2   1180  NAP1180    -0.0055
     22  C4A       59.0620  -33.1840   15.5050 C.2   1180  NAP1180     0.3518
     23  O3        53.9580  -36.3270   12.5800 O.3   1180  NAP1180    -0.1145
     24  P2B       57.2090  -29.4380   13.0350 P.3   1180  NAP1180     0.5328
     25  O1X       58.5830  -29.9250   13.1870 O.3   1180  NAP1180    -0.1145
     26  O2X       57.0690  -27.9680   13.1970 O.3   1180  NAP1180    -0.1145
     27  O3X       56.5970  -29.9070   11.7100 O.2   1180  NAP1180    -0.2224
@<TRIPOS>BOND
     1     3     1    2
     2    27    24    2
     3     1     2    1
     4     1    23    1
     5     1     4    1
     6    24    25    1
     7    24    26    1
     8    24    11    1
     9     4     5    1
    10    15    14    1
    11    15    16    2
    12    14    13    1
    13    11    10    1
    14    10     8    1
    15    10    12    1
    16    18    17    1
    17     5     6    1
    18     8     6    1
    19     8     9    1
    20    16    17    1
    21    16    22    1
    22    13    12    1
    23    13    22    1
    24    17    19    2
    25    12     7    1
    26     6     7    1
    27    22    21    2
    28    19    20    1
    29    21    20    1
