@<TRIPOS>MOLECULE
1usf_FMN_A_1.pdb
 31 33 0 0 0
SMALL
GASTEIGER

@<TRIPOS>ATOM
      1  N1        52.2250  -29.5550   18.2620 N.2   1179  FMN1179    -0.2890
      2  C2        51.1380  -28.7880   18.0620 C.1   1179  FMN1179     0.3669
      3  O2        49.9520  -29.1370   18.0120 O.2   1179  FMN1179    -0.1744
      4  N3        51.3430  -27.3370   17.8720 N.2   1179  FMN1179    -0.2300
      5  C4        52.6410  -26.7370   17.8950 C.1   1179  FMN1179     0.2513
      6  O4        52.6470  -25.5110   17.7190 O.2   1179  FMN1179    -0.2057
      7  C4A       53.7060  -27.5890   18.1060 C.2   1179  FMN1179     0.2700
      8  N5        54.8950  -27.0720   18.1370 N.2   1179  FMN1179    -0.3878
      9  C5A       56.0060  -27.8690   18.4920 C.2   1179  FMN1179     0.1320
     10  C6        57.3040  -27.3330   18.6910 C.2   1179  FMN1179     0.0250
     11  C7        58.4100  -28.2010   19.0550 C.2   1179  FMN1179    -0.0238
     12  C7M       59.7870  -27.5960   19.2730 C.3   1179  FMN1179     0.0308
     13  C8        58.1930  -29.6410   19.2120 C.2   1179  FMN1179    -0.0280
     14  C8M       59.3230  -30.5140   19.5740 C.3   1179  FMN1179     0.0304
     15  C9        56.9330  -30.1710   19.0240 C.2   1179  FMN1179    -0.0041
     16  C9A       55.7650  -29.3250   18.6620 C.3   1179  FMN1179     0.1497
     17  N10       54.5320  -29.9400   18.5110 N.pl3 1179  FMN1179    -0.2691
     18  C10       53.4850  -29.0910   18.3020 C.2   1179  FMN1179     0.2416
     19  C1'       54.1830  -31.3270   18.8320 C.3   1179  FMN1179     0.1294
     20  C2'       53.8840  -31.6300   20.2890 C.3   1179  FMN1179     0.2044
     21  O2'       54.6990  -30.8510   21.1410 O.3   1179  FMN1179    -0.2185
     22  C3'       54.1630  -33.0890   20.4430 C.3   1179  FMN1179     0.2164
     23  O3'       53.2120  -33.8660   19.6470 O.3   1179  FMN1179    -0.2175
     24  C4'       53.9920  -33.5810   21.8980 C.3   1179  FMN1179     0.2147
     25  O4'       54.6300  -34.8230   22.0630 O.3   1179  FMN1179    -0.2176
     26  C5'       52.4890  -33.6620   22.2810 C.3   1179  FMN1179     0.1892
     27  O5'       52.4860  -34.0660   23.6540 O.3   1179  FMN1179    -0.2674
     28  P         51.1320  -34.5300   24.2800 P.3   1179  FMN1179     0.5327
     29  O1P       50.5630  -35.7200   23.4780 O.2   1179  FMN1179    -0.2224
     30  O2P       50.1750  -33.3910   24.2730 O.3   1179  FMN1179    -0.1145
     31  O3P       51.4250  -34.9480   25.7230 O.3   1179  FMN1179    -0.1145
@<TRIPOS>BOND
     1     6     5    2
     2     4     5    2
     3     4     2    2
     4     5     7    1
     5     3     2    2
     6     2     1    2
     7     7     8    2
     8     7    18    1
     9     8     9    2
    10     1    18    2
    11    18    17    1
    12     9    16    1
    13     9    10    1
    14    17    16    1
    15    17    19    1
    16    16    15    1
    17    10    11    2
    18    19    20    1
    19    15    13    2
    20    11    13    1
    21    11    12    1
    22    13    14    1
    23    23    22    1
    24    20    22    1
    25    20    21    1
    26    22    24    1
    27    24    25    1
    28    24    26    1
    29    26    27    1
    30    29    28    2
    31    27    28    1
    32    30    28    1
    33    28    31    1
