@<TRIPOS>MOLECULE
1usi_PHE_A_1.pdb
 12 12 0 0 0
SMALL
GASTEIGER

@<TRIPOS>ATOM
      1  N         -1.3430    5.9590   29.4240 N.3   1346  PHE1346    -0.1205
      2  CA        -0.5780    7.1970   29.5020 C.3   1346  PHE1346     0.1986
      3  C         -1.1680    8.3170   28.6550 C.2   1346  PHE1346     0.3822
      4  O         -0.5460    9.3820   28.6340 O.co2 1346  PHE1346    -0.2440
      5  CB         0.8790    7.0000   29.0200 C.3   1346  PHE1346     0.0569
      6  CG         1.5810    5.8290   29.6230 C.ar  1346  PHE1346    -0.0202
      7  CD1        2.3320    4.9680   28.8420 C.ar  1346  PHE1346    -0.0042
      8  CD2        1.5920    5.6450   30.9890 C.ar  1346  PHE1346    -0.0042
      9  CE1        3.0330    3.9230   29.4290 C.ar  1346  PHE1346    -0.0003
     10  CE2        2.2490    4.6160   31.5590 C.ar  1346  PHE1346    -0.0003
     11  CZ         2.9470    3.7370   30.8040 C.ar  1346  PHE1346    -0.0000
     12  OXT       -2.1590    8.1230   27.9920 O.co2 1346  PHE1346    -0.2440
@<TRIPOS>BOND
     1    12     3   ar
     2     4     3   ar
     3     3     2    1
     4     7     9   ar
     5     7     6   ar
     6     5     2    1
     7     5     6    1
     8     1     2    1
     9     9    11   ar
    10     6     8   ar
    11    11    10   ar
    12     8    10   ar
