@<TRIPOS>MOLECULE
1usn_IN9_A_1.pdb
 27 28 0 0 0
SMALL
GASTEIGER

@<TRIPOS>ATOM
      1  C1        30.2460   46.7170   48.5170 C.2   300  IN9300      0.2169
      2  C2        31.5450   48.6720   48.9840 C.1   300  IN9300      0.0441
      3  C3        28.0690   45.4910   48.7770 C.2   300  IN9300      0.3457
      4  C7        25.2580   44.2280   47.2870 C.3   300  IN9300      0.0622
      5  C8        24.5330   46.5630   46.8750 C.ar  300  IN9300      0.1680
      6  C9        25.4050   45.5580   46.6030 C.ar  300  IN9300      0.0396
      7  C10       26.3780   45.7110   45.6450 C.ar  300  IN9300      0.1680
      8  C11       26.5220   46.9180   45.0240 C.ar  300  IN9300      0.1967
      9  C12       25.6820   47.9480   45.3290 C.ar  300  IN9300      0.1991
     10  C13       24.6970   47.7870   46.2570 C.ar  300  IN9300      0.1967
     11  C14       24.3630   41.3640   50.6840 C.3   300  IN9300      0.1386
     12  S1        29.9770   48.1660   49.3840 S.3   300  IN9300      0.0125
     13  N1        31.4160   46.6130   47.9580 N.2   300  IN9300     -0.1150
     14  N2        32.1760   47.7510   48.2380 N.2   300  IN9300     -0.0966
     15  N3        29.3610   45.5620   48.4130 N.am  300  IN9300     -0.1338
     16  S2        32.3620   50.2300   49.4090 S.2   300  IN9300      0.0199
     17  O1        27.4500   46.5950   49.3110 O.2   300  IN9300     -0.2487
     18  N4        27.3770   44.2800   48.4840 N.am  300  IN9300     -0.1789
     19  C5        25.9460   44.2060   48.6720 C.3   300  IN9300      0.1788
     20  C6        25.7070   42.8950   49.3170 C.2   300  IN9300      0.2617
     21  O2        26.4450   41.9680   49.0470 O.2   300  IN9300     -0.2715
     22  N5        24.5620   42.7460   50.1680 N.am  300  IN9300     -0.2021
     23  F10       27.2580   44.7130   45.3510 F     300  IN9300     -0.2020
     24  F11       27.4790   47.1340   44.0660 F     300  IN9300     -0.1993
     25  F12       25.7740   49.1330   44.6540 F     300  IN9300     -0.1993
     26  F13       23.8030   48.8230   46.4920 F     300  IN9300     -0.1993
     27  F8        23.4670   46.4350   47.7380 F     300  IN9300     -0.2020
@<TRIPOS>BOND
     1    24     8    1
     2    25     9    1
     3     8     9   ar
     4     8     7   ar
     5     9    10   ar
     6    23     7    1
     7     7     6   ar
     8    10    26    1
     9    10     5   ar
    10     6     5   ar
    11     6     4    1
    12     5    27    1
    13     4    19    1
    14    13    14    1
    15    13     1    2
    16    14     2    2
    17    15     1    1
    18    15     3   am
    19    18    19    1
    20    18     3   am
    21     1    12    1
    22    19    20    1
    23     3    17    2
    24     2    12    1
    25     2    16    2
    26    21    20    2
    27    20    22   am
    28    22    11    1
