@<TRIPOS>MOLECULE
1usq_CLM_A_1.pdb
 20 20 0 0 0
SMALL
GASTEIGER

@<TRIPOS>ATOM
      1  C1        38.2830   37.9550  -10.4050 C.3   1143  CLM1143     0.2356
      2 CL1        38.5330   38.3200   -8.6700 Cl    1143  CLM1143    -0.0870
      3 CL2        38.4090   36.2010  -10.6900 Cl    1143  CLM1143    -0.0870
      4  C2        39.3900   38.7490  -11.2100 C.2   1143  CLM1143     0.2720
      5  O2        40.4650   39.0580  -10.6700 O.2   1143  CLM1143    -0.2706
      6  N2        39.0100   39.1520  -12.3640 N.am  1143  CLM1143    -0.1994
      7  C3        39.2240   39.9260  -13.5940 C.3   1143  CLM1143     0.1626
      8  C4        38.4260   41.2400  -13.5480 C.3   1143  CLM1143     0.2065
      9  O4        39.1040   42.2650  -12.7860 O.3   1143  CLM1143    -0.2184
     10  C5        38.9250   39.0640  -14.8360 C.3   1143  CLM1143     0.1966
     11  O5        37.5170   38.8340  -14.8340 O.3   1143  CLM1143    -0.2163
     12  C6        39.7280   37.7800  -14.8000 C.ar  1143  CLM1143     0.0096
     13  C7        41.1220   37.8310  -14.6800 C.ar  1143  CLM1143    -0.0001
     14  C8        41.8680   36.6290  -14.6660 C.ar  1143  CLM1143     0.0238
     15  C9        41.1420   35.4410  -14.8070 C.ar  1143  CLM1143     0.1429
     16  N9        41.9150   34.1530  -14.8220 N.pl3 1143  CLM1143     0.0577
     17  O9A       41.2410   33.1290  -14.9870 O.2   1143  CLM1143    -0.1261
     18  O9B       43.1140   34.1890  -14.6680 O.2   1143  CLM1143    -0.1261
     19  C10       39.7870   35.3910  -14.9270 C.ar  1143  CLM1143     0.0238
     20  C11       39.0580   36.5670  -14.9150 C.ar  1143  CLM1143    -0.0001
@<TRIPOS>BOND
     1    17    16    2
     2    19    20   ar
     3    19    15   ar
     4    20    12   ar
     5    10    11    1
     6    10    12    1
     7    10     7    1
     8    16    15    1
     9    16    18    2
    10    15    14   ar
    11    12    13   ar
    12    13    14   ar
    13     7     8    1
    14     7     6    1
    15     8     9    1
    16     6     4   am
    17     4     5    2
    18     4     1    1
    19     3     1    1
    20     1     2    1
