@<TRIPOS>MOLECULE
1usr_DAN_A_1.pdb
 20 20 0 0 0
SMALL
GASTEIGER

@<TRIPOS>ATOM
      1  C1       114.8650   28.6050   56.9110 C.2   1572  DAN1572     0.3914
      2  C2       113.6430   28.2610   56.4830 C.3   1572  DAN1572     0.2203
      3  C3       112.7820   29.3080   56.3420 C.3   1572  DAN1572     0.0760
      4  C4       111.5540   28.9640   55.5270 C.3   1572  DAN1572     0.1773
      5  C5       111.1790   27.4950   55.6440 C.3   1572  DAN1572     0.1552
      6  C6       112.3770   26.6320   55.2580 C.3   1572  DAN1572     0.1710
      7  C7       112.0890   25.1770   55.5090 C.3   1572  DAN1572     0.2134
      8  C8       113.2440   24.3740   54.8950 C.3   1572  DAN1572     0.2173
      9  C9       113.0410   22.8980   55.2040 C.3   1572  DAN1572     0.2175
     10  C10      108.8780   26.6890   55.1590 C.2   1572  DAN1572     0.2420
     11  C11      107.9350   26.2350   54.0770 C.3   1572  DAN1572     0.0964
     12  N5       110.0360   27.2300   54.7850 N.am  1572  DAN1572    -0.2020
     13  O1A      115.1790   29.7460   57.2720 O.co2 1572  DAN1572    -0.2430
     14  O1B      115.7280   27.7220   56.7890 O.co2 1572  DAN1572    -0.2430
     15  O4       110.5110   29.7610   55.9940 O.3   1572  DAN1572    -0.2211
     16  O6       113.4860   26.9900   56.0480 O.3   1572  DAN1572    -0.3429
     17  O7       112.0390   24.9290   56.9480 O.3   1572  DAN1572    -0.2176
     18  O8       113.2980   24.5910   53.4170 O.3   1572  DAN1572    -0.2175
     19  O9       112.0800   22.3780   54.3040 O.3   1572  DAN1572    -0.2175
     20  O10      108.5580   26.5330   56.3310 O.2   1572  DAN1572    -0.2733
@<TRIPOS>BOND
     1    18     8    1
     2    11    10    1
     3    19     9    1
     4    12    10   am
     5    12     5    1
     6     8     9    1
     7     8     7    1
     8    10    20    2
     9     6     7    1
    10     6     5    1
    11     6    16    1
    12     7    17    1
    13     4     5    1
    14     4    15    1
    15     4     3    1
    16    16     2    1
    17     3     2    1
    18     2     1    1
    19    14     1   ar
    20     1    13   ar
