@<TRIPOS>MOLECULE
1usr_SIA_A_1.pdb
 20 20 0 0 0
SMALL
GASTEIGER

@<TRIPOS>ATOM
      1  C1       135.2760   44.5240   52.4740 C.2   1571  SIA1571     0.3914
      2  C2       135.2340   46.0750   52.3470 C.3   1571  SIA1571     0.2203
      3  C3       134.1860   46.5100   51.2750 C.3   1571  SIA1571     0.0760
      4  C4       132.7700   46.1150   51.7300 C.3   1571  SIA1571     0.1773
      5  C5       132.4410   46.7680   53.0960 C.3   1571  SIA1571     0.1552
      6  C6       133.5160   46.3260   54.1610 C.3   1571  SIA1571     0.1710
      7  C7       133.2880   46.9140   55.5110 C.3   1571  SIA1571     0.2134
      8  C8       134.5090   46.4070   56.4000 C.3   1571  SIA1571     0.2173
      9  C9       134.1060   46.9120   57.8280 C.3   1571  SIA1571     0.2175
     10  C10      130.0750   47.3360   53.3990 C.2   1571  SIA1571     0.2420
     11  C11      128.9530   46.8890   53.7680 C.3   1571  SIA1571     0.0964
     12  N5       131.1450   46.5060   53.4580 N.am  1571  SIA1571    -0.2020
     13  O1A      135.5250   43.9500   53.5680 O.co2 1571  SIA1571    -0.2430
     14  O1B      135.1050   44.0420   51.5380 O.co2 1571  SIA1571    -0.2430
     15  O4       131.8140   46.5400   50.7490 O.3   1571  SIA1571    -0.2211
     16  O6       134.8660   46.6770   53.6410 O.3   1571  SIA1571    -0.3429
     17  O7       133.1650   48.3170   55.2370 O.3   1571  SIA1571    -0.2176
     18  O8       134.6020   45.3220   56.2860 O.3   1571  SIA1571    -0.2175
     19  O9       133.1630   46.0460   58.3140 O.3   1571  SIA1571    -0.2175
     20  O10      130.0560   48.5380   52.9950 O.2   1571  SIA1571    -0.2733
@<TRIPOS>BOND
     1    15     4    1
     2     3     4    1
     3     3     2    1
     4    14     1   ar
     5     4     5    1
     6     2     1    1
     7     2    16    1
     8     1    13   ar
     9    20    10    2
    10     5    12    1
    11     5     6    1
    12    10    12   am
    13    10    11    1
    14    16     6    1
    15     6     7    1
    16    17     7    1
    17     7     8    1
    18    18     8    1
    19     8     9    1
    20     9    19    1
