@<TRIPOS>MOLECULE
1usx_DAN_A_1.pdb
 20 20 0 0 0
SMALL
GASTEIGER

@<TRIPOS>ATOM
      1  C1        33.3090   38.8600   71.1830 C.2   1570  DAN1570     0.4208
      2  C2        32.6770   37.8700   70.4090 C.2   1570  DAN1570     0.2163
      3  C3        32.1300   36.7250   70.9910 C.2   1570  DAN1570     0.0518
      4  C4        31.0860   35.9470   70.1990 C.3   1570  DAN1570     0.2007
      5  C5        31.2900   36.1930   68.7050 C.3   1570  DAN1570     0.1722
      6  C6        31.2900   37.7090   68.4190 C.3   1570  DAN1570     0.2215
      7  C7        31.4980   37.9600   66.9490 C.3   1570  DAN1570     0.2261
      8  C8        31.1710   39.4260   66.5690 C.3   1570  DAN1570     0.2185
      9  C9        31.7260   39.7500   65.1700 C.3   1570  DAN1570     0.2175
     10  C10       30.5120   34.4940   67.0850 C.2   1570  DAN1570     0.2420
     11  C11       29.3360   33.9860   66.2940 C.3   1570  DAN1570     0.0964
     12  N5        30.2720   35.4860   67.9400 N.am  1570  DAN1570    -0.2004
     13  O1A       33.7390   38.9180   72.3510 O.co2 1570  DAN1570    -0.2371
     14  O1B       33.3290   39.9040   70.5150 O.co2 1570  DAN1570    -0.2371
     15  O4        31.4590   34.6190   70.5300 O.3   1570  DAN1570    -0.2162
     16  O6        32.3610   38.3020   69.1540 O.2   1570  DAN1570    -0.4684
     17  O7        32.8200   37.6560   66.6160 O.3   1570  DAN1570    -0.2164
     18  O8        29.7160   39.6550   66.6040 O.3   1570  DAN1570    -0.2174
     19  O9        33.1460   39.7200   65.1560 O.3   1570  DAN1570    -0.2175
     20  O10       31.6180   33.9960   66.9110 O.2   1570  DAN1570    -0.2733
@<TRIPOS>BOND
     1    19     9    1
     2     9     8    1
     3    11    10    1
     4     8    18    1
     5     8     7    1
     6    17     7    1
     7    20    10    2
     8     7     6    1
     9    10    12   am
    10    12     5    1
    11     6     5    1
    12     6    16    1
    13     5     4    1
    14    16     2    1
    15     4    15    1
    16     4     3    1
    17     2     3    2
    18     2     1    1
    19    14     1   ar
    20     1    13   ar
