@<TRIPOS>MOLECULE
1usx_SIA_A_1.pdb
 20 20 0 0 0
SMALL
GASTEIGER

@<TRIPOS>ATOM
      1  C1        30.8850   52.3870   93.2120 C.2   1571  SIA1571     0.3914
      2  C2        30.6930   52.0770   94.7330 C.3   1571  SIA1571     0.2203
      3  C3        29.4410   51.1490   94.8750 C.3   1571  SIA1571     0.0760
      4  C4        29.7200   49.8080   94.1630 C.3   1571  SIA1571     0.1773
      5  C5        30.9710   49.1090   94.7950 C.3   1571  SIA1571     0.1552
      6  C6        32.2130   50.0550   94.7070 C.3   1571  SIA1571     0.1710
      7  C7        33.4280   49.4540   95.3410 C.3   1571  SIA1571     0.2134
      8  C8        34.5530   50.5660   95.3400 C.3   1571  SIA1571     0.2173
      9  C9        35.7850   49.7420   95.8730 C.3   1571  SIA1571     0.2175
     10  C10       30.6630   46.6860   94.4890 C.2   1571  SIA1571     0.2420
     11  C11       30.9630   45.7250   93.7120 C.3   1571  SIA1571     0.0964
     12  N5        31.1870   47.9070   94.2020 N.am  1571  SIA1571    -0.2020
     13  O1A       31.9850   52.1880   92.5920 O.co2 1571  SIA1571    -0.2430
     14  O1B       29.9720   52.8100   92.7860 O.co2 1571  SIA1571    -0.2430
     15  O4        28.5740   48.9440   94.2900 O.3   1571  SIA1571    -0.2211
     16  O6        31.8590   51.3650   95.3130 O.3   1571  SIA1571    -0.3429
     17  O7        32.9140   49.0170   96.6010 O.3   1571  SIA1571    -0.2176
     18  O8        34.6360   50.9760   94.3330 O.3   1571  SIA1571    -0.2175
     19  O9        36.5150   49.3390   94.7700 O.3   1571  SIA1571    -0.2175
     20  O10       29.8400   46.3880   95.4190 O.2   1571  SIA1571    -0.2733
@<TRIPOS>BOND
     1    13     1   ar
     2    14     1   ar
     3     1     2    1
     4    11    10    1
     5     4    15    1
     6     4     5    1
     7     4     3    1
     8    12    10   am
     9    12     5    1
    10    18     8    1
    11    10    20    2
    12     6     5    1
    13     6    16    1
    14     6     7    1
    15     2     3    1
    16     2    16    1
    17    19     9    1
    18     8     7    1
    19     8     9    1
    20     7    17    1
