@<TRIPOS>MOLECULE
1usy_HIS_C_1.pdb
 11 11 0 0 0
SMALL
GASTEIGER

@<TRIPOS>ATOM
      1  N        -24.6920   69.0950  -64.4330 N.3   1275  HIS1275    -0.1204
      2  CA       -25.7620   69.5220  -65.3700 C.3   1275  HIS1275     0.1999
      3  C        -26.5140   70.7700  -64.9070 C.2   1275  HIS1275     0.3822
      4  O        -27.2380   70.7790  -63.8970 O.co2 1275  HIS1275    -0.2440
      5  CB       -26.7790   68.3980  -65.6460 C.3   1275  HIS1275     0.0740
      6  CG       -27.8970   68.8220  -66.5460 C.2   1275  HIS1275     0.0651
      7  ND1      -28.2670   68.1060  -67.6620 N.2   1275  HIS1275    -0.2310
      8  CD2      -28.6890   69.9170  -66.5200 C.3   1275  HIS1275     0.1683
      9  CE1      -29.2580   68.7330  -68.2710 C.2   1275  HIS1275     0.1939
     10  NE2      -29.5330   69.8330  -67.5940 N.2   1275  HIS1275    -0.2440
     11  OXT      -26.4460   71.7840  -65.5980 O.co2 1275  HIS1275    -0.2440
@<TRIPOS>BOND
     1     9     7    1
     2     9    10    2
     3     7     6    2
     4    10     8    1
     5     6     8    1
     6     6     5    1
     7     5     2    1
     8    11     3   ar
     9     2     3    1
    10     2     1    1
    11     3     4   ar
