@<TRIPOS>MOLECULE
1ut0_HEM_A_1.pdb
 43 50 0 0 0
SMALL
GASTEIGER

@<TRIPOS>ATOM
      1  CHA       20.6380    5.4750   54.6950 C.2   1172  HEM1172     0.0000
      2  CHB       24.8000    5.9560   52.3520 C.2   1172  HEM1172     0.0000
      3  CHC       23.1490    3.2800   48.6840 C.2   1172  HEM1172     0.0000
      4  CHD       19.0360    2.6110   51.1010 C.2   1172  HEM1172     0.0000
      5  C1A       21.9460    5.7930   54.4290 C.2   1172  HEM1172     0.0000
      6  C2A       22.9040    6.4160   55.3430 C.2   1172  HEM1172     0.0000
      7  C3A       24.0630    6.5610   54.6820 C.2   1172  HEM1172     0.0000
      8  C4A       23.8590    6.0250   53.3400 C.2   1172  HEM1172     0.0000
      9  CMA       25.4000    7.1600   55.1860 C.3   1172  HEM1172     0.0000
     10  CAA       22.5760    6.8560   56.7790 C.3   1172  HEM1172     0.0000
     11  CBA       23.0840    5.8820   57.8390 C.3   1172  HEM1172     0.0000
     12  CGA       22.2930    4.6130   57.7530 C.2   1172  HEM1172     0.0000
     13  O1A       21.1440    4.5950   58.2550 O.co2 1172  HEM1172     0.0000
     14  O2A       22.8120    3.6190   57.1900 O.co2 1172  HEM1172     0.0000
     15  C1B       24.7230    5.2610   51.1510 C.ar  1172  HEM1172     0.0000
     16  C2B       25.8100    5.0990   50.2160 C.ar  1172  HEM1172     0.0000
     17  C3B       25.3580    4.3670   49.1800 C.ar  1172  HEM1172     0.0000
     18  C4B       23.9760    4.0270   49.4780 C.ar  1172  HEM1172     0.0000
     19  CMB       27.2440    5.6810   50.3820 C.3   1172  HEM1172     0.0000
     20  CAB       26.1300    3.9060   47.9210 C.2   1172  HEM1172     0.0000
     21  CBB       27.1080    4.5900   47.3180 C.2   1172  HEM1172     0.0000
     22  C1C       21.8910    2.8810   49.0050 C.2   1172  HEM1172     0.0000
     23  C2C       21.0280    2.0700   48.1770 C.2   1172  HEM1172     0.0000
     24  C3C       19.8880    1.9010   48.8410 C.2   1172  HEM1172     0.0000
     25  C4C       20.0010    2.5900   50.1080 C.2   1172  HEM1172     0.0000
     26  CMC       21.4140    1.5620   46.7770 C.3   1172  HEM1172     0.0000
     27  CAC       18.6490    1.1260   48.3990 C.2   1172  HEM1172     0.0000
     28  CBC       18.2780    1.1070   47.1040 C.2   1172  HEM1172     0.0000
     29  C1D       19.0900    3.3240   52.2680 C.ar  1172  HEM1172     0.0000
     30  C2D       17.9850    3.4130   53.1850 C.ar  1172  HEM1172     0.0000
     31  C3D       18.4810    4.3050   54.2850 C.ar  1172  HEM1172     0.0000
     32  C4D       19.8280    4.6720   53.9430 C.ar  1172  HEM1172     0.0000
     33  CMD       16.6010    2.7550   53.0590 C.3   1172  HEM1172     0.0000
     34  CAD       17.6750    4.7440   55.5060 C.3   1172  HEM1172     0.0000
     35  CBD       17.1560    6.1110   55.0840 C.3   1172  HEM1172     0.0000
     36  CGD       16.2350    6.6720   56.1240 C.2   1172  HEM1172     0.0000
     37  O1D       15.1940    7.2150   55.7100 O.co2 1172  HEM1172     0.0000
     38  O2D       16.5490    6.5930   57.3330 O.co2 1172  HEM1172     0.0000
     39  NA        22.5700    5.5600   53.2400 N.2   1172  HEM1172     0.0000
     40  NB        23.6250    4.5890   50.6910 N.ar  1172  HEM1172     0.0000
     41  NC        21.2250    3.1830   50.1540 N.2   1172  HEM1172     0.0000
     42  ND        20.1670    4.0740   52.7350 N.ar  1172  HEM1172     0.0000
     43 FE         21.9350    4.2730   51.7200 Fe    1172  HEM1172     0.0000
@<TRIPOS>BOND
     1    26    23    1
     2    28    27    2
     3    21    20    2
     4    20    17    1
     5    23    24    2
     6    23    22    1
     7    27    24    1
     8     3    22    2
     9     3    18    1
    10    24    25    1
    11    22    41    1
    12    17    18   ar
    13    17    16   ar
    14    18    40   ar
    15    25    41    2
    16    25     4    1
    17    41    43    1
    18    16    19    1
    19    16    15   ar
    20    40    15   ar
    21    40    43    1
    22     4    29    2
    23    15     2    1
    24    43    42    1
    25    43    39    1
    26    29    42   ar
    27    29    30   ar
    28     2     8    2
    29    42    32   ar
    30    33    30    1
    31    30    31   ar
    32    39     8    1
    33    39     5    2
    34     8     7    1
    35    32    31   ar
    36    32     1    2
    37    31    34    1
    38     5     1    1
    39     5     6    1
    40     7     9    1
    41     7     6    2
    42    35    34    1
    43    35    36    1
    44     6    10    1
    45    37    36   ar
    46    36    38   ar
    47    10    11    1
    48    14    12   ar
    49    12    11    1
    50    12    13   ar
