@<TRIPOS>MOLECULE
1ut0_FC6_A_1.pdb
 13 12 0 0 0
SMALL
GASTEIGER

@<TRIPOS>ATOM
      1  N24       29.6460   -1.9020   40.2400 N.1   1173  FC61173     0.0000
      2  C24       30.1450   -2.5880   39.4260 C.1   1173  FC61173     0.0000
      3 FE2        31.0770   -3.5620   38.1830 Fe    1173  FC61173     0.0000
      4  C21       30.3630   -5.1050   38.8530 C.1   1173  FC61173     0.0000
      5  N25       30.0000   -6.0990   39.3600 N.1   1173  FC61173     0.0000
      6  C22       29.7150   -3.5040   36.9520 C.1   1173  FC61173     0.0000
      7  N22       28.8230   -3.5140   36.1900 N.1   1173  FC61173     0.0000
      8  C26       32.4340   -3.7480   39.3910 C.1   1173  FC61173     0.0000
      9  N21       33.1890   -4.0300   40.2140 N.1   1173  FC61173     0.0000
     10  C23       31.8270   -2.0930   37.3790 C.1   1173  FC61173     0.0000
     11  N23       32.3220   -1.1180   36.9220 N.1   1173  FC61173     0.0000
     12  C11       32.0640   -4.5320   36.9880 C.1   1173  FC61173     0.0000
     13  N11       32.7350   -5.1210   36.2440 N.1   1173  FC61173     0.0000
@<TRIPOS>BOND
     1     7     6    3
     2    13    12    3
     3    11    10    3
     4     6     3    1
     5    12     3    1
     6    10     3    1
     7     3     4    1
     8     3     8    1
     9     3     2    1
    10     4     5    3
    11     8     9    3
    12     2     1    3
