@<TRIPOS>MOLECULE
1ut6_A8N_A_1.pdb
 24 26 0 0 0
SMALL
GASTEIGER

@<TRIPOS>ATOM
      1  C1         6.6200   70.2390   68.0450 C.2   1538  A8N1538     0.0020
      2  C2         5.3560   69.9250   68.6260 C.2   1538  A8N1538    -0.0037
      3  C3         4.3350   69.3440   67.8600 C.2   1538  A8N1538    -0.0137
      4  C4         4.5060   69.0390   66.4520 C.3   1538  A8N1538     0.1112
      5  C5         5.7850   69.3710   65.8820 C.2   1538  A8N1538     0.1176
      6  C6         6.8330   69.9700   66.6970 C.2   1538  A8N1538     0.0282
      7  C7         3.4860   68.4140   65.5980 C.2   1538  A8N1538     0.0515
      8  C8         3.7500   68.2220   64.2050 C.2   1538  A8N1538     0.0147
      9  C9         5.0830   68.5700   63.7020 C.2   1538  A8N1538     0.1055
     10  N10        6.0550   69.1120   64.5090 N.2   1538  A8N1538    -0.4102
     11  N11        2.2490   68.0110   66.1630 N.pl3 1538  A8N1538    -0.2414
     12  C13        2.7210   67.7250   63.1790 C.3   1538  A8N1538     0.0296
     13  C14        3.0970   67.9520   61.6810 C.3   1538  A8N1538     0.0052
     14  C15        4.5510   67.4580   61.4230 C.3   1538  A8N1538     0.0078
     15  C16        5.5310   68.3690   62.2410 C.3   1538  A8N1538     0.0587
     16  C17        1.9830   66.6590   66.7230 C.3   1538  A8N1538     0.1118
     17  C18        0.8530   66.6770   67.7800 C.3   1538  A8N1538     0.0233
     18  C19        1.2140   65.9050   69.0730 C.3   1538  A8N1538     0.0018
     19  C20        0.0800   64.9500   69.5390 C.3   1538  A8N1538     0.0001
     20  C21        0.5850   63.5490   69.9350 C.3   1538  A8N1538     0.0000
     21  C22        0.0700   63.1250   71.3320 C.3   1538  A8N1538     0.0015
     22  C23       -0.6600   61.7650   71.2940 C.3   1538  A8N1538     0.0205
     23  C24       -0.1440   60.7820   72.3520 C.3   1538  A8N1538     0.1093
     24  N25       -1.3560   60.3440   73.1460 N.3   1538  A8N1538    -0.1314
@<TRIPOS>BOND
     1    14    13    1
     2    14    15    1
     3    13    12    1
     4    15     9    1
     5    12     8    1
     6     9     8    1
     7     9    10    2
     8     8     7    2
     9    10     5    2
    10     7    11    1
    11     7     4    1
    12     5     4    1
    13     5     6    1
    14    11    16    1
    15     4     3    1
    16     6     1    2
    17    16    17    1
    18    17    18    1
    19     3     2    2
    20     1     2    1
    21    18    19    1
    22    19    20    1
    23    20    21    1
    24    22    21    1
    25    22    23    1
    26    23    24    1
