@<TRIPOS>MOLECULE
1utd_TRP_A_1.pdb
 15 16 0 0 0
SMALL
GASTEIGER

@<TRIPOS>ATOM
      1  N          5.5990   -9.3850   66.0520 N.3    81  TRP81      -0.1205
      2  CA         5.8310   -9.9150   64.6880 C.3    81  TRP81       0.1984
      3  C          7.2830   -9.7400   64.2820 C.2    81  TRP81       0.3822
      4  O          7.8970   -8.7150   64.5740 O.co2  81  TRP81      -0.2440
      5  CB         4.9190   -9.2360   63.6540 C.3    81  TRP81       0.0549
      6  CG         5.0860   -9.8210   62.2630 C.2    81  TRP81      -0.0138
      7  CD1        5.9030   -9.3590   61.2540 C.2    81  TRP81       0.0907
      8  CD2        4.4110  -10.9680   61.7340 C.3    81  TRP81       0.0819
      9  NE1        5.7570  -10.1460   60.1320 N.2    81  TRP81      -0.2482
     10  CE2        4.8610  -11.1480   60.4000 C.2    81  TRP81       0.0665
     11  CE3        3.4830  -11.8950   62.2630 C.2    81  TRP81      -0.0164
     12  CZ2        4.4020  -12.1910   59.5830 C.2    81  TRP81       0.0153
     13  CZ3        3.0260  -12.9340   61.4210 C.2    81  TRP81      -0.0038
     14  CH2        3.4810  -13.0580   60.1170 C.2    81  TRP81       0.0009
     15  OXT        7.8550  -10.6430   63.6770 O.co2  81  TRP81      -0.2440
@<TRIPOS>BOND
     1    12    14    2
     2    12    10    1
     3    14    13    1
     4     9    10    2
     5     9     7    1
     6    10     8    1
     7     7     6    2
     8    13    11    2
     9     8     6    1
    10     8    11    1
    11     6     5    1
    12     5     2    1
    13    15     3   ar
    14     3     4   ar
    15     3     2    1
    16     2     1    1
