@<TRIPOS>MOLECULE
1utd_NUC_1_1.pdb
 48 52 0 0 0
SMALL
GASTEIGER

@<TRIPOS>ATOM
      1  P        -19.7340  -22.0700   40.2240 P.3   101  RG101       0.3942
      2  OP1      -19.8090  -22.3550   41.6610 O.3   101  RG101      -0.1425
      3  OP2      -20.9110  -22.1230   39.3210 O.3   101  RG101      -0.1425
      4  O5'      -19.2320  -20.5760   39.9760 O.3   101  RG101      -0.2926
      5  C5'      -18.1660  -20.0140   40.7250 C.3   101  RG101       0.1829
      6  C4'      -17.6540  -18.8210   39.9250 C.3   101  RG101       0.1772
      7  O4'      -17.3000  -19.2820   38.6030 O.3   101  RG101      -0.3327
      8  C3'      -18.6660  -17.7380   39.6040 C.3   101  RG101       0.1874
      9  O3'      -18.8010  -16.8390   40.6770 O.3   101  RG101      -0.2924
     10  C2'      -18.0970  -17.0610   38.3600 C.3   101  RG101       0.2282
     11  O2'      -17.2060  -16.0010   38.6140 O.3   101  RG101      -0.2159
     12  C1'      -17.3620  -18.2100   37.6840 C.3   101  RG101       0.2292
     13  N9       -18.0400  -18.5480   36.4280 N.pl3 101  RG101      -0.2354
     14  C8       -19.3990  -18.5910   36.1650 C.3   101  RG101       0.2246
     15  N7       -19.6730  -18.8720   34.9200 N.2   101  RG101      -0.2322
     16  C5       -18.4230  -19.0250   34.3230 C.2   101  RG101       0.2182
     17  C6       -18.0470  -19.3250   32.9790 C.1   101  RG101       0.2372
     18  O6       -18.8150  -19.5230   32.0440 O.2   101  RG101      -0.2069
     19  N1       -16.6520  -19.3760   32.7650 N.2   101  RG101      -0.2485
     20  C2       -15.7390  -19.1540   33.7760 C.1   101  RG101       0.2531
     21  N2       -14.4410  -19.2390   33.4800 N.pl3 101  RG101      -0.0226
     22  N3       -16.0730  -18.8650   35.0250 N.2   101  RG101      -0.3074
     23  C4       -17.4140  -18.8210   35.2360 C.2   101  RG101       0.2300
     24  P        -20.2740  -16.4900   41.2160 P.3   102  RU102       0.3943
     25  OP1      -21.0130  -15.8700   40.0780 O.3   102  RU102      -0.1425
     26  OP2      -20.7400  -17.7270   41.8890 O.3   102  RU102      -0.1425
     27  P        -27.0540   -6.5170   41.2820 P.3   106  RA106       0.3942
     28  OP1      -27.1060   -6.3520   42.7880 O.3   106  RA106      -0.1425
     29  OP2      -28.3630   -6.4070   40.6050 O.3   106  RA106      -0.1425
     30  O5'      -26.1960   -5.3500   40.5890 O.3   106  RA106      -0.2926
     31  C5'      -26.4780   -3.9650   40.8930 C.3   106  RA106       0.1831
     32  C4'      -25.1660   -3.2070   40.8330 C.3   106  RA106       0.1822
     33  O4'      -24.5470   -3.4550   39.5650 O.3   106  RA106      -0.3135
     34  C3'      -25.2820   -1.7050   40.8070 C.3   106  RA106       0.2184
     35  O3'      -25.3230   -1.3430   42.1460 O.3   106  RA106      -0.2174
     36  C2'      -23.9660   -1.2610   40.1840 C.3   106  RA106       0.2570
     37  O2'      -22.8480   -1.3630   41.0550 O.3   106  RA106      -0.2130
     38  C1'      -23.7800   -2.3390   39.1370 C.3   106  RA106       0.3186
     39  N9       -24.2510   -2.0160   37.7890 N.pl3 106  RA106      -0.1439
     40  C8       -25.1940   -1.1050   37.3850 C.3   106  RA106       0.3377
     41  N7       -25.3930   -1.1110   36.0910 N.2   106  RA106      -0.2095
     42  C5       -24.5280   -2.0980   35.6200 C.2   106  RA106       0.2526
     43  C6       -24.2480   -2.6000   34.3430 C.2   106  RA106       0.4393
     44  N6       -24.8270   -2.1500   33.2070 N.pl3 106  RA106       0.2180
     45  N1       -23.3250   -3.5860   34.2710 N.2   106  RA106       0.0021
     46  C2       -22.7260   -4.0470   35.3730 C.3   106  RA106       0.5254
     47  N3       -22.9100   -3.6500   36.6210 N.2   106  RA106      -0.0055
     48  C4       -23.8190   -2.6640   36.6620 C.2   106  RA106       0.3518
@<TRIPOS>BOND
     1    18    17    2
     2    19    17    2
     3    19    20    2
     4    17    16    1
     5    44    43    1
     6    21    20    1
     7    20    22    2
     8    45    43    2
     9    45    46    1
    10    16    15    2
    11    16    23    1
    12    43    42    1
    13    15    14    1
    14    22    23    2
    15    23    13    1
    16    46    47    1
    17    42    41    2
    18    42    48    1
    19    41    40    1
    20    14    13    1
    21    13    12    1
    22    47    48    2
    23    48    39    1
    24    40    39    1
    25    12    10    1
    26    12     7    1
    27    39    38    1
    28    10    11    1
    29    10     8    1
    30     7     6    1
    31    38    33    1
    32    38    36    1
    33     3     1    1
    34    33    32    1
    35     8     6    1
    36     8     9    1
    37     6     5    1
    38     4     1    1
    39     4     5    1
    40    25    24    1
    41    36    34    1
    42    36    37    1
    43     1     2    1
    44    30    31    1
    45    30    27    1
    46    29    27    1
    47     9    24    1
    48    34    32    1
    49    34    35    1
    50    32    31    1
    51    24    26    1
    52    27    28    1
