@<TRIPOS>MOLECULE
1utf_TRP_A_1.pdb
 15 16 0 0 0
SMALL
GASTEIGER

@<TRIPOS>ATOM
      1  N        -16.1590   -9.9200   71.2330 N.3    81  TRP81      -0.1205
      2  CA       -14.9350  -10.4160   70.6050 C.3    81  TRP81       0.1984
      3  C        -13.7800  -10.2330   71.5880 C.2    81  TRP81       0.3822
      4  O        -13.6480   -9.1950   72.2440 O.co2  81  TRP81      -0.2440
      5  CB       -14.6520   -9.7270   69.2460 C.3    81  TRP81       0.0549
      6  CG       -13.4220  -10.2540   68.5720 C.2    81  TRP81      -0.0138
      7  CD1      -12.1420   -9.7840   68.7080 C.2    81  TRP81       0.0907
      8  CD2      -13.3380  -11.4060   67.7160 C.3    81  TRP81       0.0819
      9  NE1      -11.2800  -10.5550   67.9660 N.2    81  TRP81      -0.2482
     10  CE2      -11.9970  -11.5440   67.3310 C.2    81  TRP81       0.0665
     11  CE3      -14.2890  -12.3160   67.1980 C.2    81  TRP81      -0.0164
     12  CZ2      -11.5550  -12.5750   66.4770 C.2    81  TRP81       0.0153
     13  CZ3      -13.8560  -13.3390   66.3550 C.2    81  TRP81      -0.0038
     14  CH2      -12.4900  -13.4630   66.0070 C.2    81  TRP81       0.0009
     15  OXT      -12.9980  -11.1460   71.8220 O.co2  81  TRP81      -0.2440
@<TRIPOS>BOND
     1    14    13    1
     2    14    12    2
     3    13    11    2
     4    12    10    1
     5    11     8    1
     6    10     8    1
     7    10     9    2
     8     8     6    1
     9     9     7    1
    10     6     7    2
    11     6     5    1
    12     5     2    1
    13     2     1    1
    14     2     3    1
    15     3    15   ar
    16     3     4   ar
