@<TRIPOS>MOLECULE
1utf_NUC_0_1.pdb
 48 53 0 0 0
SMALL
GASTEIGER

@<TRIPOS>ATOM
      1  P        -14.8560  -35.9960   67.7250 P.3   102  RA102       0.3942
      2  OP1      -14.7400  -36.9130   68.8870 O.3   102  RA102      -0.1425
      3  OP2      -15.9100  -36.2070   66.6980 O.3   102  RA102      -0.1425
      4  O5'      -14.8920  -34.5000   68.2830 O.3   102  RA102      -0.2926
      5  C5'      -15.8630  -33.5830   67.8240 C.3   102  RA102       0.1830
      6  C4'      -15.6850  -32.2980   68.5910 C.3   102  RA102       0.1794
      7  O4'      -14.3390  -31.8170   68.3730 O.3   102  RA102      -0.3136
      8  C3'      -16.6040  -31.1740   68.1650 C.3   102  RA102       0.1884
      9  O3'      -17.8380  -31.2950   68.9010 O.3   102  RA102      -0.3111
     10  C2'      -15.7780  -29.9460   68.5430 C.3   102  RA102       0.2541
     11  O2'      -15.9350  -29.6140   69.9210 O.3   102  RA102      -0.2131
     12  C1'      -14.3350  -30.4060   68.2670 C.3   102  RA102       0.3185
     13  N9       -13.7060  -30.0730   66.9760 N.pl3 102  RA102      -0.1439
     14  C8       -14.2780  -30.0170   65.7290 C.3   102  RA102       0.3377
     15  N7       -13.4380  -29.7010   64.7660 N.2   102  RA102      -0.2095
     16  C5       -12.2220  -29.5500   65.4210 C.2   102  RA102       0.2526
     17  C6       -10.9210  -29.2050   64.9640 C.2   102  RA102       0.4393
     18  N6       -10.6230  -28.9440   63.6760 N.pl3 102  RA102       0.2180
     19  N1        -9.9390  -29.1350   65.8760 N.2   102  RA102       0.0021
     20  C2       -10.2220  -29.3800   67.1670 C.3   102  RA102       0.5254
     21  N3       -11.3970  -29.7050   67.7210 N.2   102  RA102      -0.0055
     22  C4       -12.3700  -29.7730   66.7820 C.2   102  RA102       0.3518
     23  P        -19.2090  -30.6500   68.3610 P.3   103  RG103       0.2141
     24  OP1      -20.2940  -31.0520   69.2780 O.3   103  RG103      -0.4373
     25  OP2      -19.3300  -30.9500   66.9180 O.2   103  RG103      -0.5172
     26  O5'      -18.9960  -29.0600   68.5390 O.3   103  RG103      -0.3114
     27  C5'      -19.2510  -28.3870   69.7980 C.3   103  RG103       0.1812
     28  C4'      -18.6020  -27.0150   69.8820 C.3   103  RG103       0.1771
     29  O4'      -17.1870  -27.1270   69.5510 O.3   103  RG103      -0.3327
     30  C3'      -19.1460  -25.9470   68.9340 C.3   103  RG103       0.1874
     31  O3'      -20.2040  -25.2500   69.5650 O.3   103  RG103      -0.2924
     32  C2'      -17.9530  -25.0110   68.7450 C.3   103  RG103       0.2282
     33  O2'      -17.8660  -24.0160   69.7600 O.3   103  RG103      -0.2159
     34  C1'      -16.7670  -25.9800   68.8420 C.3   103  RG103       0.2292
     35  N9       -16.1460  -26.2840   67.5400 N.pl3 103  RG103      -0.2354
     36  C8       -16.7180  -26.6080   66.3130 C.3   103  RG103       0.2246
     37  N7       -15.8200  -26.7640   65.3640 N.2   103  RG103      -0.2322
     38  C5       -14.5930  -26.5350   66.0000 C.2   103  RG103       0.2182
     39  C6       -13.2550  -26.5500   65.5130 C.1   103  RG103       0.2372
     40  O6       -12.8550  -26.7840   64.3610 O.2   103  RG103      -0.2069
     41  N1       -12.3180  -26.2490   66.5080 N.2   103  RG103      -0.2485
     42  C2       -12.6230  -25.9680   67.8210 C.1   103  RG103       0.2531
     43  N2       -11.5960  -25.6850   68.6440 N.pl3 103  RG103      -0.0226
     44  N3       -13.8690  -25.9370   68.2850 N.2   103  RG103      -0.3074
     45  C4       -14.7890  -26.2220   67.3240 C.2   103  RG103       0.2300
     46  P        -21.5770  -24.9320   68.7940 P.3   104  RA104       0.3943
     47  OP1      -22.6190  -24.8510   69.8390 O.3   104  RA104      -0.1425
     48  OP2      -21.7430  -25.8550   67.6440 O.3   104  RA104      -0.1425
@<TRIPOS>BOND
     1    18    17    1
     2    40    39    2
     3    15    16    2
     4    15    14    1
     5    17    16    1
     6    17    19    2
     7    37    38    2
     8    37    36    1
     9    16    22    1
    10    39    38    1
    11    39    41    2
    12    14    13    1
    13    19    20    1
    14    38    45    1
    15    36    35    1
    16    41    42    2
    17     3     1    1
    18    22    13    1
    19    22    21    2
    20    25    23    2
    21    13    12    1
    22    20    21    1
    23    45    35    1
    24    45    44    2
    25    35    34    1
    26    48    46    1
    27     1     4    1
    28     1     2    1
    29    42    44    2
    30    42    43    1
    31     5     4    1
    32     5     6    1
    33     8    10    1
    34     8     6    1
    35     8     9    1
    36    12     7    1
    37    12    10    1
    38    23    26    1
    39    23     9    1
    40    23    24    1
    41     7     6    1
    42    26    27    1
    43    10    11    1
    44    32    34    1
    45    32    30    1
    46    32    33    1
    47    46    31    1
    48    46    47    1
    49    34    29    1
    50    30    31    1
    51    30    28    1
    52    29    28    1
    53    27    28    1
