@<TRIPOS>MOLECULE
1utj_ABN_A_1.pdb
 10 10 0 0 0
SMALL
GASTEIGER

@<TRIPOS>ATOM
      1  N         25.8960   17.3950   57.6730 N.3   246  ABN246     -0.3175
      2  C         24.4380   17.2620   57.3720 C.3   246  ABN246      0.0922
      3  C1        23.7520   16.1380   58.0900 C.ar  246  ABN246     -0.0066
      4  C2        24.2980   14.8560   58.0800 C.ar  246  ABN246     -0.0029
      5  C3        23.6700   13.8080   58.7620 C.ar  246  ABN246     -0.0003
      6  C4        22.4890   14.0490   59.4560 C.ar  246  ABN246     -0.0000
      7  C5        21.9420   15.3230   59.4690 C.ar  246  ABN246     -0.0003
      8  C6        22.5730   16.3590   58.7880 C.ar  246  ABN246     -0.0029
      9  HN1       26.3950   16.5200   57.4120 H     246  ABN246      0.1192
     10  HN2       26.0400   17.5890   58.6800 H     246  ABN246      0.1192
@<TRIPOS>BOND
     1     2     1    1
     2     2     3    1
     3     9     1    1
     4     1    10    1
     5     4     3   ar
     6     4     5   ar
     7     3     8   ar
     8     5     6   ar
     9     8     7   ar
    10     6     7   ar
