@<TRIPOS>MOLECULE
1utl_PRA_M_1.pdb
 10 10 0 0 0
SMALL
GASTEIGER

@<TRIPOS>ATOM
      1  C1        24.0570   16.3640   58.0610 C.3   246  PRA246      0.1097
      2  C2        22.7200   16.0660   58.7220 C.3   246  PRA246      0.0252
      3  C3        22.6990   14.6840   59.3550 C.3   246  PRA246      0.0279
      4  C1'       22.2710   13.5430   58.4670 C.ar  246  PRA246     -0.0221
      5  C2'       23.1210   13.0360   57.4800 C.ar  246  PRA246     -0.0043
      6  C3'       22.7340   11.9280   56.6790 C.ar  246  PRA246     -0.0003
      7  C4'       21.4840   11.3270   56.8700 C.ar  246  PRA246     -0.0000
      8  C5'       20.6230   11.8290   57.8540 C.ar  246  PRA246     -0.0003
      9  C6'       21.0240   12.9360   58.6470 C.ar  246  PRA246     -0.0043
     10  N         24.2670   17.8200   57.7730 N.3   246  PRA246     -0.1314
@<TRIPOS>BOND
     1     6     7   ar
     2     6     5   ar
     3     7     8   ar
     4     5     4   ar
     5    10     1    1
     6     8     9   ar
     7     1     2    1
     8     4     9   ar
     9     4     3    1
    10     2     3    1
