@<TRIPOS>MOLECULE
1utp_PBN_A_1.pdb
 11 11 0 0 0
SMALL
GASTEIGER

@<TRIPOS>ATOM
      1  C1        45.1120   18.4410   52.3110 C.3   1246  PBN1246     0.1093
      2  C2        45.3410   18.6890   50.8450 C.3   1246  PBN1246     0.0208
      3  C3        45.9470   20.0530   50.5420 C.3   1246  PBN1246     0.0062
      4  C4        44.9500   20.8470   49.7010 C.3   1246  PBN1246     0.0264
      5  C1'       45.1900   22.1990   49.5100 C.ar  1246  PBN1246    -0.0222
      6  C2'       44.4270   22.9590   48.6320 C.ar  1246  PBN1246    -0.0043
      7  C3'       44.7030   24.2970   48.4720 C.ar  1246  PBN1246    -0.0003
      8  C4'       45.7240   24.9230   49.1610 C.ar  1246  PBN1246    -0.0000
      9  C5'       46.4970   24.1830   50.0360 C.ar  1246  PBN1246    -0.0003
     10  C6'       46.2170   22.8440   50.1990 C.ar  1246  PBN1246    -0.0043
     11  N         46.0630   17.4450   52.8970 N.3   1246  PBN1246    -0.1314
@<TRIPOS>BOND
     1     7     6   ar
     2     7     8   ar
     3     6     5   ar
     4     8     9   ar
     5     5     4    1
     6     5    10   ar
     7     4     3    1
     8     9    10   ar
     9     3     2    1
    10     2     1    1
    11     1    11    1
