@<TRIPOS>MOLECULE
1utr_PCB_A_1.pdb
 34 35 0 0 0
SMALL
GASTEIGER

@<TRIPOS>ATOM
      1  C1       117.0750   -0.4940    0.1400 C.ar   78  PCB78       0.0034
      2  C2       117.4240   -1.1560   -1.0450 C.ar   78  PCB78       0.0506
      3 CL2       116.9790   -0.4780   -2.5840 Cl     78  PCB78      -0.0829
      4  C3       118.1300   -2.3660   -0.9900 C.ar   78  PCB78      -0.0165
      5  C4       118.4880   -2.9150    0.2490 C.ar   78  PCB78       0.1075
      6  C5       118.1390   -2.2510    1.4350 C.ar   78  PCB78       0.0664
      7 CL5       118.5800   -2.9260    2.9760 Cl     78  PCB78      -0.0816
      8  C6       117.4320   -1.0410    1.3790 C.ar   78  PCB78      -0.0324
      9  S        119.3820   -4.4450    0.3130 S.O2   78  PCB78      -0.0045
     10  O1       120.2420   -4.4220    1.4670 O.2    78  PCB78      -0.1696
     11  O2       119.9770   -4.6710   -0.9790 O.2    78  PCB78      -0.1696
     12  CM       118.0970   -5.6920    0.5730 C.3    78  PCB78       0.0596
     13  C1'      116.3680    0.7160    0.0850 C.ar   78  PCB78       0.0034
     14  C2'      117.0310    1.9010   -0.2580 C.ar   78  PCB78       0.0506
     15 CL2'      118.7340    1.8720   -0.6160 Cl     78  PCB78      -0.0829
     16  C3'      116.3240    3.1110   -0.3110 C.ar   78  PCB78      -0.0165
     17  C4'      114.9530    3.1360   -0.0220 C.ar   78  PCB78       0.1075
     18  C5'      114.2890    1.9480    0.3210 C.ar   78  PCB78       0.0664
     19 CL5'      112.5870    1.9720    0.6810 Cl     78  PCB78      -0.0816
     20  C6'      114.9970    0.7390    0.3740 C.ar   78  PCB78      -0.0324
     21  S'       114.0630    4.6680   -0.0920 S.O2   78  PCB78      -0.0045
     22  O1'      112.7120    4.3910   -0.5070 O.2    78  PCB78      -0.1696
     23  O2'      114.8380    5.6020   -0.8670 O.2    78  PCB78      -0.1696
     24  CM'      114.0370    5.2370    1.6250 C.3    78  PCB78       0.0596
     25  H3       118.3990   -2.8760   -1.9040 H      78  PCB78       0.0652
     26  H6       117.1640   -0.5310    2.2920 H      78  PCB78       0.0639
     27  HM1      117.3340   -5.2960    1.2220 H      78  PCB78       0.0468
     28  HM2      118.5290   -6.5710    1.0250 H      78  PCB78       0.0468
     29  HM3      117.6570   -5.9530   -0.3780 H      78  PCB78       0.0468
     30  H3'      116.8360    4.0240   -0.5760 H      78  PCB78       0.0652
     31  H6'      114.4850   -0.1740    0.6390 H      78  PCB78       0.0639
     32 HM'1      113.9330    4.3920    2.2840 H      78  PCB78       0.0468
     33 HM'2      113.2070    5.9100    1.7730 H      78  PCB78       0.0468
     34 HM'3      114.9610    5.7490    1.8440 H      78  PCB78       0.0468
@<TRIPOS>BOND
     1     3     2    1
     2    25     4    1
     3     2     4   ar
     4     2     1   ar
     5     4     5   ar
     6    11     9    2
     7    23    21    2
     8    15    14    1
     9    30    16    1
    10    22    21    2
    11    29    12    1
    12    16    14   ar
    13    16    17   ar
    14    14    13   ar
    15    21    17    1
    16    21    24    1
    17    17    18   ar
    18    13     1    1
    19    13    20   ar
    20     1     8   ar
    21     5     9    1
    22     5     6   ar
    23     9    12    1
    24     9    10    2
    25    18    20   ar
    26    18    19    1
    27    20    31    1
    28    12    28    1
    29    12    27    1
    30     8     6   ar
    31     8    26    1
    32     6     7    1
    33    24    33    1
    34    24    34    1
    35    24    32    1
