@<TRIPOS>MOLECULE
1utt_CP8_A_1.pdb
 26 29 0 0 0
SMALL
GASTEIGER

@<TRIPOS>ATOM
      1  C1       120.0250   37.5110   80.3020 C.ar  1266  CP81266     0.0662
      2  C2       119.6350   36.7030   79.1170 C.ar  1266  CP81266     0.0179
      3  N3       120.5530   38.7440   79.9670 N.pl3 1266  CP81266    -0.1925
      4  C4       119.8420   36.9650   81.5940 C.ar  1266  CP81266     0.0156
      5  C5       119.0800   35.4200   79.2710 C.ar  1266  CP81266    -0.0031
      6  C6       119.9280   37.4420   77.8680 C.3   1266  CP81266     0.2002
      7  S7       121.0080   38.7540   78.3900 S.O2  1266  CP81266     0.0613
      8  C8       121.0470   39.6920   80.9670 C.3   1266  CP81266     0.1388
      9  C9       119.2800   35.6620   81.7290 C.ar  1266  CP81266    -0.0006
     10  C10      118.8950   34.8820   80.5830 C.ar  1266  CP81266     0.0061
     11  O11      120.6250   40.0090   77.8130 O.2   1266  CP81266    -0.1539
     12  O12      122.3760   38.3450   78.3490 O.2   1266  CP81266    -0.1539
     13  C13      118.2820   33.5010   80.7450 C.3   1266  CP81266     0.1578
     14  C14      119.2570   32.3960   80.2780 C.3   1266  CP81266     0.1278
     15  O15      117.9630   33.2610   82.1120 O.3   1266  CP81266    -0.3407
     16  N16      118.8740   31.0270   80.7130 N.am  1266  CP81266    -0.2705
     17  C17      117.3400   32.0110   82.4280 C.3   1266  CP81266     0.2274
     18  C18      119.5210   29.8940   80.0020 C.3   1266  CP81266     0.1203
     19  C19      117.9660   30.7770   81.7390 C.2   1266  CP81266     0.2562
     20  C20      118.6200   29.1080   79.0530 C.ar  1266  CP81266    -0.0023
     21  O21      117.6500   29.6550   82.1070 O.2   1266  CP81266    -0.2721
     22  C22      117.4080   29.6540   78.5350 C.ar  1266  CP81266    -0.0026
     23  C23      118.9880   27.7930   78.6660 C.ar  1266  CP81266    -0.0026
     24  C24      116.5880   28.8980   77.6580 C.ar  1266  CP81266    -0.0003
     25  C25      118.1720   27.0370   77.7890 C.ar  1266  CP81266    -0.0003
     26  C26      116.9710   27.5900   77.2850 C.ar  1266  CP81266    -0.0000
@<TRIPOS>BOND
     1    26    24   ar
     2    26    25   ar
     3    24    22   ar
     4    25    23   ar
     5    11     7    2
     6     6     7    1
     7     6     2    1
     8    12     7    2
     9     7     3    1
    10    22    20   ar
    11    23    20   ar
    12    20    18    1
    13     2     5   ar
    14     2     1   ar
    15     5    10   ar
    16     3     1    1
    17     3     8    1
    18    18    16    1
    19    14    16    1
    20    14    13    1
    21     1     4   ar
    22    10    13    1
    23    10     9   ar
    24    16    19   am
    25    13    15    1
    26     4     9   ar
    27    19    21    2
    28    19    17    1
    29    15    17    1
