@<TRIPOS>MOLECULE
1utv_NUC_1_1.pdb
 48 53 0 0 0
SMALL
GASTEIGER

@<TRIPOS>ATOM
      1  P         -1.7100   27.3560   23.2890 P.3   102  RA102       0.3942
      2  OP1       -2.2760   28.5560   22.6210 O.3   102  RA102      -0.1425
      3  OP2       -2.5600   26.3600   23.9820 O.3   102  RA102      -0.1425
      4  O5'       -0.7770   26.5730   22.2390 O.3   102  RA102      -0.2926
      5  C5'        0.1550   27.2160   21.3490 C.3   102  RA102       0.1830
      6  C4'        1.1790   26.1740   20.9460 C.3   102  RA102       0.1794
      7  O4'        1.9640   25.8180   22.1230 O.3   102  RA102      -0.3136
      8  C3'        0.5490   24.8530   20.5090 C.3   102  RA102       0.1884
      9  O3'        0.2900   24.8310   19.0860 O.3   102  RA102      -0.3111
     10  C2'        1.5620   23.8090   20.9700 C.3   102  RA102       0.2541
     11  O2'        2.6420   23.6790   20.0700 O.3   102  RA102      -0.2131
     12  C1'        2.0870   24.4080   22.2730 C.3   102  RA102       0.3185
     13  N9         1.4080   24.0420   23.5190 N.pl3 102  RA102      -0.1439
     14  C8         0.0880   23.7050   23.7130 C.3   102  RA102       0.3377
     15  N7        -0.2470   23.4630   24.9630 N.2   102  RA102      -0.2095
     16  C5         0.9530   23.6500   25.6500 C.2   102  RA102       0.2526
     17  C6         1.2820   23.5550   27.0180 C.2   102  RA102       0.4393
     18  N6         0.4050   23.1960   27.9700 N.pl3 102  RA102       0.2180
     19  N1         2.5670   23.8140   27.3590 N.2   102  RA102       0.0021
     20  C2         3.4470   24.1680   26.4140 C.3   102  RA102       0.5254
     21  N3         3.2610   24.2900   25.0980 N.2   102  RA102      -0.0055
     22  C4         1.9810   24.0120   24.7760 C.2   102  RA102       0.3518
     23  P         -1.0290   24.0710   18.5620 P.3   103  RG103       0.2141
     24  OP1       -1.1020   24.2830   17.0980 O.2   103  RG103      -0.5172
     25  OP2       -2.1750   24.4470   19.4300 O.3   103  RG103      -0.4373
     26  O5'       -0.7060   22.5200   18.8360 O.3   103  RG103      -0.3114
     27  C5'        0.2250   21.8770   17.9440 C.3   103  RG103       0.1812
     28  C4'        0.8330   20.6380   18.5650 C.3   103  RG103       0.1771
     29  O4'        1.3270   20.9530   19.8950 O.3   103  RG103      -0.3327
     30  C3'       -0.1140   19.4620   18.7820 C.3   103  RG103       0.1874
     31  O3'       -0.1540   18.6550   17.6140 O.3   103  RG103      -0.2924
     32  C2'        0.6130   18.6880   19.8600 C.3   103  RG103       0.2282
     33  O2'        1.6100   17.8840   19.2540 O.3   103  RG103      -0.2159
     34  C1'        1.2830   19.7820   20.6940 C.3   103  RG103       0.2292
     35  N9         0.6700   20.0200   22.0160 N.pl3 103  RG103      -0.2354
     36  C8        -0.6700   20.1010   22.3600 C.3   103  RG103       0.2246
     37  N7        -0.8790   20.2960   23.6440 N.2   103  RG103      -0.2322
     38  C5         0.4060   20.3470   24.1820 C.2   103  RG103       0.2182
     39  C6         0.8280   20.5410   25.5230 C.1   103  RG103       0.2372
     40  O6         0.1240   20.7050   26.5290 O.2   103  RG103      -0.2069
     41  N1         2.2200   20.5350   25.6370 N.2   103  RG103      -0.2485
     42  C2         3.1050   20.3590   24.6000 C.1   103  RG103       0.2531
     43  N2         4.4080   20.3790   24.9180 N.pl3 103  RG103      -0.0226
     44  N3         2.7230   20.1820   23.3330 N.2   103  RG103      -0.3074
     45  C4         1.3680   20.1670   23.2070 C.2   103  RG103       0.2300
     46  P         -1.4750   18.4880   16.7150 P.3   104  RA104       0.3943
     47  OP1       -2.6350   19.0740   17.4360 O.3   104  RA104      -0.1425
     48  OP2       -1.0840   18.9230   15.3520 O.3   104  RA104      -0.1425
@<TRIPOS>BOND
     1    48    46    1
     2    46    47    1
     3    46    31    1
     4    24    23    2
     5    31    30    1
     6    27    28    1
     7    27    26    1
     8    23    26    1
     9    23     9    1
    10    23    25    1
    11    28    30    1
    12    28    29    1
    13    30    32    1
    14     9     8    1
    15    33    32    1
    16    32    34    1
    17    29    34    1
    18    11    10    1
    19     8     6    1
    20     8    10    1
    21    34    35    1
    22     6     5    1
    23     6     7    1
    24    10    12    1
    25     5     4    1
    26    35    36    1
    27    35    45    1
    28     7    12    1
    29     4     1    1
    30    12    13    1
    31    36    37    1
    32     2     1    1
    33    45    44    2
    34    45    38    1
    35     1     3    1
    36    44    42    2
    37    13    14    1
    38    13    22    1
    39    37    38    2
    40    14    15    1
    41    38    39    1
    42    42    43    1
    43    42    41    2
    44    22    21    2
    45    22    16    1
    46    15    16    2
    47    21    20    1
    48    39    41    2
    49    39    40    2
    50    16    17    1
    51    20    19    1
    52    17    19    2
    53    17    18    1
