@<TRIPOS>MOLECULE
1utv_TRP_A_1.pdb
 15 16 0 0 0
SMALL
GASTEIGER

@<TRIPOS>ATOM
      1  N         12.1540   18.0160   23.9670 N.3   281  TRP281     -0.1205
      2  CA        12.5860   18.1630   25.3630 C.3   281  TRP281      0.1984
      3  C         13.9420   17.4890   25.5510 C.2   281  TRP281      0.3822
      4  O         14.1110   16.4000   25.0080 O.co2 281  TRP281     -0.2440
      5  CB        11.5290   17.5990   26.3450 C.3   281  TRP281      0.0549
      6  CG        11.8590   17.8080   27.7880 C.2   281  TRP281     -0.0138
      7  CD1       12.4840   16.9300   28.6060 C.2   281  TRP281      0.0907
      8  CD2       11.6520   19.0060   28.5690 C.3   281  TRP281      0.0819
      9  NE1       12.6760   17.4830   29.8540 N.2   281  TRP281     -0.2482
     10  CE2       12.1570   18.7550   29.8620 C.2   281  TRP281      0.0665
     11  CE3       11.0510   20.2570   28.3090 C.2   281  TRP281     -0.0164
     12  CZ2       12.0980   19.7080   30.9070 C.2   281  TRP281      0.0153
     13  CZ3       10.9990   21.2100   29.3350 C.2   281  TRP281     -0.0038
     14  CH2       11.5120   20.9300   30.6160 C.2   281  TRP281      0.0009
     15  OXT       14.8610   18.0270   26.2100 O.co2 281  TRP281     -0.2440
@<TRIPOS>BOND
     1     1     2    1
     2     4     3   ar
     3     2     3    1
     4     2     5    1
     5     3    15   ar
     6     5     6    1
     7     6     8    1
     8     6     7    2
     9    11     8    1
    10    11    13    2
    11     8    10    1
    12     7     9    1
    13    13    14    1
    14     9    10    2
    15    10    12    1
    16    14    12    2
