@<TRIPOS>MOLECULE
1utz_PF3_A_1.pdb
 31 34 0 0 0
SMALL
GASTEIGER

@<TRIPOS>ATOM
      1  S1        42.5820   53.4910   19.9380 S.2   1265  PF31265    -0.0819
      2  C1        41.4810   54.6540   19.2170 C.ar  1265  PF31265     0.0845
      3  C2        40.1980   54.2890   19.3660 C.ar  1265  PF31265     0.0116
      4  C3        40.0440   53.0170   20.0830 C.ar  1265  PF31265     0.0071
      5  C4        41.2300   52.4950   20.4380 C.ar  1265  PF31265     0.0356
      6  C5        38.7370   52.4390   20.3830 C.ar  1265  PF31265     0.0005
      7  C6        37.7910   52.1620   19.3670 C.ar  1265  PF31265     0.0000
      8  C7        36.5240   51.6360   19.7060 C.ar  1265  PF31265     0.0000
      9  C8        36.1660   51.3730   21.0580 C.ar  1265  PF31265     0.0001
     10  C9        37.1280   51.6480   22.0560 C.ar  1265  PF31265     0.0000
     11  C10       38.3890   52.1710   21.7290 C.ar  1265  PF31265     0.0000
     12  C11       34.7990   50.8340   21.4270 C.ar  1265  PF31265     0.0031
     13  C12       34.2900   50.9980   22.7380 C.ar  1265  PF31265     0.0207
     14  C13       33.0140   50.5000   23.0590 C.ar  1265  PF31265     0.0989
     15  N1        32.2270   49.8540   22.1570 N.ar  1265  PF31265    -0.2423
     16  C14       32.7210   49.6980   20.8960 C.ar  1265  PF31265     0.0989
     17  C15       33.9890   50.1700   20.4950 C.ar  1265  PF31265     0.0207
     18  C16       41.9130   55.9150   18.5690 C.2   1265  PF31265     0.2711
     19  O1        43.0770   56.2570   18.7590 O.2   1265  PF31265    -0.2678
     20  N2        41.0010   56.6360   17.8630 N.am  1265  PF31265    -0.1979
     21  C17       41.2460   57.9580   17.2620 C.3   1265  PF31265     0.1291
     22  C18       39.8250   58.4840   16.9140 C.3   1265  PF31265     0.1401
     23  C19       38.8120   58.3910   18.0910 C.2   1265  PF31265     0.3670
     24  O2        38.9940   59.0840   19.0880 O.co2 1265  PF31265    -0.2456
     25  O3        37.8640   57.6130   17.9960 O.co2 1265  PF31265    -0.2456
     26  C20       42.1620   58.0270   16.0130 C.ar  1265  PF31265    -0.0020
     27  C21       42.4630   59.3120   15.4420 C.ar  1265  PF31265    -0.0026
     28  C22       43.3000   59.4390   14.3080 C.ar  1265  PF31265    -0.0003
     29  C23       43.8570   58.2820   13.7140 C.ar  1265  PF31265    -0.0000
     30  C24       43.5730   57.0120   14.2550 C.ar  1265  PF31265    -0.0003
     31  C25       42.7380   56.8860   15.3900 C.ar  1265  PF31265    -0.0026
@<TRIPOS>BOND
     1    29    30   ar
     2    29    28   ar
     3    30    31   ar
     4    28    27   ar
     5    31    26   ar
     6    27    26   ar
     7    26    21    1
     8    22    21    1
     9    22    23    1
    10    21    20    1
    11    20    18   am
    12    25    23   ar
    13    23    24   ar
    14    18    19    2
    15    18     2    1
    16     2     3   ar
    17     2     1   ar
    18     3     4   ar
    19     7     8   ar
    20     7     6   ar
    21     8     9   ar
    22     1     5   ar
    23     4     6    1
    24     4     5   ar
    25     6    11   ar
    26    17    16   ar
    27    17    12   ar
    28    16    15   ar
    29     9    12    1
    30     9    10   ar
    31    12    13   ar
    32    11    10   ar
    33    15    14   ar
    34    13    14   ar
