@<TRIPOS>MOLECULE
1uu1_HSA_A_1.pdb
 13 13 0 0 0
SMALL
GASTEIGER

@<TRIPOS>ATOM
      1  CB        -7.4180   72.6810   82.5600 C.3   1336  HSA1336     0.0460
      2  CG        -7.4060   74.0370   82.2480 C.2   1336  HSA1336     0.0631
      3  CD2       -6.7200   74.5370   81.2230 C.3   1336  HSA1336     0.1682
      4  ND1       -8.0100   75.0410   82.8770 N.2   1336  HSA1336    -0.2310
      5  CE1       -7.6910   76.1680   82.2430 C.2   1336  HSA1336     0.1939
      6  NE2       -6.8960   75.8560   81.2240 N.2   1336  HSA1336    -0.2440
      7  C         -9.8230   71.9080   83.0060 C.3   1336  HSA1336     0.1541
      8  OP4      -11.0120   72.3690   82.3550 O.3   1336  HSA1336    -0.2702
      9  P        -12.2960   72.8700   83.1970 P.3   1336  HSA1336     0.5326
     10  OP1      -13.5860   72.4350   82.3360 O.2   1336  HSA1336    -0.2224
     11  OP2      -12.2620   74.4790   83.1700 O.3   1336  HSA1336    -0.1145
     12  OP3      -12.3430   72.3440   84.5800 O.3   1336  HSA1336    -0.1145
     13  CA        -8.5790   72.0480   82.1260 C.3   1336  HSA1336     0.0387
@<TRIPOS>BOND
     1     3     6    1
     2     3     2    1
     3     6     5    2
     4    13     1    1
     5    13     7    1
     6     5     4    1
     7     2     1    1
     8     2     4    2
     9    10     9    2
    10     8     7    1
    11     8     9    1
    12    11     9    1
    13     9    12    1
