@<TRIPOS>MOLECULE
1uu1_PMP_A_1.pdb
 16 16 0 0 0
SMALL
GASTEIGER

@<TRIPOS>ATOM
      1  N1        -9.2130   71.5300   75.9310 N.ar  1335  PMP1335    -0.2452
      2  C2        -9.8310   70.7950   76.8700 C.ar  1335  PMP1335     0.0978
      3  C2A      -11.0820   69.9990   76.4960 C.3   1335  PMP1335     0.0555
      4  C3        -9.3310   70.7570   78.1700 C.ar  1335  PMP1335     0.2063
      5  O3        -9.9630   69.9940   79.1040 O.3   1335  PMP1335    -0.2856
      6  C4        -8.1870   71.4780   78.5080 C.ar  1335  PMP1335     0.0369
      7  C4A       -7.6390   71.4710   79.9400 C.3   1335  PMP1335     0.1386
      8  N4A       -8.7270   71.4810   80.9300 N.3   1335  PMP1335    -0.1261
      9  C5        -7.5810   72.2150   77.4910 C.ar  1335  PMP1335     0.0275
     10  C6        -8.1240   72.2240   76.2090 C.ar  1335  PMP1335     0.0965
     11  C5A       -6.2300   72.9140   77.6790 C.3   1335  PMP1335     0.1816
     12  O4P       -5.1460   72.1750   78.0350 O.3   1335  PMP1335    -0.2653
     13  P         -3.7990   73.0590   78.0080 P.3   1335  PMP1335     0.5329
     14  O1P       -2.8430   72.3750   76.9100 O.2   1335  PMP1335    -0.2224
     15  O2P       -3.1230   72.7830   79.4420 O.3   1335  PMP1335    -0.1145
     16  O3P       -3.9980   74.4950   77.7080 O.3   1335  PMP1335    -0.1145
@<TRIPOS>BOND
     1     1    10   ar
     2     1     2   ar
     3    10     9   ar
     4     3     2    1
     5     2     4   ar
     6    14    13    2
     7     9    11    1
     8     9     6   ar
     9    11    12    1
    10    16    13    1
    11    13    12    1
    12    13    15    1
    13     4     6   ar
    14     4     5    1
    15     6     7    1
    16     7     8    1
