@<TRIPOS>MOLECULE
1uu2_PMP_A_1.pdb
 15 15 0 0 0
SMALL
GASTEIGER

@<TRIPOS>ATOM
      1  N1        10.6660   14.6980   19.1920 N.ar  1335  PMP1335    -0.2452
      2  C2         9.6080   15.4060   18.7740 C.ar  1335  PMP1335     0.0978
      3  C2A        9.3680   15.6110   17.2780 C.3   1335  PMP1335     0.0555
      4  C3         8.7380   15.9660   19.7090 C.ar  1335  PMP1335     0.2049
      5  O3         7.6570   16.6810   19.3000 O.3   1335  PMP1335    -0.2857
      6  C4         8.9900   15.7800   21.0620 C.ar  1335  PMP1335     0.0182
      7  C4A        8.0450   16.3990   22.0960 C.3   1335  PMP1335     0.0342
      8  C5        10.1010   15.0380   21.4650 C.ar  1335  PMP1335     0.0261
      9  C6        10.9220   14.5080   20.4770 C.ar  1335  PMP1335     0.0965
     10  C5A       10.4890   14.7480   22.9160 C.3   1335  PMP1335     0.1815
     11  O4P        9.4580   14.0130   23.5820 O.3   1335  PMP1335    -0.2653
     12  P          9.7680   13.1990   24.9370 P.3   1335  PMP1335     0.5329
     13  O1P       11.1000   13.8260   25.5850 O.3   1335  PMP1335    -0.1145
     14  O2P        9.8860   11.7440   24.6890 O.2   1335  PMP1335    -0.2224
     15  O3P        8.5630   13.5540   25.9440 O.3   1335  PMP1335    -0.1145
@<TRIPOS>BOND
     1     3     2    1
     2     2     1   ar
     3     2     4   ar
     4     1     9   ar
     5     5     4    1
     6     4     6   ar
     7     9     8   ar
     8     6     8   ar
     9     6     7    1
    10     8    10    1
    11    10    11    1
    12    11    12    1
    13    14    12    2
    14    12    13    1
    15    12    15    1
