@<TRIPOS>MOLECULE
1uu3_LY4_A_1.pdb
 35 40 0 0 0
SMALL
GASTEIGER

@<TRIPOS>ATOM
      1  CBD       23.0590   81.7310   26.8680 C.3   1374  LY41374     0.0554
      2  CBB       23.0500   80.4080   26.1420 C.3   1374  LY41374     0.1086
      3  NAW       23.8550   79.3070   26.6980 N.ar  1374  LY41374    -0.3260
      4  CAV       25.1760   79.4250   27.0870 C.ar  1374  LY41374     0.0766
      5  CAX       23.5690   78.0220   26.6870 C.ar  1374  LY41374     0.0599
      6  CAY       22.3960   77.3450   26.2970 C.ar  1374  LY41374     0.0172
      7  CAZ       22.3460   75.9380   26.4140 C.ar  1374  LY41374     0.0015
      8  CAP       23.4110   75.1900   26.9230 C.ar  1374  LY41374     0.0001
      9  CAO       24.5970   75.8670   27.3000 C.ar  1374  LY41374     0.0015
     10  CAN       24.6690   77.2950   27.1670 C.ar  1374  LY41374     0.0180
     11  CAM       25.6700   78.2160   27.4710 C.ar  1374  LY41374     0.0313
     12  CAH       27.0560   78.0510   27.8410 C.2   1374  LY41374     0.1088
     13  CAE       27.9160   77.0440   27.2890 C.1   1374  LY41374     0.2158
     14  OAF       27.6000   76.1180   26.5140 O.2   1374  LY41374    -0.2086
     15  NAD       29.1960   77.2020   27.7290 N.2   1374  LY41374    -0.2576
     16  CAC       29.2110   78.2680   28.5030 C.1   1374  LY41374     0.2158
     17  OAB       30.2550   78.7090   29.0070 O.2   1374  LY41374    -0.2086
     18  CAG       27.9200   78.8530   28.6560 C.2   1374  LY41374     0.1088
     19  CAL       27.5390   80.0400   29.3640 C.ar  1374  LY41374     0.0313
     20  CAU       26.2840   80.2240   29.8570 C.ar  1374  LY41374     0.0767
     21  CAK       28.2350   81.2450   29.6330 C.ar  1374  LY41374     0.0180
     22  CAJ       29.5680   81.6980   29.3750 C.ar  1374  LY41374     0.0015
     23  CAI       29.9130   82.9930   29.7780 C.ar  1374  LY41374     0.0001
     24  CAQ       28.9970   83.8460   30.4150 C.ar  1374  LY41374     0.0015
     25  CAR       27.6940   83.4060   30.6560 C.ar  1374  LY41374     0.0172
     26  CAS       27.3270   82.1040   30.2570 C.ar  1374  LY41374     0.0600
     27  NAT       26.1650   81.4600   30.3850 N.ar  1374  LY41374    -0.3234
     28  CBA       24.8740   81.9520   30.9420 C.3   1374  LY41374     0.1380
     29  CBC       24.0910   82.5240   29.7510 C.3   1374  LY41374     0.1665
     30  OBE       23.3960   81.3680   29.2220 O.3   1374  LY41374    -0.3527
     31  CBF       22.3860   81.6410   28.2390 C.3   1374  LY41374     0.1331
     32  CBG       21.4570   80.4140   28.4010 C.3   1374  LY41374     0.1021
     33  NBH       20.6680   80.4240   29.6780 N.3   1374  LY41374    -0.2682
     34  CBI       19.4060   79.6900   29.4820 C.3   1374  LY41374     0.0897
     35  CBJ       21.3580   79.6600   30.7500 C.3   1374  LY41374     0.0897
@<TRIPOS>BOND
     1     2     3    1
     2     2     1    1
     3     6     7   ar
     4     6     5   ar
     5     7     8   ar
     6    14    13    2
     7     5     3   ar
     8     5    10   ar
     9     3     4   ar
    10     1    31    1
    11     8     9   ar
    12     4    11   ar
    13    10     9   ar
    14    10    11   ar
    15    13    15    2
    16    13    12    1
    17    11    12    1
    18    15    16    2
    19    12    18    2
    20    31    32    1
    21    31    30    1
    22    32    33    1
    23    16    18    1
    24    16    17    2
    25    18    19    1
    26    30    29    1
    27    19    21   ar
    28    19    20   ar
    29    22    21   ar
    30    22    23   ar
    31    34    33    1
    32    21    26   ar
    33    33    35    1
    34    29    28    1
    35    23    24   ar
    36    20    27   ar
    37    26    27   ar
    38    26    25   ar
    39    27    28    1
    40    24    25   ar
