@<TRIPOS>MOLECULE
1uu4_BGC_A_1.pdb
 12 12 0 0 0
SMALL
GASTEIGER

@<TRIPOS>ATOM
      1  C2         0.6140   32.7710   52.9330 C.3   301  BGC301      0.2434
      2  C3         1.1290   31.3490   52.7470 C.3   301  BGC301      0.2199
      3  C4         0.1340   30.3040   53.2650 C.3   301  BGC301      0.2144
      4  C5        -1.3100   30.6510   52.8990 C.3   301  BGC301      0.1836
      5  C6        -2.3310   29.8060   53.6530 C.3   301  BGC301      0.2142
      6  C1        -0.8170   32.8830   52.4280 C.3   301  BGC301      0.3024
      7  O1        -1.2880   34.1990   52.5830 O.3   301  BGC301     -0.1869
      8  O2         1.4480   33.6620   52.2180 O.3   301  BGC301     -0.2148
      9  O3         2.3520   31.2030   53.4310 O.3   301  BGC301     -0.2174
     10  O4         0.4310   29.0950   52.6090 O.3   301  BGC301     -0.2176
     11  O5        -1.5890   32.0000   53.2140 O.3   301  BGC301     -0.3236
     12  O6        -3.6450   30.0660   53.1840 O.3   301  BGC301     -0.2176
@<TRIPOS>BOND
     1     8     1    1
     2     6     7    1
     3     6     1    1
     4     6    11    1
     5    10     3    1
     6     2     1    1
     7     2     3    1
     8     2     9    1
     9     4    11    1
    10     4     3    1
    11     4     5    1
    12    12     5    1
