@<TRIPOS>MOLECULE
1uu5_BGC_A_1.pdb
 12 12 0 0 0
SMALL
GASTEIGER

@<TRIPOS>ATOM
      1  C2         5.9690   25.3220   53.8340 C.3   301  BGC301      0.2434
      2  C3         7.0240   24.5040   54.5900 C.3   301  BGC301      0.2199
      3  C4         6.4240   23.7870   55.7980 C.3   301  BGC301      0.2144
      4  C5         5.2220   22.9690   55.2960 C.3   301  BGC301      0.1836
      5  C6         4.4930   22.2250   56.4120 C.3   301  BGC301      0.2142
      6  C1         4.7290   24.4860   53.5160 C.3   301  BGC301      0.3024
      7  O1         3.6920   25.3350   53.0650 O.3   301  BGC301     -0.1869
      8  O2         6.4910   25.8750   52.6290 O.3   301  BGC301     -0.2148
      9  O3         8.0340   25.3880   55.0260 O.3   301  BGC301     -0.2174
     10  O4         7.3560   22.8640   56.3420 O.3   301  BGC301     -0.2176
     11  O5         4.2750   23.8360   54.6820 O.3   301  BGC301     -0.3236
     12  O6         4.0170   23.1480   57.3670 O.3   301  BGC301     -0.2176
@<TRIPOS>BOND
     1     8     1    1
     2     7     6    1
     3     6     1    1
     4     6    11    1
     5     1     2    1
     6     2     9    1
     7     2     3    1
     8    11     4    1
     9     4     3    1
    10     4     5    1
    11     3    10    1
    12     5    12    1
