@<TRIPOS>MOLECULE
1uu6_BGC_A_1.pdb
 12 12 0 0 0
SMALL
GASTEIGER

@<TRIPOS>ATOM
      1  C2         0.6130   32.7760   52.8610 C.3   301  BGC301      0.2434
      2  C3         1.1190   31.3440   52.6950 C.3   301  BGC301      0.2199
      3  C4         0.1220   30.2920   53.2000 C.3   301  BGC301      0.2144
      4  C5        -1.3380   30.6480   52.8710 C.3   301  BGC301      0.1836
      5  C6        -2.3630   29.7900   53.6200 C.3   301  BGC301      0.2142
      6  C1        -0.8400   32.8960   52.4140 C.3   301  BGC301      0.3024
      7  O1        -1.3050   34.2140   52.6040 O.3   301  BGC301     -0.1869
      8  O2         1.4160   33.6400   52.0840 O.3   301  BGC301     -0.2148
      9  O3         2.3490   31.2000   53.3760 O.3   301  BGC301     -0.2174
     10  O4         0.4360   29.0900   52.5300 O.3   301  BGC301     -0.2176
     11  O5        -1.5990   32.0000   53.1980 O.3   301  BGC301     -0.3236
     12  O6        -3.7010   30.0710   53.2230 O.3   301  BGC301     -0.2176
@<TRIPOS>BOND
     1     8     1    1
     2     6     7    1
     3     6     1    1
     4     6    11    1
     5    10     3    1
     6     2     1    1
     7     2     3    1
     8     2     9    1
     9     4    11    1
    10     4     3    1
    11     4     5    1
    12    12     5    1
