@<TRIPOS>MOLECULE
1uu7_BI2_A_1.pdb
 33 38 0 0 0
SMALL
GASTEIGER

@<TRIPOS>ATOM
      1  CBD       18.6890   83.9280    4.3630 C.3   1364  BI21364     0.0896
      2  NBC       19.9450   83.5080    3.7070 N.3   1364  BI21364    -0.2727
      3  CBG       20.5210   82.2620    4.2770 C.3   1364  BI21364     0.0721
      4  CBF       21.9460   82.2090    3.6800 C.3   1364  BI21364     0.0187
      5  CBE       22.2500   83.6460    3.2430 C.3   1364  BI21364     0.0175
      6  CBB       21.0630   84.4870    3.7610 C.3   1364  BI21364     0.0595
      7  CBA       21.4020   85.0010    5.1750 C.3   1364  BI21364     0.0404
      8  CAY       20.1980   85.4350    5.9630 C.3   1364  BI21364     0.1075
      9  NAH       19.7680   86.7530    5.4820 N.ar  1364  BI21364    -0.3260
     10  CAW       20.5920   87.7290    5.1220 C.ar  1364  BI21364     0.0766
     11  CAE       18.5130   87.1270    5.3790 C.ar  1364  BI21364     0.0599
     12  CAF       17.3290   86.4700    5.6670 C.ar  1364  BI21364     0.0172
     13  CAA       16.1320   87.1340    5.4650 C.ar  1364  BI21364     0.0015
     14  CAB       16.1300   88.4520    5.0050 C.ar  1364  BI21364     0.0001
     15  CAC       17.3200   89.0890    4.7140 C.ar  1364  BI21364     0.0015
     16  CAD       18.5230   88.4440    4.9160 C.ar  1364  BI21364     0.0180
     17  CAG       19.8680   88.7840    4.7430 C.ar  1364  BI21364     0.0313
     18  CAI       20.4090   90.0330    4.3520 C.2   1364  BI21364     0.1088
     19  CAT       19.9070   91.2750    4.7540 C.1   1364  BI21364     0.2158
     20  OAZ       18.8500   91.4110    5.3880 O.2   1364  BI21364    -0.2086
     21  NAU       20.7090   92.2810    4.2890 N.2   1364  BI21364    -0.2576
     22  CAV       21.7390   91.7180    3.6540 C.1   1364  BI21364     0.2158
     23  OAX       22.6650   92.3310    3.1180 O.2   1364  BI21364    -0.2086
     24  CAJ       21.6200   90.3180    3.6780 C.2   1364  BI21364     0.1089
     25  CAK       22.5690   89.4440    3.0950 C.2   1364  BI21364     0.0329
     26  CAM       22.3480   88.2270    2.4390 C.2   1364  BI21364     0.0161
     27  CAP       21.2300   87.4430    2.1230 C.2   1364  BI21364     0.0009
     28  CAQ       21.3870   86.2200    1.4310 C.2   1364  BI21364    -0.0041
     29  CAR       22.6620   85.7860    1.0810 C.2   1364  BI21364    -0.0198
     30  CAS       23.7700   86.5690    1.3950 C.3   1364  BI21364     0.0717
     31  CAN       23.6040   87.7850    2.0710 C.2   1364  BI21364     0.0634
     32  NAO       24.4980   88.6860    2.4720 N.2   1364  BI21364    -0.2478
     33  CAL       23.8890   89.6770    3.0760 C.2   1364  BI21364     0.0992
@<TRIPOS>BOND
     1    29    30    1
     2    29    28    2
     3    30    31    1
     4    28    27    1
     5    31    26    1
     6    31    32    2
     7    27    26    2
     8    26    25    1
     9    32    33    1
    10    33    25    2
    11    25    24    1
    12    23    22    2
    13     5     4    1
    14     5     6    1
    15    22    24    1
    16    22    21    2
    17    24    18    2
    18     4     3    1
    19     2     6    1
    20     2     3    1
    21     2     1    1
    22     6     7    1
    23    21    19    2
    24    18    17    1
    25    18    19    1
    26    15    16   ar
    27    15    14   ar
    28    17    16   ar
    29    17    10   ar
    30    19    20    2
    31    16    11   ar
    32    14    13   ar
    33    10     9   ar
    34     7     8    1
    35    11     9   ar
    36    11    12   ar
    37    13    12   ar
    38     9     8    1
