@<TRIPOS>MOLECULE
1uu8_BI1_A_1.pdb
 31 35 0 0 0
SMALL
GASTEIGER

@<TRIPOS>ATOM
      1  CBD       21.2110   82.7320   28.9170 C.3   1368  BI11368     0.0897
      2  NBC       22.0130   83.1720   27.7670 N.3   1368  BI11368    -0.2703
      3  CBE       21.3240   83.3210   26.4750 C.3   1368  BI11368     0.0897
      4  CBB       23.4430   82.8110   27.7940 C.3   1368  BI11368     0.0742
      5  CBA       24.0330   82.4730   26.4210 C.3   1368  BI11368     0.0418
      6  CAY       23.5990   81.1010   25.8940 C.3   1368  BI11368     0.1075
      7  NAH       24.3450   79.9750   26.4790 N.ar  1368  BI11368    -0.3260
      8  CAW       25.6270   80.0290   26.8540 C.ar  1368  BI11368     0.0766
      9  CAE       23.8380   78.7500   26.6070 C.ar  1368  BI11368     0.0599
     10  CAF       22.6000   78.1790   26.3290 C.ar  1368  BI11368     0.0172
     11  CAA       22.4150   76.8160   26.5390 C.ar  1368  BI11368     0.0015
     12  CAB       23.4610   76.0360   27.0260 C.ar  1368  BI11368     0.0001
     13  CAC       24.6950   76.6180   27.3060 C.ar  1368  BI11368     0.0015
     14  CAD       24.8860   77.9790   27.0950 C.ar  1368  BI11368     0.0180
     15  CAG       25.9910   78.8060   27.2390 C.ar  1368  BI11368     0.0313
     16  CAI       27.3070   78.5400   27.6120 C.2   1368  BI11368     0.1088
     17  CAT       28.0140   77.4010   27.2330 C.1   1368  BI11368     0.2158
     18  OAZ       27.6040   76.4380   26.5910 O.2   1368  BI11368    -0.2086
     19  NAU       29.2570   77.5830   27.6770 N.2   1368  BI11368    -0.2576
     20  CAV       29.4330   78.7400   28.3140 C.1   1368  BI11368     0.2158
     21  OAX       30.4810   79.1680   28.7910 O.2   1368  BI11368    -0.2086
     22  CAJ       28.1920   79.3690   28.2920 C.2   1368  BI11368     0.1089
     23  CAK       27.9160   80.5880   28.9100 C.2   1368  BI11368     0.0330
     24  CAM       26.8090   81.0660   29.5920 C.2   1368  BI11368     0.0160
     25  CAP       25.5640   80.5180   29.8900 C.2   1368  BI11368    -0.0199
     26  CAQ       24.6270   81.2670   30.5960 C.3   1368  BI11368     0.0521
     27  CAR       24.9300   82.5620   31.0100 C.2   1368  BI11368    -0.0199
     28  CAS       26.1750   83.1100   30.7190 C.2   1368  BI11368     0.0149
     29  CAN       27.1060   82.3550   30.0100 C.2   1368  BI11368     0.0808
     30  NAO       28.3460   82.5940   29.5830 N.2   1368  BI11368    -0.2438
     31  CAL       28.8430   81.5430   28.9250 C.2   1368  BI11368     0.0996
@<TRIPOS>BOND
     1     6     5    1
     2     6     7    1
     3    10    11   ar
     4    10     9   ar
     5     5     4    1
     6     3     2    1
     7     7     9   ar
     8     7     8   ar
     9    11    12   ar
    10    18    17    2
    11     9    14   ar
    12     8    15   ar
    13    12    13   ar
    14    14    15   ar
    15    14    13   ar
    16    17    16    1
    17    17    19    2
    18    15    16    1
    19    16    22    2
    20    19    20    2
    21     2     4    1
    22     2     1    1
    23    22    20    1
    24    22    23    1
    25    20    21    2
    26    23    31    2
    27    23    24    1
    28    31    30    1
    29    30    29    2
    30    24    25    2
    31    24    29    1
    32    25    26    1
    33    29    28    1
    34    26    27    1
    35    28    27    2
