@<TRIPOS>MOLECULE
1uu9_BI3_A_1.pdb
 29 33 0 0 0
SMALL
GASTEIGER

@<TRIPOS>ATOM
      1  NBC       22.6160   83.3560   28.2110 N.3   1370  BI31370    -0.1313
      2  CBB       23.4400   82.3390   27.5390 C.3   1370  BI31370     0.1113
      3  CBA       22.5360   81.3210   26.8390 C.3   1370  BI31370     0.0450
      4  CAY       23.3280   80.3940   25.9120 C.3   1370  BI31370     0.1076
      5  NAH       24.1130   79.3600   26.6060 N.ar  1370  BI31370    -0.3260
      6  CAW       25.3650   79.5310   27.0370 C.ar  1370  BI31370     0.0766
      7  CAE       23.7190   78.0900   26.7040 C.ar  1370  BI31370     0.0599
      8  CAF       22.5550   77.4040   26.3670 C.ar  1370  BI31370     0.0172
      9  CAA       22.4960   76.0240   26.5390 C.ar  1370  BI31370     0.0015
     10  CAB       23.5950   75.3400   27.0540 C.ar  1370  BI31370     0.0001
     11  CAC       24.7490   76.0370   27.4000 C.ar  1370  BI31370     0.0015
     12  CAD       24.8180   77.4170   27.2240 C.ar  1370  BI31370     0.0180
     13  CAG       25.8300   78.3430   27.4250 C.ar  1370  BI31370     0.0313
     14  CAI       27.1790   78.1790   27.7460 C.2   1370  BI31370     0.1088
     15  CAT       27.9500   77.1160   27.2840 C.1   1370  BI31370     0.2158
     16  OAZ       27.5760   76.1550   26.6150 O.2   1370  BI31370    -0.2086
     17  NAU       29.1970   77.3600   27.6830 N.2   1370  BI31370    -0.2576
     18  CAV       29.3160   78.4950   28.3720 C.1   1370  BI31370     0.2158
     19  OAX       30.3570   78.9720   28.8250 O.2   1370  BI31370    -0.2086
     20  CAJ       28.0340   79.0350   28.4340 C.2   1370  BI31370     0.1089
     21  CAK       27.7260   80.2170   29.1110 C.2   1370  BI31370     0.0330
     22  CAM       26.5630   80.7200   29.6780 C.2   1370  BI31370     0.0160
     23  CAP       25.3220   80.1590   29.9710 C.2   1370  BI31370    -0.0199
     24  CAQ       24.3180   80.9390   30.5390 C.3   1370  BI31370     0.0521
     25  CAR       24.5460   82.2840   30.8200 C.2   1370  BI31370    -0.0199
     26  CAS       25.7860   82.8490   30.5360 C.2   1370  BI31370     0.0149
     27  CAN       26.7840   82.0610   29.9710 C.2   1370  BI31370     0.0808
     28  NAO       28.0400   82.3060   29.5940 N.2   1370  BI31370    -0.2438
     29  CAL       28.6100   81.2130   29.0800 C.2   1370  BI31370     0.0996
@<TRIPOS>BOND
     1     4     5    1
     2     4     3    1
     3     8     9   ar
     4     8     7   ar
     5     9    10   ar
     6     5     7   ar
     7     5     6   ar
     8    16    15    2
     9     7    12   ar
    10     3     2    1
    11     6    13   ar
    12    10    11   ar
    13    12    11   ar
    14    12    13   ar
    15    15    17    2
    16    15    14    1
    17    13    14    1
    18     2     1    1
    19    17    18    2
    20    14    20    2
    21    18    20    1
    22    18    19    2
    23    20    21    1
    24    29    21    2
    25    29    28    1
    26    21    22    1
    27    28    27    2
    28    22    23    2
    29    22    27    1
    30    23    24    1
    31    27    26    1
    32    26    25    2
    33    24    25    1
