@<TRIPOS>MOLECULE
1uum_AFI_A_1.pdb
 26 29 0 0 0
SMALL
GASTEIGER

@<TRIPOS>ATOM
      1  O1        76.8350   49.3400  135.8670 O.2   400  AFI400     -0.2868
      2  O2        79.0410   44.5180  134.2140 O.2   400  AFI400     -0.2832
      3  C1        77.3390   48.2360  135.4910 C.2   400  AFI400      0.1949
      4  C2        77.6340   47.0750  136.5080 C.2   400  AFI400      0.0585
      5  C3        78.2070   45.8330  136.0220 C.2   400  AFI400      0.2333
      6  C4        78.5360   45.6090  134.6190 C.2   400  AFI400      0.2340
      7  C5        78.5910   46.5320  132.2320 C.ar  400  AFI400      0.0034
      8  C6        78.3400   47.5940  131.2880 C.ar  400  AFI400      0.0001
      9  C7        77.7790   48.8200  131.7200 C.ar  400  AFI400      0.0001
     10  C8        77.4520   49.0300  133.0860 C.ar  400  AFI400      0.0033
     11  C9        77.6860   47.9950  134.0640 C.ar  400  AFI400      0.0419
     12  C10       78.2710   46.7180  133.6200 C.ar  400  AFI400      0.0453
     13  O6        78.4780   44.7660  136.9390 O.2   400  AFI400     -0.2834
     14  C11       78.3150   48.4040  138.7930 C.3   400  AFI400      0.0049
     15  C12       77.5070   49.0540  139.9470 C.3   400  AFI400      0.0047
     16  C13       77.0460   47.9210  140.9040 C.3   400  AFI400      0.0224
     17  C14       75.9130   47.1590  140.1580 C.3   400  AFI400      0.0047
     18  C15       76.5030   46.4230  138.8970 C.3   400  AFI400      0.0049
     19  C16       77.4820   47.3180  137.9920 C.3   400  AFI400      0.0288
     20 CL         75.9750   49.8070  146.6490 Cl    400  AFI400     -0.0822
     21  C17       76.7530   48.4030  142.3230 C.ar  400  AFI400     -0.0225
     22  C18       77.4820   47.8390  143.4470 C.ar  400  AFI400     -0.0034
     23  C19       77.2550   48.2600  144.8060 C.ar  400  AFI400      0.0111
     24  C20       76.2600   49.2800  145.0110 C.ar  400  AFI400      0.0577
     25  C21       75.4870   49.8900  143.9230 C.ar  400  AFI400      0.0111
     26  C22       75.7590   49.4290  142.5890 C.ar  400  AFI400     -0.0034
@<TRIPOS>BOND
     1     8     9   ar
     2     8     7   ar
     3     9    10   ar
     4     7    12   ar
     5    10    11   ar
     6    12    11   ar
     7    12     6    1
     8    11     3    1
     9     2     6    2
    10     6     5    1
    11     3     1    2
    12     3     4    1
    13     5     4    2
    14     5    13    1
    15     4    19    1
    16    19    14    1
    17    19    18    1
    18    14    15    1
    19    18    17    1
    20    15    16    1
    21    17    16    1
    22    16    21    1
    23    21    26   ar
    24    21    22   ar
    25    26    25   ar
    26    22    23   ar
    27    25    24   ar
    28    23    24   ar
    29    24    20    1
