@<TRIPOS>MOLECULE
1uum_FMN_A_1.pdb
 31 33 0 0 0
SMALL
GASTEIGER

@<TRIPOS>ATOM
      1  N1        80.7400   56.6230  124.8900 N.2   398  FMN398     -0.2890
      2  C2        79.9410   57.4430  124.1570 C.1   398  FMN398      0.3669
      3  O2        80.2910   58.5050  123.6840 O.2   398  FMN398     -0.1744
      4  N3        78.5860   57.0220  123.9320 N.2   398  FMN398     -0.2300
      5  C4        78.0560   55.8560  124.3970 C.1   398  FMN398      0.2513
      6  O4        76.8710   55.5650  124.1580 O.2   398  FMN398     -0.2057
      7  C4A       78.9190   54.9820  125.1710 C.2   398  FMN398      0.2700
      8  N5        78.4730   53.8180  125.6580 N.2   398  FMN398     -0.3878
      9  C5A       79.3160   53.0190  126.4100 C.2   398  FMN398      0.1320
     10  C6        78.8780   51.7440  126.9710 C.2   398  FMN398      0.0250
     11  C7        79.6790   50.9280  127.7390 C.2   398  FMN398     -0.0238
     12  C7M       79.1960   49.6010  128.3210 C.3   398  FMN398      0.0308
     13  C8        81.0480   51.3490  128.0210 C.2   398  FMN398     -0.0280
     14  C8M       82.0090   50.5440  128.8690 C.3   398  FMN398      0.0304
     15  C9        81.4800   52.5530  127.4830 C.2   398  FMN398     -0.0041
     16  C9A       80.6830   53.4060  126.6930 C.3   398  FMN398      0.1497
     17  N10       81.1240   54.6480  126.1410 N.pl3 398  FMN398     -0.2691
     18  C10       80.3110   55.4660  125.3910 C.2   398  FMN398      0.2416
     19  C1'       82.5210   55.0680  126.3980 C.3   398  FMN398      0.1294
     20  C2'       82.7600   55.7990  127.7090 C.3   398  FMN398      0.2044
     21  O2'       82.0490   57.0500  127.7230 O.3   398  FMN398     -0.2185
     22  C3'       84.2570   56.1290  127.9020 C.3   398  FMN398      0.2164
     23  O3'       84.6930   56.9540  126.7930 O.3   398  FMN398     -0.2175
     24  C4'       85.1700   54.9030  127.9190 C.3   398  FMN398      0.2147
     25  O4'       84.4740   53.7470  128.4620 O.3   398  FMN398     -0.2176
     26  C5'       86.4370   55.0940  128.7120 C.3   398  FMN398      0.1892
     27  O5'       86.1770   55.3900  130.0840 O.3   398  FMN398     -0.2674
     28  P         86.2430   54.3220  131.2640 P.3   398  FMN398      0.5327
     29  O1P       86.1830   55.1050  132.5280 O.3   398  FMN398     -0.1145
     30  O2P       85.0040   53.4570  131.0740 O.3   398  FMN398     -0.1145
     31  O3P       87.5410   53.5360  131.0390 O.2   398  FMN398     -0.2224
@<TRIPOS>BOND
     1     3     2    2
     2     4     2    2
     3     4     5    2
     4     2     1    2
     5     6     5    2
     6     5     7    1
     7     1    18    2
     8     7    18    1
     9     7     8    2
    10    18    17    1
    11     8     9    2
    12    17    19    1
    13    17    16    1
    14    19    20    1
    15     9    16    1
    16     9    10    1
    17    16    15    1
    18    23    22    1
    19    10    11    2
    20    15    13    2
    21    20    21    1
    22    20    22    1
    23    11    13    1
    24    11    12    1
    25    22    24    1
    26    24    25    1
    27    24    26    1
    28    13    14    1
    29    26    27    1
    30    27    28    1
    31    31    28    2
    32    30    28    1
    33    28    29    1
