@<TRIPOS>MOLECULE
1uuo_FMN_A_1.pdb
 31 33 0 0 0
SMALL
GASTEIGER

@<TRIPOS>ATOM
      1  N1        21.4200   30.5110  126.4530 N.2   1398  FMN1398    -0.2890
      2  C2        22.1520   31.6020  126.0520 C.1   1398  FMN1398     0.3669
      3  O2        22.5970   32.4480  126.7930 O.2   1398  FMN1398    -0.1744
      4  N3        22.4060   31.7530  124.6510 N.2   1398  FMN1398    -0.2300
      5  C4        21.9680   30.8800  123.7000 C.1   1398  FMN1398     0.2513
      6  O4        22.2300   31.0820  122.4990 O.2   1398  FMN1398    -0.2057
      7  C4A       21.1910   29.7210  124.1360 C.2   1398  FMN1398     0.2700
      8  N5        20.7340   28.8210  123.2540 N.2   1398  FMN1398    -0.3878
      9  C5A       19.9760   27.7540  123.6910 C.2   1398  FMN1398     0.1320
     10  C6        19.4400   26.7540  122.7680 C.2   1398  FMN1398     0.0250
     11  C7        18.6670   25.6830  123.1620 C.2   1398  FMN1398    -0.0238
     12  C7M       18.0930   24.6510  122.1690 C.3   1398  FMN1398     0.0308
     13  C8        18.3830   25.5100  124.5980 C.2   1398  FMN1398    -0.0280
     14  C8M       17.5490   24.3870  125.1460 C.3   1398  FMN1398     0.0304
     15  C9        18.8950   26.4450  125.4860 C.2   1398  FMN1398    -0.0041
     16  C9A       19.6940   27.5450  125.1070 C.3   1398  FMN1398     0.1497
     17  N10       20.1990   28.5260  126.0150 N.pl3 1398  FMN1398    -0.2691
     18  C10       20.9590   29.6050  125.6020 C.2   1398  FMN1398     0.2416
     19  C1'       19.9160   28.3340  127.4690 C.3   1398  FMN1398     0.1294
     20  C2'       18.6080   28.9400  127.9540 C.3   1398  FMN1398     0.2044
     21  O2'       18.6580   30.3740  127.8390 O.3   1398  FMN1398    -0.2185
     22  C3'       18.3450   28.6390  129.4440 C.3   1398  FMN1398     0.2164
     23  O3'       19.4430   29.1920  130.2340 O.3   1398  FMN1398    -0.2175
     24  C4'       18.2550   27.1400  129.7840 C.3   1398  FMN1398     0.2147
     25  O4'       17.6770   26.3690  128.6930 O.3   1398  FMN1398    -0.2176
     26  C5'       17.4510   26.8370  131.0230 C.3   1398  FMN1398     0.1892
     27  O5'       16.0550   27.1300  130.8620 O.3   1398  FMN1398    -0.2674
     28  P         14.9230   26.0750  130.4360 P.3   1398  FMN1398     0.5327
     29  O1P       13.6150   26.7520  130.7250 O.3   1398  FMN1398    -0.1145
     30  O2P       15.1270   25.8530  128.9340 O.2   1398  FMN1398    -0.2224
     31  O3P       15.2030   24.8090  131.2540 O.3   1398  FMN1398    -0.1145
@<TRIPOS>BOND
     1    12    11    1
     2     6     5    2
     3    10    11    2
     4    10     9    1
     5    11    13    1
     6     8     9    2
     7     8     7    2
     8     9    16    1
     9     5     7    1
    10     5     4    2
    11     7    18    1
    12    13    14    1
    13    13    15    2
    14     4     2    2
    15    16    15    1
    16    16    17    1
    17    18    17    1
    18    18     1    2
    19    17    19    1
    20     2     1    2
    21     2     3    2
    22    19    20    1
    23    21    20    1
    24    20    22    1
    25    25    24    1
    26    30    28    2
    27    22    24    1
    28    22    23    1
    29    24    26    1
    30    28    29    1
    31    28    27    1
    32    28    31    1
    33    27    26    1
