@<TRIPOS>MOLECULE
1uuo_BRF_A_1.pdb
 28 31 0 0 0
SMALL
GASTEIGER

@<TRIPOS>ATOM
      1  C1         8.2640   20.9990  118.7190 C.3   1397  BRF1397     0.0124
      2  C2         9.4500   21.9250  119.0090 C.3   1397  BRF1397     0.0812
      3  C3         9.3210   23.3790  119.0070 C.2   1397  BRF1397     0.1128
      4  C4        10.7750   21.3720  119.2890 C.2   1397  BRF1397     0.0664
      5  N1        10.4450   24.1850  119.2830 N.2   1397  BRF1397    -0.4059
      6  C5        10.9690   19.8650  119.3080 C.2   1397  BRF1397     0.3843
      7  C23        8.0970   24.2340  118.7690 C.ar  1397  BRF1397     0.0257
      8  C6        11.9180   22.2450  119.5780 C.ar  1397  BRF1397     0.0346
      9  C7        11.6850   23.6860  119.5480 C.ar  1397  BRF1397     0.1310
     10  C8         7.3190   24.1310  117.5310 C.ar  1397  BRF1397     0.0022
     11  C9         7.7120   25.1680  119.8060 C.ar  1397  BRF1397     0.0022
     12  O1        10.5900   19.1450  120.1820 O.co2 1397  BRF1397    -0.2409
     13  O2        11.6250   19.3630  118.2400 O.co2 1397  BRF1397    -0.2409
     14  C10       13.2550   21.7990  119.8760 C.ar  1397  BRF1397     0.0321
     15  C11       12.7640   24.6220  119.8200 C.ar  1397  BRF1397     0.0343
     16  C12        6.1800   24.9840  117.4090 C.ar  1397  BRF1397     0.0001
     17  C13        6.5660   26.0120  119.6590 C.ar  1397  BRF1397     0.0001
     18  C14       14.3190   22.7050  120.1460 C.ar  1397  BRF1397     0.1403
     19  C15       14.0860   24.1440  120.1190 C.ar  1397  BRF1397     0.0323
     20  C16        5.7740   25.9240  118.4320 C.ar  1397  BRF1397     0.0022
     21  F1        15.4440   22.2620  120.4070 F     1397  BRF1397    -0.2042
     22  C17        4.5350   26.8210  118.2480 C.ar  1397  BRF1397     0.0275
     23  C18        3.2090   26.3060  117.9090 C.ar  1397  BRF1397     0.1401
     24  C19        4.7150   28.2640  118.4240 C.ar  1397  BRF1397     0.0022
     25  C20        2.1200   27.2310  117.7610 C.ar  1397  BRF1397     0.0296
     26  C21        2.3080   28.6450  117.9360 C.ar  1397  BRF1397     0.0023
     27  C22        3.6090   29.1650  118.2700 C.ar  1397  BRF1397     0.0001
     28  F2         3.0190   25.1420  117.7580 F     1397  BRF1397    -0.2042
@<TRIPOS>BOND
     1    16    10   ar
     2    16    20   ar
     3    10     7   ar
     4    28    23    1
     5    25    23   ar
     6    25    26   ar
     7    23    22   ar
     8    26    27   ar
     9    13     6   ar
    10    22    24   ar
    11    22    20    1
    12    27    24   ar
    13    20    17   ar
    14     1     2    1
    15     7     3    1
    16     7    11   ar
    17     3     2    1
    18     3     5    2
    19     2     4    1
    20     5     9    2
    21     4     6    1
    22     4     8    2
    23     6    12   ar
    24     9     8   ar
    25     9    15   ar
    26     8    14   ar
    27    17    11   ar
    28    15    19   ar
    29    14    18   ar
    30    19    18   ar
    31    18    21    1
