@<TRIPOS>MOLECULE
1uuy_AMP_A_1.pdb
 22 24 0 0 0
SMALL
GASTEIGER

@<TRIPOS>ATOM
      1  P         28.6140  108.9800  170.1810 P.3   1165  AMP1165     0.3942
      2  O1P       29.3470  107.7350  170.5160 O.3   1165  AMP1165    -0.1425
      3  O2P       27.3620  109.1720  171.0640 O.3   1165  AMP1165    -0.1425
      4  O5'       29.6360  110.2330  170.2470 O.3   1165  AMP1165    -0.2926
      5  C5'       30.8660  110.1840  169.5560 C.3   1165  AMP1165     0.1831
      6  C4'       31.8810  110.9840  170.3530 C.3   1165  AMP1165     0.1822
      7  O4'       31.4440  112.3290  170.4240 O.3   1165  AMP1165    -0.3135
      8  C3'       32.0400  110.4730  171.7800 C.3   1165  AMP1165     0.2184
      9  O3'       33.1450  109.6090  171.9160 O.3   1165  AMP1165    -0.2174
     10  C2'       32.1950  111.7350  172.6050 C.3   1165  AMP1165     0.2570
     11  O2'       33.5530  112.0160  172.8540 O.3   1165  AMP1165    -0.2130
     12  C1'       31.5610  112.8220  171.7470 C.3   1165  AMP1165     0.3186
     13  N9        30.2250  113.1720  172.2730 N.pl3 1165  AMP1165    -0.1439
     14  C8        29.0140  112.5550  172.0340 C.3   1165  AMP1165     0.3377
     15  N7        28.0460  113.2070  172.7260 N.2   1165  AMP1165    -0.2095
     16  C5        28.6230  114.2320  173.3940 C.2   1165  AMP1165     0.2526
     17  C6        28.1140  115.2150  174.2350 C.2   1165  AMP1165     0.4393
     18  N6        26.8270  115.2810  174.5380 N.pl3 1165  AMP1165     0.2180
     19  N1        28.9930  116.1020  174.7700 N.2   1165  AMP1165     0.0021
     20  C2        30.3420  116.0810  174.4900 C.3   1165  AMP1165     0.5254
     21  N3        30.8430  115.1220  173.6440 N.2   1165  AMP1165    -0.0055
     22  C4        29.9880  114.2130  173.1180 C.2   1165  AMP1165     0.3518
@<TRIPOS>BOND
     1     5     4    1
     2     5     6    1
     3     1     4    1
     4     1     2    1
     5     1     3    1
     6     6     7    1
     7     6     8    1
     8     7    12    1
     9    12    13    1
    10    12    10    1
    11     8     9    1
    12     8    10    1
    13    14    13    1
    14    14    15    1
    15    13    22    1
    16    10    11    1
    17    15    16    2
    18    22    16    1
    19    22    21    2
    20    16    17    1
    21    21    20    1
    22    17    18    1
    23    17    19    2
    24    20    19    1
