@<TRIPOS>MOLECULE
1uv5_BRW_A_1.pdb
 22 25 0 0 0
SMALL
GASTEIGER

@<TRIPOS>ATOM
      1  C1        94.4050   70.4080    9.0940 C.2   1383  BRW1383     0.0492
      2  C2        93.6770   69.2510    9.6020 C.2   1383  BRW1383     0.1564
      3  C3        95.8080   69.9820    8.9830 C.2   1383  BRW1383     0.1325
      4  N4        95.9110   68.6700    9.4220 N.2   1383  BRW1383    -0.3995
      5  C5        96.7740   70.8130    8.5200 C.2   1383  BRW1383     0.0279
      6  C7        96.3780   72.1900    8.0950 C.2   1383  BRW1383    -0.0188
      7  C9        95.0750   72.5910    8.1940 C.3   1383  BRW1383     0.0522
      8  C11       94.0260   71.6650    8.7170 C.2   1383  BRW1383    -0.0172
      9  C13       94.6330   68.1680    9.7880 C.2   1383  BRW1383     0.1642
     10  C14       94.4910   66.9140   10.1660 C.2   1383  BRW1383     0.1282
     11  C15       95.6430   65.9960   10.3510 C.1   1383  BRW1383     0.2073
     12  N16       95.1640   64.7120   10.7300 N.2   1383  BRW1383    -0.3328
     13  C17       93.7740   64.7930   10.7470 C.ar  1383  BRW1383     0.1456
     14  C18       93.3300   66.0630   10.4740 C.ar  1383  BRW1383     0.0451
     15  C19       92.8460   63.6800   11.0240 C.ar  1383  BRW1383     0.0397
     16  C20       91.5070   63.9220   10.9670 C.ar  1383  BRW1383     0.0371
     17  C21       91.0280   65.2800   10.6910 C.ar  1383  BRW1383     0.0069
     18  C22       91.8820   66.2900   10.4400 C.ar  1383  BRW1383     0.0039
     19  O23       96.8360   66.2770   10.2010 O.2   1383  BRW1383    -0.2092
     20  N24       92.4400   69.1550    9.8700 N.2   1383  BRW1383    -0.0267
     21  O39       91.4560   70.0230    9.7820 O.2   1383  BRW1383    -0.1431
     22 BR21       90.2400   62.5480   11.2000 Br    1383  BRW1383    -0.0489
@<TRIPOS>BOND
     1     6     7    1
     2     6     5    2
     3     7     8    1
     4     5     3    1
     5     8     1    2
     6     3     1    1
     7     3     4    2
     8     1     2    1
     9     4     9    2
    10     2     9    1
    11     2    20    2
    12    21    20    1
    13     9    10    1
    14    10    11    1
    15    10    14    2
    16    19    11    2
    17    11    12    2
    18    18    14   ar
    19    18    17   ar
    20    14    13   ar
    21    17    16   ar
    22    12    13    2
    23    13    15   ar
    24    16    15   ar
    25    16    22    1
