@<TRIPOS>MOLECULE
1uv6_CCE_C_1.pdb
 10 9 0 0 0
SMALL
GASTEIGER

@<TRIPOS>ATOM
      1  N1       138.2390  125.0330   87.5690 N.4   1206  CCE1206     0.3882
      2  C2       138.5130  124.8230   86.1350 C.3   1206  CCE1206    -0.0250
      3  C3       138.5250  123.3600   85.6930 C.3   1206  CCE1206     0.1882
      4  O4       138.8370  123.2630   84.2910 O.3   1206  CCE1206    -0.4347
      5  C5       137.9650  122.5310   83.3580 C.2   1206  CCE1206     0.4410
      6  O7       138.3260  122.4610   82.2050 O.2   1206  CCE1206    -0.2228
      7  C8       137.0350  124.2980   88.0220 C.3   1206  CCE1206    -0.0958
      8  C9       139.4300  124.6350   88.3690 C.3   1206  CCE1206    -0.0958
      9  C10      137.9670  126.4770   87.7550 C.3   1206  CCE1206    -0.0958
     10  N6       136.8360  121.9630   83.7780 N.am  1206  CCE1206    -0.0475
@<TRIPOS>BOND
     1     6     5    2
     2     5    10   am
     3     5     4    1
     4     4     3    1
     5     3     2    1
     6     2     1    1
     7     1     9    1
     8     1     7    1
     9     1     8    1
