@<TRIPOS>MOLECULE
1uvn_GTP_A_1.pdb
 32 34 0 0 0
SMALL
GASTEIGER

@<TRIPOS>ATOM
      1  PG        15.0740    7.7050   25.0510 P.3   1665  GTP1665     0.5373
      2  O1G       14.1210    8.5480   24.1950 O.2   1665  GTP1665    -0.2221
      3  O2G       14.5790    7.3540   26.4640 O.3   1665  GTP1665    -0.1143
      4  O3G       16.3650    8.3540   25.0520 O.3   1665  GTP1665    -0.1143
      5  O3B       15.2560    6.3190   24.1460 O.3   1665  GTP1665    -0.2258
      6  PB        14.5900    4.7980   24.3100 P.3   1665  GTP1665     0.2277
      7  O1B       15.3840    3.8280   23.4170 O.2   1665  GTP1665    -0.5168
      8  O2B       14.5960    4.4950   25.7550 O.3   1665  GTP1665    -0.4368
      9  O3A       13.1060    5.0070   23.7670 O.3   1665  GTP1665    -0.2700
     10  PA        11.6390    4.9630   24.4880 P.3   1665  GTP1665     0.2189
     11  O1A       11.6910    5.2140   25.9320 O.3   1665  GTP1665    -0.4371
     12  O2A       10.7890    5.9320   23.6390 O.2   1665  GTP1665    -0.5170
     13  O5'       11.1920    3.3590   24.3240 O.3   1665  GTP1665    -0.3112
     14  C5'       11.0740    2.9000   22.9150 C.3   1665  GTP1665     0.1813
     15  C4'       10.0500    1.6700   23.1770 C.3   1665  GTP1665     0.1799
     16  O4'       10.6000    0.5610   23.9400 O.3   1665  GTP1665    -0.3326
     17  C3'        8.7570    1.9920   23.8060 C.3   1665  GTP1665     0.2158
     18  O3'        7.7710    2.3300   22.8670 O.3   1665  GTP1665    -0.2175
     19  C2'        8.2870    0.8400   24.7640 C.3   1665  GTP1665     0.2310
     20  O2'        7.3790    0.0260   24.2440 O.3   1665  GTP1665    -0.2158
     21  C1'        9.7700    0.0700   25.0040 C.3   1665  GTP1665     0.2293
     22  N9        10.3630    0.4190   26.4020 N.pl3 1665  GTP1665    -0.2354
     23  C8        10.8720    1.6840   26.7870 C.3   1665  GTP1665     0.2246
     24  N7        11.2360    1.3820   28.0650 N.2   1665  GTP1665    -0.2322
     25  C5        10.9930    0.0570   28.4790 C.2   1665  GTP1665     0.2182
     26  C6        11.2320   -0.4970   29.6120 C.1   1665  GTP1665     0.2372
     27  O6        11.7220   -0.2160   30.7600 O.2   1665  GTP1665    -0.2069
     28  N1        10.7890   -1.9880   29.6020 N.2   1665  GTP1665    -0.2485
     29  C2        10.2660   -2.4160   28.4790 C.1   1665  GTP1665     0.2531
     30  N2         9.8320   -3.8500   28.4740 N.pl3 1665  GTP1665    -0.0226
     31  N3        10.0200   -1.8260   27.3030 N.2   1665  GTP1665    -0.3074
     32  C4        10.4440   -0.5210   27.3960 C.2   1665  GTP1665     0.2300
@<TRIPOS>BOND
     1    18    17    1
     2    14    15    1
     3    14    13    1
     4    15    17    1
     5    15    16    1
     6     7     6    2
     7    12    10    2
     8     9     6    1
     9     9    10    1
    10    17    19    1
    11    16    21    1
    12     5     6    1
    13     5     1    1
    14     2     1    2
    15    20    19    1
    16     6     8    1
    17    13    10    1
    18    10    11    1
    19    19    21    1
    20    21    22    1
    21     1     4    1
    22     1     3    1
    23    22    23    1
    24    22    32    1
    25    23    24    1
    26    31    32    2
    27    31    29    2
    28    32    25    1
    29    24    25    2
    30    30    29    1
    31    25    26    1
    32    29    28    2
    33    28    26    2
    34    26    27    2
