@<TRIPOS>MOLECULE
1uvq_FUC_B_1.pdb
 10 10 0 0 0
SMALL
GASTEIGER

@<TRIPOS>ATOM
      1  C1       102.6430   23.7750    7.2900 C.3   1194  FUC1194     0.1776
      2  C2       103.4310   24.6730    6.3220 C.3   1194  FUC1194     0.2141
      3  C3       102.5430   25.7960    5.7710 C.3   1194  FUC1194     0.2172
      4  C4       101.8740   26.5580    6.9200 C.3   1194  FUC1194     0.2116
      5  C5       101.1150   25.5750    7.8150 C.3   1194  FUC1194     0.1483
      6  C6       100.4870   26.2440    9.0230 C.3   1194  FUC1194     0.0349
      7  O2       103.9350   23.8960    5.2460 O.3   1194  FUC1194    -0.2176
      8  O3       103.3340   26.6920    5.0010 O.3   1194  FUC1194    -0.2175
      9  O4       102.8620   27.2370    7.6850 O.3   1194  FUC1194    -0.2177
     10  O5       102.0210   24.5620    8.3090 O.3   1194  FUC1194    -0.3508
@<TRIPOS>BOND
     1     8     3    1
     2     7     2    1
     3     3     2    1
     4     3     4    1
     5     2     1    1
     6     4     9    1
     7     4     5    1
     8     1    10    1
     9     5    10    1
    10     5     6    1
