@<TRIPOS>MOLECULE
1uvr_BI8_A_1.pdb
 30 34 0 0 0
SMALL
GASTEIGER

@<TRIPOS>ATOM
      1  CB0       87.4040   16.4900   14.1670 C.3   1372  BI81372     0.1305
      2  NBC       84.4180   21.8000   12.3560 N.3   1372  BI81372    -0.1313
      3  CBB       83.1690   21.1020   12.0200 C.3   1372  BI81372     0.1113
      4  CBA       83.2120   20.6520   10.5590 C.3   1372  BI81372     0.0450
      5  CAY       81.8490   20.1280   10.1040 C.3   1372  BI81372     0.1076
      6  NAH       81.3960   18.8960   10.7710 N.ar  1372  BI81372    -0.3260
      7  CAW       82.1790   17.8820   11.1540 C.ar  1372  BI81372     0.0766
      8  CAE       80.1010   18.6290   10.9500 C.ar  1372  BI81372     0.0599
      9  CAF       78.9210   19.3190   10.6880 C.ar  1372  BI81372     0.0172
     10  CAA       77.6960   18.7140   10.9550 C.ar  1372  BI81372     0.0015
     11  CAB       77.6610   17.4290   11.4880 C.ar  1372  BI81372     0.0001
     12  CAC       78.8470   16.7490   11.7570 C.ar  1372  BI81372     0.0015
     13  CAD       80.0750   17.3480   11.4840 C.ar  1372  BI81372     0.0180
     14  CAG       81.3860   16.9080   11.6000 C.ar  1372  BI81372     0.0313
     15  CAI       81.8920   15.6350   11.8570 C.2   1372  BI81372     0.1088
     16  CAT       81.2610   14.4680   11.4410 C.1   1372  BI81372     0.2158
     17  OAZ       80.2110   14.3690   10.8080 O.2   1372  BI81372    -0.2086
     18  NAU       82.0450   13.4660   11.8340 N.2   1372  BI81372    -0.2576
     19  CAV       83.1430   13.8710   12.4690 C.1   1372  BI81372     0.2158
     20  OAX       84.0320   13.1500   12.9200 O.2   1372  BI81372    -0.2086
     21  CAJ       83.0700   15.2610   12.4970 C.2   1372  BI81372     0.1088
     22  CAK       84.0190   16.0860   13.0940 C.ar  1372  BI81372     0.0313
     23  CAM       83.9420   17.3390   13.6860 C.ar  1372  BI81372     0.0180
     24  CAP       82.8910   18.2270   13.8920 C.ar  1372  BI81372     0.0015
     25  CAQ       83.1140   19.4350   14.5460 C.ar  1372  BI81372     0.0001
     26  CAR       84.3930   19.7570   14.9930 C.ar  1372  BI81372     0.0015
     27  CAS       85.4480   18.8730   14.7940 C.ar  1372  BI81372     0.0172
     28  CAN       85.2120   17.6660   14.1450 C.ar  1372  BI81372     0.0600
     29  NAO       85.9680   16.6140   13.8290 N.ar  1372  BI81372    -0.3240
     30  CAL       85.2770   15.6620   13.2000 C.ar  1372  BI81372     0.0767
@<TRIPOS>BOND
     1     5     4    1
     2     5     6    1
     3     4     3    1
     4     9     8   ar
     5     9    10   ar
     6     6     8   ar
     7     6     7   ar
     8    17    16    2
     9     8    13   ar
    10    10    11   ar
    11     7    14   ar
    12    16    18    2
    13    16    15    1
    14    13    14   ar
    15    13    12   ar
    16    11    12   ar
    17    14    15    1
    18    18    19    2
    19    15    21    2
    20     3     2    1
    21    19    21    1
    22    19    20    2
    23    21    22    1
    24    22    30   ar
    25    22    23   ar
    26    30    29   ar
    27    23    24   ar
    28    23    28   ar
    29    29    28   ar
    30    29     1    1
    31    24    25   ar
    32    28    27   ar
    33    25    26   ar
    34    27    26   ar
