@<TRIPOS>MOLECULE
1uvs_I11_H_1.pdb
 36 38 0 0 0
SMALL
GASTEIGER

@<TRIPOS>ATOM
      1  C1       -14.2180   71.3980  179.0320 C.3    11  I1111       0.0018
      2  C2       -15.2580   70.4900  178.3270 C.3    11  I1111       0.0252
      3  C3       -14.6890   69.0660  178.1910 C.3    11  I1111       0.1456
      4  C4       -13.4110   69.0900  177.3340 C.3    11  I1111       0.0252
      5  C5       -12.3690   69.9550  178.0720 C.3    11  I1111       0.0018
      6  C6       -12.8880   71.3990  178.2650 C.3    11  I1111       0.0001
      7  S19      -15.9430   67.9520  177.4860 S.O2   11  I1111       0.0395
      8  O43      -17.2430   68.2660  178.0360 O.2    11  I1111      -0.1576
      9  O44      -15.5690   66.6470  177.9620 O.2    11  I1111      -0.1576
     10  N20      -16.1320   67.9780  175.8560 N.3    11  I1111      -0.1740
     11  C21      -15.6040   66.9480  175.1880 C.3    11  I1111       0.1756
     12  C22      -14.7440   67.2670  174.0370 C.2    11  I1111       0.2405
     13  O42      -14.6660   68.4630  173.7340 O.2    11  I1111      -0.2735
     14  N23      -14.0700   66.2960  173.3860 N.am   11  I1111      -0.2971
     15  C24      -13.3320   66.6720  172.1910 C.3    11  I1111       0.1505
     16  C25      -14.0640   66.1050  170.9500 C.3    11  I1111       0.0501
     17  C26      -13.9150   67.0190  169.7090 C.3    11  I1111       0.0892
     18  N27      -14.4510   68.3700  169.8780 N.pl3  11  I1111      -0.3328
     19  C28      -15.6700   68.6850  169.4830 C.2    11  I1111       0.0433
     20  C29      -16.7890   67.9140  169.8150 C.2    11  I1111       0.0094
     21  C30      -18.0460   68.2720  169.2880 C.3    11  I1111       0.1153
     22  N31      -18.2010   69.3070  168.4930 N.pl3  11  I1111      -0.3280
     23  C32      -17.2510   70.2210  168.3850 C.2    11  I1111       0.0594
     24  C33      -15.9320   69.9520  168.7760 C.2    11  I1111       0.0296
     25  C34      -11.8720   66.2470  172.2530 C.2    11  I1111       0.2436
     26  O41      -11.4940   65.2330  171.6780 O.2    11  I1111      -0.2731
     27  N35      -11.0460   66.9060  173.1060 N.am   11  I1111      -0.2782
     28  C36      -11.0360   68.3670  173.1000 C.3    11  I1111       0.0934
     29  C37      -10.9680   68.8510  174.5720 C.3    11  I1111       0.0216
     30  C38       -9.8430   68.1980  175.4210 C.3    11  I1111       0.0035
     31  C39       -9.1660   67.0120  174.7040 C.3    11  I1111       0.0216
     32  C40      -10.2470   66.1270  174.0530 C.3    11  I1111       0.0934
     33  H20      -15.7130   68.8200  175.5080 H      11  I1111       0.1490
     34  H23      -13.8020   65.4600  173.8550 H      11  I1111       0.1499
     35  H27      -13.8130   69.1020  170.1410 H      11  I1111       0.1468
     36  H31      -18.8060   69.1580  167.7060 H      11  I1111       0.1472
@<TRIPOS>BOND
     1    36    22    1
     2    23    22    1
     3    23    24    2
     4    22    21    1
     5    24    19    1
     6    21    20    1
     7    19    20    2
     8    19    18    1
     9    17    18    1
    10    17    16    1
    11    18    35    1
    12    16    15    1
    13    26    25    2
    14    15    25    1
    15    15    14    1
    16    25    27   am
    17    28    27    1
    18    28    29    1
    19    27    32    1
    20    14    34    1
    21    14    12   am
    22    13    12    2
    23    12    11    1
    24    32    31    1
    25    29    30    1
    26    31    30    1
    27    11    10    1
    28    33    10    1
    29    10     7    1
    30     4     5    1
    31     4     3    1
    32     7     9    2
    33     7     8    2
    34     7     3    1
    35     5     6    1
    36     3     2    1
    37     6     1    1
    38     2     1    1
