@<TRIPOS>MOLECULE
1uvt_I48_H_1.pdb
 30 32 0 0 0
SMALL
GASTEIGER

@<TRIPOS>ATOM
      1  N1        45.6890   56.1380   40.4510 N.pl3   1  I481       -0.3280
      2  C2        47.0040   55.6120   40.5200 C.3     1  I481        0.1153
      3  C3        48.0910   56.4960   40.4990 C.2     1  I481        0.0094
      4  C4        47.9000   57.8890   40.4890 C.2     1  I481        0.0433
      5  C5        46.6050   58.4010   40.3980 C.2     1  I481        0.0296
      6  C6        45.5020   57.5480   40.4580 C.2     1  I481        0.0594
      7  NA1       49.0120   58.7930   40.4820 N.pl3   1  I481       -0.3298
      8  CA2       50.3570   58.2420   40.4260 C.3     1  I481        0.1351
      9  CA3       51.3090   58.9710   41.3910 C.3     1  I481        0.2265
     10  OA4       50.7670   59.0030   42.7200 O.3     1  I481       -0.4736
     11  C21       51.6860   59.2410   43.7660 C.ar    1  I481        0.1396
     12  C22       51.6380   58.5000   44.9710 C.ar    1  I481        0.0527
     13  C23       52.2140   59.0250   46.1450 C.ar    1  I481        0.0675
     14  C24       53.0180   60.1840   46.0710 C.ar    1  I481        0.0118
     15  C25       53.1420   60.8710   44.8590 C.ar    1  I481       -0.0176
     16  C26       52.5570   60.3530   43.6960 C.ar    1  I481        0.0327
     17  C27       54.1780   61.9570   44.7040 C.3     1  I481        0.0312
     18  NB1       52.2660   58.2310   47.3180 N.pl3   1  I481       -0.2149
     19  SB2       50.9340   58.3490   48.2640 S.O2    1  I481        0.0736
     20  OBA       51.1400   57.4350   49.3600 O.2     1  I481       -0.1499
     21  OBB       49.7050   58.0150   47.5850 O.2     1  I481       -0.1499
     22  C31       50.7250   59.9530   48.9100 C.ar    1  I481        0.1252
     23  C32       49.4410   60.5040   48.9530 C.ar    1  I481        0.0202
     24  C33       49.3270   61.8920   49.1570 C.ar    1  I481        0.0014
     25  C34       50.3900   62.5890   49.7680 C.ar    1  I481        0.0001
     26  C35       51.6420   61.9500   49.9290 C.ar    1  I481        0.0014
     27  C36       51.7980   60.5990   49.5380 C.ar    1  I481        0.0202
     28  H1        44.9880   55.5960   40.9100 H       1  I481        0.1472
     29  HA1       48.8950   59.7820   40.3110 H       1  I481        0.1469
     30  HB1       52.8020   57.3890   47.3230 H       1  I481        0.1737
@<TRIPOS>BOND
     1    29     7    1
     2     5     6    2
     3     5     4    1
     4     8     7    1
     5     8     9    1
     6     1     6    1
     7     1     2    1
     8     1    28    1
     9     7     4    1
    10     4     3    2
    11     3     2    1
    12     9    10    1
    13    10    11    1
    14    16    11   ar
    15    16    15   ar
    16    11    12   ar
    17    17    15    1
    18    15    14   ar
    19    12    13   ar
    20    14    13   ar
    21    13    18    1
    22    18    30    1
    23    18    19    1
    24    21    19    2
    25    19    22    1
    26    19    20    2
    27    22    23   ar
    28    22    27   ar
    29    23    24   ar
    30    24    25   ar
    31    27    26   ar
    32    25    26   ar
