@<TRIPOS>MOLECULE
1uvu_DCH_H_1.pdb
 24 25 0 0 0
SMALL
GASTEIGER

@<TRIPOS>ATOM
      1  CZ       -40.5130  -31.7940   40.6990 C.2     1  DCH1        0.2674
      2  NZ1      -41.4660  -30.9130   40.4530 N.2     1  DCH1       -0.2884
      3  NZ2      -40.6450  -33.1040   40.7160 N.pl3   1  DCH1       -0.2497
      4  C11      -39.1950  -31.1150   40.9500 C.ar    1  DCH1        0.0774
      5  C12      -38.3370  -31.6200   41.9030 C.ar    1  DCH1        0.0072
      6  C13      -37.1250  -30.9650   42.1090 C.ar    1  DCH1       -0.0001
      7  C14      -36.2890  -31.5020   43.0770 C.ar    1  DCH1       -0.0043
      8  C15      -35.0500  -30.9210   43.3510 C.ar    1  DCH1       -0.0216
      9  C16      -34.6680  -29.7420   42.6540 C.ar    1  DCH1       -0.0043
     10  C17      -35.5100  -29.1720   41.6780 C.ar    1  DCH1       -0.0003
     11  C18      -36.7450  -29.7830   41.3980 C.ar    1  DCH1       -0.0000
     12  C19      -37.5960  -29.2590   40.4370 C.ar    1  DCH1        0.0002
     13  C1A      -38.8120  -29.9430   40.2200 C.ar    1  DCH1        0.0072
     14  CA1      -34.2340  -31.5860   44.4640 C.3     1  DCH1        0.0380
     15  CA2      -34.7480  -30.9950   45.8200 C.3     1  DCH1        0.1142
     16  CA3      -34.7110  -29.4350   45.9130 C.2     1  DCH1        0.3173
     17  OA3      -35.5520  -28.8830   46.6220 O.2     1  DCH1       -0.2501
     18  OA4      -33.7450  -28.7320   45.1840 O.3     1  DCH1       -0.4485
     19  CA5      -33.1660  -27.4690   45.7410 C.3     1  DCH1        0.2086
     20  CA6      -32.5910  -26.8750   44.4140 C.3     1  DCH1        0.0513
     21 HZ11      -41.2780  -29.9480   40.6600 H       1  DCH1        0.3009
     22 HZ12      -42.4300  -31.1530   40.3480 H       1  DCH1        0.3009
     23 HZ21      -41.2920  -33.5280   40.0860 H       1  DCH1        0.2883
     24 HZ22      -39.8430  -33.6700   41.0040 H       1  DCH1        0.2883
@<TRIPOS>BOND
     1    23     3    1
     2    13    12   ar
     3    13     4   ar
     4    22     2    1
     5    12    11   ar
     6     2    21    1
     7     2     1    2
     8     1     3    1
     9     1     4    1
    10     3    24    1
    11     4     5   ar
    12    11    10   ar
    13    11     6   ar
    14    10     9   ar
    15     5     6   ar
    16     6     7   ar
    17     9     8   ar
    18     7     8   ar
    19     8    14    1
    20    20    19    1
    21    14    15    1
    22    18    19    1
    23    18    16    1
    24    15    16    1
    25    16    17    2
