@<TRIPOS>MOLECULE
1uvx_HEM_A_1.pdb
 43 50 0 0 0
SMALL
GASTEIGER

@<TRIPOS>ATOM
      1 FE         16.9570   48.5170   12.6360 Fe    1122  HEM1122     0.0000
      2  CHA       17.4730   45.5770   11.0150 C.2   1122  HEM1122     0.0000
      3  CHB       18.8290   47.4390   15.2910 C.2   1122  HEM1122     0.0000
      4  CHC       17.2760   51.7490   13.6960 C.2   1122  HEM1122     0.0000
      5  CHD       14.5020   49.4180   10.4650 C.2   1122  HEM1122     0.0000
      6  NA        18.0160   46.8340   13.0550 N.2   1122  HEM1122     0.0000
      7  C1A       18.0010   45.6870   12.2850 C.2   1122  HEM1122     0.0000
      8  C2A       18.6350   44.6370   13.0570 C.2   1122  HEM1122     0.0000
      9  C3A       19.0100   45.1470   14.2340 C.2   1122  HEM1122     0.0000
     10  C4A       18.6280   46.5450   14.2600 C.2   1122  HEM1122     0.0000
     11  CMA       19.7230   44.3760   15.3660 C.3   1122  HEM1122     0.0000
     12  CAA       18.8470   43.1810   12.5950 C.3   1122  HEM1122     0.0000
     13  CBA       19.8860   43.1860   11.4790 C.3   1122  HEM1122     0.0000
     14  CGA       20.2170   41.7730   11.0780 C.2   1122  HEM1122     0.0000
     15  O1A       21.1690   41.1970   11.6670 O.co2 1122  HEM1122     0.0000
     16  O2A       19.5300   41.2280   10.1740 O.co2 1122  HEM1122     0.0000
     17  NB        17.8850   49.4310   14.2220 N.ar  1122  HEM1122     0.0000
     18  C1B       18.6210   48.7990   15.2040 C.ar  1122  HEM1122     0.0000
     19  C2B       19.1240   49.8180   16.1000 C.ar  1122  HEM1122     0.0000
     20  C3B       18.6950   51.0050   15.6600 C.ar  1122  HEM1122     0.0000
     21  C4B       17.9040   50.7890   14.4650 C.ar  1122  HEM1122     0.0000
     22  CMB       20.0010   49.5770   17.3500 C.3   1122  HEM1122     0.0000
     23  CAB       18.9940   52.3720   16.3140 C.2   1122  HEM1122     0.0000
     24  CBB       18.1620   53.3990   16.1180 C.2   1122  HEM1122     0.0000
     25  NC        16.0570   50.2680   12.1660 N.2   1122  HEM1122     0.0000
     26  C1C       16.3340   51.5030   12.7190 C.2   1122  HEM1122     0.0000
     27  C2C       15.4590   52.4710   12.0880 C.2   1122  HEM1122     0.0000
     28  C3C       14.6930   51.8270   11.2000 C.2   1122  HEM1122     0.0000
     29  C4C       15.0540   50.4250   11.2280 C.2   1122  HEM1122     0.0000
     30  CMC       15.4200   53.9830   12.3960 C.3   1122  HEM1122     0.0000
     31  CAC       13.6120   52.4540   10.2910 C.2   1122  HEM1122     0.0000
     32  CBC       12.8580   53.4690   10.7280 C.2   1122  HEM1122     0.0000
     33  ND        16.1230   47.6320   10.9540 N.ar  1122  HEM1122     0.0000
     34  C1D       15.0550   48.1740   10.2490 C.ar  1122  HEM1122     0.0000
     35  C2D       14.6270   47.2170    9.2540 C.ar  1122  HEM1122     0.0000
     36  C3D       15.5610   46.0080    9.4250 C.ar  1122  HEM1122     0.0000
     37  C4D       16.4580   46.3610   10.5060 C.ar  1122  HEM1122     0.0000
     38  CMD       13.4770   47.3770    8.2380 C.3   1122  HEM1122     0.0000
     39  CAD       15.5480   44.6950    8.6140 C.3   1122  HEM1122     0.0000
     40  CBD       14.2130   43.9840    8.8130 C.3   1122  HEM1122     0.0000
     41  CGD       14.2350   42.7070    8.0180 C.2   1122  HEM1122     0.0000
     42  O1D       13.1580   42.2720    7.5320 O.co2 1122  HEM1122     0.0000
     43  O2D       15.3410   42.1280    7.8700 O.co2 1122  HEM1122     0.0000
@<TRIPOS>BOND
     1    42    41   ar
     2    43    41   ar
     3    41    40    1
     4    38    35    1
     5    39    40    1
     6    39    36    1
     7    35    36   ar
     8    35    34   ar
     9    36    37   ar
    10    16    14   ar
    11    34     5    2
    12    34    33   ar
    13    31    32    2
    14    31    28    1
    15     5    29    1
    16    37    33   ar
    17    37     2    2
    18    33     1    1
    19     2     7    1
    20    14    13    1
    21    14    15   ar
    22    28    29    1
    23    28    27    2
    24    29    25    2
    25    13    12    1
    26    27    30    1
    27    27    26    1
    28    25     1    1
    29    25    26    1
    30     7     6    2
    31     7     8    1
    32    12     8    1
    33     1     6    1
    34     1    17    1
    35    26     4    2
    36     6    10    1
    37     8     9    2
    38     4    21    1
    39    17    21   ar
    40    17    18   ar
    41     9    10    1
    42     9    11    1
    43    10     3    2
    44    21    20   ar
    45    18     3    1
    46    18    19   ar
    47    20    19   ar
    48    20    23    1
    49    19    22    1
    50    24    23    2
