@<TRIPOS>MOLECULE
1uvy_HEM_A_1.pdb
 43 50 0 0 0
SMALL
GASTEIGER

@<TRIPOS>ATOM
      1 FE         54.6270   23.2490   26.4520 Fe    1117  HEM1117     0.0000
      2  CHA       54.1490   20.7920   24.2140 C.2   1117  HEM1117     0.0000
      3  CHB       55.6420   25.3920   24.0350 C.2   1117  HEM1117     0.0000
      4  CHC       54.9230   25.8140   28.7550 C.2   1117  HEM1117     0.0000
      5  CHD       53.2970   21.2700   28.9570 C.2   1117  HEM1117     0.0000
      6  NA        54.8810   23.1160   24.5460 N.ar  1117  HEM1117     0.0000
      7  C1A       54.6130   22.0160   23.7380 C.ar  1117  HEM1117     0.0000
      8  C2A       54.8180   22.3560   22.3250 C.ar  1117  HEM1117     0.0000
      9  C3A       55.2310   23.6700   22.2910 C.ar  1117  HEM1117     0.0000
     10  C4A       55.2770   24.1150   23.6610 C.ar  1117  HEM1117     0.0000
     11  CMA       55.5660   24.5260   21.0520 C.3   1117  HEM1117     0.0000
     12  CAA       54.5590   21.4600   21.1090 C.3   1117  HEM1117     0.0000
     13  CBA       55.6710   20.4840   20.7470 C.3   1117  HEM1117     0.0000
     14  CGA       55.6590   20.1550   19.2550 C.2   1117  HEM1117     0.0000
     15  O1A       54.8490   19.2820   18.8290 O.co2 1117  HEM1117     0.0000
     16  O2A       56.4230   20.8040   18.4870 O.co2 1117  HEM1117     0.0000
     17  NB        55.2390   25.1400   26.4190 N.2   1117  HEM1117     0.0000
     18  C1B       55.6530   25.8650   25.3360 C.2   1117  HEM1117     0.0000
     19  C2B       56.0220   27.2100   25.6670 C.2   1117  HEM1117     0.0000
     20  C3B       55.8240   27.3200   27.0070 C.2   1117  HEM1117     0.0000
     21  C4B       55.3210   26.0480   27.4530 C.2   1117  HEM1117     0.0000
     22  CMB       56.4860   28.2880   24.6480 C.3   1117  HEM1117     0.0000
     23  CAB       55.9930   28.5300   27.9810 C.3   1117  HEM1117     0.0000
     24  CBB       56.5370   29.9030   27.5500 C.3   1117  HEM1117     0.0000
     25  NC        54.2040   23.4740   28.3930 N.ar  1117  HEM1117     0.0000
     26  C1C       54.3630   24.6260   29.1820 C.ar  1117  HEM1117     0.0000
     27  C2C       53.8280   24.4670   30.5150 C.ar  1117  HEM1117     0.0000
     28  C3C       53.3620   23.2100   30.5560 C.ar  1117  HEM1117     0.0000
     29  C4C       53.6360   22.5770   29.2690 C.ar  1117  HEM1117     0.0000
     30  CMC       53.7560   25.5470   31.6330 C.3   1117  HEM1117     0.0000
     31  CAC       52.6260   22.5990   31.6950 C.3   1117  HEM1117     0.0000
     32  CBC       51.2550   23.1400   32.0410 C.3   1117  HEM1117     0.0000
     33  ND        53.9580   21.3970   26.5820 N.2   1117  HEM1117     0.0000
     34  C1D       53.4400   20.6980   27.6950 C.2   1117  HEM1117     0.0000
     35  C2D       52.9590   19.3700   27.3400 C.2   1117  HEM1117     0.0000
     36  C3D       53.2500   19.2420   25.9940 C.2   1117  HEM1117     0.0000
     37  C4D       53.8300   20.4960   25.5410 C.2   1117  HEM1117     0.0000
     38  CMD       52.2140   18.3690   28.2470 C.3   1117  HEM1117     0.0000
     39  CAD       52.9460   18.0780   25.0460 C.3   1117  HEM1117     0.0000
     40  CBD       53.8100   16.8970   25.4800 C.3   1117  HEM1117     0.0000
     41  CGD       53.4240   15.5400   24.8870 C.2   1117  HEM1117     0.0000
     42  O1D       53.9990   14.5390   25.3580 O.co2 1117  HEM1117     0.0000
     43  O2D       52.5320   15.4530   23.9880 O.co2 1117  HEM1117     0.0000
@<TRIPOS>BOND
     1    16    14   ar
     2    15    14   ar
     3    14    13    1
     4    13    12    1
     5    11     9    1
     6    12     8    1
     7     9     8   ar
     8     9    10   ar
     9     8     7   ar
    10    10     3    2
    11    10     6   ar
    12     7     2    2
    13     7     6   ar
    14    43    41   ar
    15     3    18    1
    16     2    37    1
    17     6     1    1
    18    22    19    1
    19    41    42   ar
    20    41    40    1
    21    39    40    1
    22    39    36    1
    23    18    19    1
    24    18    17    2
    25    37    36    1
    26    37    33    2
    27    19    20    2
    28    36    35    2
    29    17     1    1
    30    17    21    1
    31     1    33    1
    32     1    25    1
    33    33    34    1
    34    20    21    1
    35    20    23    1
    36    35    34    1
    37    35    38    1
    38    21     4    2
    39    24    23    1
    40    34     5    2
    41    25    26   ar
    42    25    29   ar
    43     4    26    1
    44     5    29    1
    45    26    27   ar
    46    29    28   ar
    47    27    28   ar
    48    27    30    1
    49    28    31    1
    50    31    32    1
