@<TRIPOS>MOLECULE
1uw1_ADP_A_1.pdb
 27 29 0 0 0
SMALL
GASTEIGER

@<TRIPOS>ATOM
      1  PB        14.4230   48.4000    0.5390 P.3   1074  ADP1074     0.5373
      2  O1B       15.5230   47.5780   -0.0570 O.2   1074  ADP1074    -0.2221
      3  O2B       14.3030   48.1060    2.0670 O.3   1074  ADP1074    -0.1143
      4  O3B       14.6980   49.9180    0.3580 O.3   1074  ADP1074    -0.1143
      5  PA        11.7960   47.3760    0.1530 P.3   1074  ADP1074     0.2231
      6  O1A       12.0310   45.9210    0.3120 O.2   1074  ADP1074    -0.5169
      7  O2A       11.2280   48.0830    1.3730 O.3   1074  ADP1074    -0.4370
      8  O3A       13.1460   48.0570   -0.3760 O.3   1074  ADP1074    -0.2261
      9  O5'       10.8740   47.6350   -1.1100 O.3   1074  ADP1074    -0.3111
     10  C5'       11.1960   47.1050   -2.3790 C.3   1074  ADP1074     0.1813
     11  C4'       10.2860   47.6360   -3.4860 C.3   1074  ADP1074     0.1821
     12  O4'        9.0800   46.8950   -3.5260 O.3   1074  ADP1074    -0.3135
     13  C3'        9.8610   49.0600   -3.2890 C.3   1074  ADP1074     0.2184
     14  O3'        9.6020   49.7250   -4.5100 O.3   1074  ADP1074    -0.2174
     15  C2'        8.5590   48.8750   -2.5260 C.3   1074  ADP1074     0.2570
     16  O2'        7.7810   49.9930   -2.6570 O.3   1074  ADP1074    -0.2130
     17  C1'        7.9560   47.6540   -3.1930 C.3   1074  ADP1074     0.3186
     18  N9         7.0870   46.8960   -2.2570 N.pl3 1074  ADP1074    -0.1439
     19  C8         7.5030   45.9560   -1.3330 C.3   1074  ADP1074     0.3377
     20  N7         6.3920   45.5190   -0.6790 N.2   1074  ADP1074    -0.2095
     21  C5         5.3140   46.1740   -1.2160 C.2   1074  ADP1074     0.2526
     22  C6         3.9770   46.1140   -0.9370 C.2   1074  ADP1074     0.4393
     23  N6         3.5290   45.3380    0.0720 N.pl3 1074  ADP1074     0.2180
     24  N1         3.1380   46.9280   -1.6620 N.2   1074  ADP1074     0.0021
     25  C2         3.5730   47.7800   -2.6580 C.3   1074  ADP1074     0.5254
     26  N3         4.8960   47.8530   -2.9650 N.2   1074  ADP1074    -0.0055
     27  C4         5.7410   47.0390   -2.2220 C.2   1074  ADP1074     0.3518
@<TRIPOS>BOND
     1    14    13    1
     2    12    11    1
     3    12    17    1
     4    11    13    1
     5    11    10    1
     6    13    15    1
     7    17    15    1
     8    17    18    1
     9    26    25    1
    10    26    27    2
    11    25    24    1
    12    16    15    1
    13    10     9    1
    14    18    27    1
    15    18    19    1
    16    27    21    1
    17    24    22    2
    18    19    20    1
    19    21    22    1
    20    21    20    2
    21     9     5    1
    22    22    23    1
    23     8     5    1
    24     8     1    1
    25     2     1    2
    26     5     6    2
    27     5     7    1
    28     4     1    1
    29     1     3    1
