@<TRIPOS>MOLECULE
1uw3_GSH_A_1.pdb
 16 15 0 0 0
SMALL
GASTEIGER

@<TRIPOS>ATOM
      1  CA1       20.3880   20.2320   -7.3960 C.3   1231  GSH1231     0.0005
      2  CB1       20.2410   18.9560   -6.5640 C.3   1231  GSH1231     0.0096
      3  CG1       21.5880   18.6130   -5.9380 C.3   1231  GSH1231     0.0868
      4  CD1       22.0350   17.4170   -6.7050 C.2   1231  GSH1231     0.2418
      5  OE1       22.4520   17.6150   -8.0340 O.2   1231  GSH1231    -0.2733
      6  N2        21.9730   16.2620   -6.0460 N.am  1231  GSH1231    -0.1968
      7  CA2       23.1040   15.3680   -6.0370 C.3   1231  GSH1231     0.1843
      8  C2        22.8730   14.2670   -7.0400 C.2   1231  GSH1231     0.2627
      9  O2        21.5930   14.1710   -7.6490 O.2   1231  GSH1231    -0.2714
     10  CB2       23.4590   14.8440   -4.6350 C.3   1231  GSH1231     0.0997
     11  SG2       22.0100   14.5590   -3.6000 S.3   1231  GSH1231    -0.0797
     12  N3        23.8990   13.4300   -7.3030 N.am  1231  GSH1231    -0.1917
     13  CA3       25.2510   13.8240   -7.6970 C.3   1231  GSH1231     0.2285
     14  C3        26.1120   14.3100   -6.5340 C.2   1231  GSH1231     0.3865
     15  O31       26.6070   13.4660   -5.6460 O.co2 1231  GSH1231    -0.2437
     16  O32       26.3930   15.6980   -6.3900 O.co2 1231  GSH1231    -0.2437
@<TRIPOS>BOND
     1     5     4    2
     2    13    12    1
     3    13    14    1
     4     9     8    2
     5     1     2    1
     6    12     8   am
     7     8     7    1
     8     4     6   am
     9     4     3    1
    10     2     3    1
    11    14    16   ar
    12    14    15   ar
    13     6     7    1
    14     7    10    1
    15    10    11    1
