@<TRIPOS>MOLECULE
1uw5_PIE_A_1.pdb
 41 41 0 0 0
SMALL
GASTEIGER

@<TRIPOS>ATOM
      1  P         42.1170   64.2420   81.9760 P.3   1270  PIE1270     0.2142
      2  O11       40.5430   63.8630   81.8990 O.3   1270  PIE1270    -0.3100
      3  O12       42.3690   65.1790   80.8320 O.2   1270  PIE1270    -0.5172
      4  O13       42.9110   62.9760   81.8710 O.3   1270  PIE1270    -0.4373
      5  O14       42.3780   64.9270   83.4200 O.3   1270  PIE1270    -0.3111
      6  C1        39.8140   62.8790   81.1790 C.3   1270  PIE1270     0.1964
      7  C2        38.4880   62.9860   81.9090 C.3   1270  PIE1270     0.2420
      8  C3        37.8510   63.9630   80.9810 C.3   1270  PIE1270     0.2543
      9  O31       38.5020   65.1830   81.1280 O.3   1270  PIE1270    -0.4444
     10  O32       38.3700   67.1570   82.1790 O.2   1270  PIE1270    -0.2501
     11  C31       38.0360   66.0070   82.2550 C.2   1270  PIE1270     0.3171
     12  C32       37.2880   65.6410   83.3570 C.3   1270  PIE1270     0.1096
     13  C33       36.2080   66.6650   83.7830 C.3   1270  PIE1270     0.0116
     14  C34       35.1570   66.0870   84.7510 C.3   1270  PIE1270     0.0006
     15  C35       34.3710   64.9590   84.0470 C.3   1270  PIE1270     0.0000
     16  C36       32.9550   64.6700   84.5120 C.3   1270  PIE1270     0.0000
     17  C37       32.4270   63.4620   83.7510 C.3   1270  PIE1270     0.0000
     18  C38       30.9190   63.1920   83.9440 C.3   1270  PIE1270     0.0000
     19  C39       30.4660   61.9420   83.2050 C.3   1270  PIE1270     0.0000
     20  O21       37.6860   61.7950   82.0430 O.3   1270  PIE1270    -0.4457
     21  O22       37.3180   60.8080   79.9770 O.2   1270  PIE1270    -0.2501
     22  C21       36.8320   61.3400   80.9620 C.2   1270  PIE1270     0.3171
     23  C22       35.3570   61.6080   81.0390 C.3   1270  PIE1270     0.1099
     24  C23       34.6030   60.3170   81.3020 C.3   1270  PIE1270     0.0163
     25  C24       33.1460   60.2690   80.8310 C.3   1270  PIE1270     0.0263
     26  C25       33.0040   58.8390   80.3080 C.2   1270  PIE1270    -0.0307
     27  C26       32.1670   58.6150   79.2690 C.2   1270  PIE1270    -0.0307
     28  C27       32.1110   57.2570   78.6010 C.3   1270  PIE1270     0.0257
     29  C28       30.9710   56.9090   77.7010 C.3   1270  PIE1270     0.0047
     30  C29       30.6770   55.6090   77.8760 C.3   1270  PIE1270     0.0004
     31  C1'       43.0320   64.3120   87.1160 C.3   1270  PIE1270     0.2174
     32  C2'       41.6250   64.0470   87.5340 C.3   1270  PIE1270     0.2175
     33  C3'       41.0510   63.0500   86.5490 C.3   1270  PIE1270     0.2174
     34  C4'       41.0240   63.7230   85.1490 C.3   1270  PIE1270     0.2147
     35  C5'       42.4010   64.2050   84.6870 C.3   1270  PIE1270     0.1874
     36  C6'       43.0280   65.0650   85.7990 C.3   1270  PIE1270     0.2147
     37  O1'       43.4960   65.1420   88.1600 O.3   1270  PIE1270    -0.2175
     38  O2'       41.6400   63.5550   88.8780 O.3   1270  PIE1270    -0.2175
     39  O3'       39.7580   62.6210   87.0840 O.3   1270  PIE1270    -0.2175
     40  O4'       40.1890   64.8770   85.1600 O.3   1270  PIE1270    -0.2176
     41  O6'       44.3960   65.2960   85.4960 O.3   1270  PIE1270    -0.2176
@<TRIPOS>BOND
     1    29    30    1
     2    29    28    1
     3    28    27    1
     4    27    26    2
     5    21    22    2
     6    26    25    1
     7    25    24    1
     8     3     1    2
     9    22    23    1
    10    22    20    1
    11     8     9    1
    12     8     7    1
    13    23    24    1
    14     9    11    1
    15     6     2    1
    16     6     7    1
    17     4     1    1
    18     2     1    1
    19     7    20    1
    20     1     5    1
    21    10    11    2
    22    11    12    1
    23    19    18    1
    24    12    13    1
    25     5    35    1
    26    17    18    1
    27    17    16    1
    28    13    14    1
    29    15    16    1
    30    15    14    1
    31    35    34    1
    32    35    36    1
    33    34    40    1
    34    34    33    1
    35    41    36    1
    36    36    31    1
    37    33    39    1
    38    33    32    1
    39    31    32    1
    40    31    37    1
    41    32    38    1
