@<TRIPOS>MOLECULE
1uw6_NCT_A_1.pdb
 12 13 0 0 0
SMALL
GASTEIGER

@<TRIPOS>ATOM
      1  N1        81.7260   69.9810   -7.9430 N.ar  1208  NCT1208    -0.2426
      2  C1        82.9260   69.9090   -8.6150 C.ar  1208  NCT1208     0.0959
      3  C2        83.0690   69.2560   -9.8570 C.ar  1208  NCT1208     0.0114
      4  C3        81.9220   68.6110  -10.3710 C.ar  1208  NCT1208     0.0002
      5  C4        80.7050   68.6170   -9.6410 C.ar  1208  NCT1208     0.0204
      6  C5        80.6360   69.3450   -8.4410 C.ar  1208  NCT1208     0.0989
      7  N2        84.7730   70.4880  -11.3170 N.3   1208  NCT1208    -0.2691
      8  C6        84.3480   69.2120  -10.6390 C.3   1208  NCT1208     0.0817
      9  C7        85.5370   68.7450   -9.8010 C.3   1208  NCT1208     0.0220
     10  C8        86.7370   69.4340  -10.4240 C.3   1208  NCT1208     0.0191
     11  C9        86.2330   70.6250  -11.2350 C.3   1208  NCT1208     0.0724
     12  C10       84.5020   70.4860  -12.7560 C.3   1208  NCT1208     0.0899
@<TRIPOS>BOND
     1    12     7    1
     2     7    11    1
     3     7     8    1
     4    11    10    1
     5     8     3    1
     6     8     9    1
     7    10     9    1
     8     4     3   ar
     9     4     5   ar
    10     3     2   ar
    11     5     6   ar
    12     2     1   ar
    13     6     1   ar
