@<TRIPOS>MOLECULE
1uw9_CAP_A_1.pdb
 21 20 0 0 0
SMALL
GASTEIGER

@<TRIPOS>ATOM
      1  C1         1.3730   95.8150  -20.8300 C.3   1477  CAP1477     0.1978
      2  C2         2.7300   95.2200  -20.5310 C.3   1477  CAP1477     0.2763
      3  C3         2.6390   94.0890  -19.5130 C.3   1477  CAP1477     0.2253
      4  C4         1.9260   92.8590  -20.0740 C.3   1477  CAP1477     0.2152
      5  C5         2.4170   91.5450  -19.4790 C.3   1477  CAP1477     0.1892
      6  C          3.4100   94.7410  -21.8000 C.2   1477  CAP1477     0.3967
      7  O1         1.4760   96.8670  -21.7550 O.3   1477  CAP1477    -0.2669
      8  O2         3.6120   96.2310  -20.0030 O.3   1477  CAP1477    -0.2086
      9  O3         3.9540   93.7750  -19.1450 O.3   1477  CAP1477    -0.2170
     10  O4         0.5470   92.9990  -19.8210 O.3   1477  CAP1477    -0.2176
     11  O5         1.5170   90.5310  -19.8700 O.3   1477  CAP1477    -0.2674
     12  O6         4.8030   94.7290  -21.8030 O.co2 1477  CAP1477    -0.2428
     13  O7         2.7620   94.3360  -22.8570 O.co2 1477  CAP1477    -0.2428
     14  P1         0.1270   97.5870  -22.2390 P.3   1477  CAP1477     0.5327
     15  P2         0.8310   89.6170  -18.7360 P.3   1477  CAP1477     0.5327
     16  O1P        0.5170   98.7330  -23.0990 O.2   1477  CAP1477    -0.2224
     17  O2P       -0.6660   98.0360  -21.0050 O.3   1477  CAP1477    -0.1145
     18  O3P       -0.7050   96.6110  -23.0680 O.3   1477  CAP1477    -0.1145
     19  O4P       -0.1230   88.6660  -19.3570 O.2   1477  CAP1477    -0.2224
     20  O5P        0.1750   90.5590  -17.7340 O.3   1477  CAP1477    -0.1145
     21  O6P        1.9060   88.7340  -18.0780 O.3   1477  CAP1477    -0.1145
@<TRIPOS>BOND
     1    16    14    2
     2    18    14    1
     3    13     6   ar
     4    14     7    1
     5    14    17    1
     6    12     6   ar
     7     6     2    1
     8     7     1    1
     9     1     2    1
    10     2     8    1
    11     2     3    1
    12     4    10    1
    13     4     3    1
    14     4     5    1
    15    11     5    1
    16    11    15    1
    17     3     9    1
    18    19    15    2
    19    15    21    1
    20    15    20    1
