@<TRIPOS>MOLECULE
1uwa_CAP_A_1.pdb
 21 20 0 0 0
SMALL
GASTEIGER

@<TRIPOS>ATOM
      1  C1        20.9290   82.7440   97.2210 C.3   477  CAP477      0.1978
      2  C2        19.9510   83.2760   96.1860 C.3   477  CAP477      0.2763
      3  C3        19.1060   84.4250   96.7340 C.3   477  CAP477      0.2253
      4  C4        19.9150   85.6740   97.1040 C.3   477  CAP477      0.2152
      5  C5        19.0840   86.9440   97.0730 C.3   477  CAP477      0.1892
      6  C         20.6680   83.7080   94.9070 C.2   477  CAP477      0.3967
      7  O1        21.6350   81.6430   96.7100 O.3   477  CAP477     -0.2669
      8  O2        19.0190   82.2190   95.8070 O.3   477  CAP477     -0.2086
      9  O3        18.1330   84.7380   95.7630 O.3   477  CAP477     -0.2170
     10  O4        20.4410   85.5480   98.4080 O.3   477  CAP477     -0.2176
     11  O5        19.8780   87.9660   97.6640 O.3   477  CAP477     -0.2674
     12  O6        21.9280   84.0570   94.8320 O.co2 477  CAP477     -0.2428
     13  O7        19.9130   83.7400   93.7280 O.co2 477  CAP477     -0.2428
     14  P1        22.7100   80.8980   97.6480 P.3   477  CAP477      0.5327
     15  P2        19.2510   88.9110   98.8090 P.3   477  CAP477      0.5327
     16  O1P       23.2300   79.8020   96.7830 O.2   477  CAP477     -0.2224
     17  O2P       23.8320   81.8590   97.9660 O.3   477  CAP477     -0.1145
     18  O3P       22.0150   80.4500   98.9460 O.3   477  CAP477     -0.1145
     19  O4P       20.3670   89.7810   99.2810 O.3   477  CAP477     -0.1145
     20  O5P       18.6890   88.0400   99.9480 O.3   477  CAP477     -0.1145
     21  O6P       18.1260   89.7700   98.2330 O.2   477  CAP477     -0.2224
@<TRIPOS>BOND
     1    13     6   ar
     2    12     6   ar
     3     6     2    1
     4     9     3    1
     5     8     2    1
     6     2     3    1
     7     2     1    1
     8     7     1    1
     9     7    14    1
    10     3     4    1
    11    16    14    2
    12     5     4    1
    13     5    11    1
    14     4    10    1
    15    14    17    1
    16    14    18    1
    17    11    15    1
    18    21    15    2
    19    15    19    1
    20    15    20    1
