@<TRIPOS>MOLECULE
1uwb_TBO_A_1.pdb
 21 23 0 0 0
SMALL
GASTEIGER

@<TRIPOS>ATOM
      1  N1       141.4970  -25.3980   71.5960 N.2   559  TBO559     -0.3500
      2  C1A      142.1040  -25.8440   72.8160 C.2   559  TBO559      0.1389
      3  C2       142.4550  -24.5720   70.9310 C.1   559  TBO559      0.0988
      4  S2       142.2550  -23.7960   69.4350 S.2   559  TBO559      0.0401
      5  N3       143.6120  -24.5610   71.7120 N.am  559  TBO559     -0.2283
      6  C3A      143.3270  -25.3030   72.8470 C.2   559  TBO559      0.0852
      7  C4       144.8140  -23.9420   71.2260 C.3   559  TBO559      0.1225
      8  C5       145.4980  -23.0340   72.1840 C.3   559  TBO559      0.0790
      9  N6       145.4360  -23.3420   73.5970 N.3   559  TBO559     -0.2648
     10  C7       145.5750  -24.7420   73.8760 C.3   559  TBO559      0.1016
     11  C7A      144.2360  -25.4030   73.9080 C.2   559  TBO559      0.0206
     12  C8       143.8450  -26.1990   75.0330 C.2   559  TBO559      0.0524
     13 CL8       144.8780  -26.3460   76.4260 Cl    559  TBO559     -0.0828
     14  C9       142.5870  -26.8370   75.0380 C.2   559  TBO559     -0.0074
     15  C10      141.7090  -26.6630   73.8970 C.3   559  TBO559      0.0881
     16  C11      146.9010  -23.2960   71.8330 C.3   559  TBO559      0.0192
     17  C12      145.8800  -22.3500   74.6520 C.3   559  TBO559      0.0985
     18  C13      144.7590  -22.0250   75.6250 C.2   559  TBO559     -0.0172
     19  C14      144.7820  -21.4460   76.8150 C.2   559  TBO559     -0.0465
     20  C15      143.3780  -21.4150   77.2860 C.3   559  TBO559      0.0261
     21  C16      146.0530  -20.9630   77.4590 C.3   559  TBO559      0.0261
@<TRIPOS>BOND
     1     4     3    2
     2     3     1    2
     3     3     5    1
     4     7     5    1
     5     7     8    1
     6     1     2    2
     7     5     6    1
     8    16     8    1
     9     8     9    1
    10     2     6    1
    11     2    15    1
    12     6    11    2
    13     9    10    1
    14     9    17    1
    15    10    11    1
    16    15    14    1
    17    11    12    1
    18    17    18    1
    19    12    14    2
    20    12    13    1
    21    18    19    2
    22    19    20    1
    23    19    21    1
