@<TRIPOS>MOLECULE
1uwc_FER_A_1.pdb
 14 14 0 0 0
SMALL
GASTEIGER

@<TRIPOS>ATOM
      1  C4         2.5200   13.1410   -3.9140 C.ar  1262  FER1262     0.2293
      2  C5         3.8440   13.2790   -3.4680 C.ar  1262  FER1262     0.0452
      3  C6         4.5100   12.2050   -2.8610 C.ar  1262  FER1262     0.0035
      4  C3         1.9020   11.8310   -3.7770 C.ar  1262  FER1262     0.1774
      5  C2         2.6310   10.7450   -3.1790 C.ar  1262  FER1262     0.0402
      6  C1         3.9350   10.9460   -2.7250 C.ar  1262  FER1262     0.0034
      7  C10       -0.0520   10.5070   -4.1860 C.3   1262  FER1262     0.2526
      8  C7         4.7070    9.8150   -2.1180 C.2   1262  FER1262     0.0069
      9  C8         5.7830    9.9800   -1.3390 C.2   1262  FER1262     0.0861
     10  C9         6.6700    8.8870   -0.8710 C.2   1262  FER1262     0.3880
     11  O1         7.5710    9.2100   -0.0600 O.co2 1262  FER1262    -0.2405
     12  O2         6.5980    7.6510   -1.3960 O.co2 1262  FER1262    -0.2405
     13  O4         1.7580   14.1280   -4.5340 O.3   1262  FER1262    -0.2833
     14  O3         0.6080   11.7790   -4.2330 O.3   1262  FER1262    -0.4682
@<TRIPOS>BOND
     1    13     1    1
     2    14     7    1
     3    14     4    1
     4     1     4   ar
     5     1     2   ar
     6     4     5   ar
     7     2     3   ar
     8     5     6   ar
     9     3     6   ar
    10     6     8    1
    11     8     9    2
    12    12    10   ar
    13     9    10    1
    14    10    11   ar
