@<TRIPOS>MOLECULE
1uwf_DEG_A_1.pdb
 16 16 0 0 0
SMALL
GASTEIGER

@<TRIPOS>ATOM
      1  C3'        9.6880   14.7890   40.6340 C.2   1159  DEG1159    -0.0279
      2  C4'        9.6030   14.0160   41.9330 C.3   1159  DEG1159     0.0304
      3  C1'        9.0430   15.4140   38.1340 C.3   1159  DEG1159     0.1707
      4  C2'        8.8570   14.5640   39.3790 C.2   1159  DEG1159     0.0012
      5  C2         7.2140   14.8730   34.8130 C.3   1159  DEG1159     0.2406
      6  O2         7.4110   15.3800   33.5040 O.3   1159  DEG1159    -0.2149
      7  C3         7.3680   13.2960   34.7580 C.3   1159  DEG1159     0.2198
      8  O3         6.3800   12.7570   33.8740 O.3   1159  DEG1159    -0.2174
      9  C4         8.7660   12.9250   34.2330 C.3   1159  DEG1159     0.2144
     10  O4         8.9190   11.4860   34.1850 O.3   1159  DEG1159    -0.2176
     11  C5         9.8510   13.5190   35.1970 C.3   1159  DEG1159     0.1835
     12  O5         9.6810   15.0020   35.2810 O.3   1159  DEG1159    -0.3256
     13  C6        11.2620   13.2090   34.7100 C.3   1159  DEG1159     0.2142
     14  O6        11.5150   13.7850   33.4460 O.3   1159  DEG1159    -0.2176
     15  O1         8.1120   14.9640   37.1100 O.3   1159  DEG1159    -0.3237
     16  C1         8.3350   15.4590   35.7760 C.3   1159  DEG1159     0.2698
@<TRIPOS>BOND
     1    14    13    1
     2     6     5    1
     3     8     7    1
     4    10     9    1
     5     9     7    1
     6     9    11    1
     7    13    11    1
     8     7     5    1
     9     5    16    1
    10    11    12    1
    11    12    16    1
    12    16    15    1
    13    15     3    1
    14     3     4    1
    15     4     1    2
    16     1     2    1
