@<TRIPOS>MOLECULE
1uwg_KHA_H_1.pdb
 20 21 0 0 0
SMALL
GASTEIGER

@<TRIPOS>ATOM
      1  O1        12.9230  -13.3870   42.2040 O.2   1215  KHA1215    -0.2684
      2  C8        13.3190  -13.1770   43.3450 C.2   1215  KHA1215     0.2649
      3  N1        13.3520  -14.1450   44.2670 N.am  1215  KHA1215    -0.1989
      4  C9        12.9280  -15.5280   44.0670 C.3   1215  KHA1215     0.1509
      5  C10       13.3780  -16.3410   45.2770 C.3   1215  KHA1215     0.2054
      6  O2        14.7920  -16.4040   45.3230 O.3   1215  KHA1215    -0.2184
      7  C6        13.8010  -11.8050   43.7340 C.ar  1215  KHA1215     0.0550
      8  C3        14.4110  -10.9890   42.7830 C.ar  1215  KHA1215     0.0042
      9  C1        14.8630   -9.7190   43.1460 C.ar  1215  KHA1215    -0.0062
     10  C2        13.6470  -11.3450   45.0490 C.ar  1215  KHA1215     0.0042
     11  C5        14.0990  -10.0760   45.4120 C.ar  1215  KHA1215    -0.0062
     12  C4        14.7100   -9.2620   44.4570 C.ar  1215  KHA1215    -0.0426
     13  C7        15.2170   -7.8840   44.8410 C.3   1215  KHA1215    -0.0457
     14  N2        16.7090   -7.8850   44.9330 N.4   1215  KHA1215     0.3912
     15  C11       17.2430   -8.7630   43.8910 C.3   1215  KHA1215    -0.0953
     16  C16       17.2190   -8.4840   46.1930 C.3   1215  KHA1215    -0.0726
     17  C15       17.2500   -6.5280   44.6830 C.3   1215  KHA1215    -0.0726
     18  C13       17.0640   -5.5870   45.8740 C.3   1215  KHA1215    -0.0223
     19  C14       17.7960   -6.1650   47.0780 C.3   1215  KHA1215    -0.0043
     20  C12       17.2630   -7.5610   47.4090 C.3   1215  KHA1215    -0.0223
@<TRIPOS>BOND
     1     1     2    2
     2     8     9   ar
     3     8     7   ar
     4     9    12   ar
     5     2     7    1
     6     2     3   am
     7     7    10   ar
     8    15    14    1
     9     4     3    1
    10     4     5    1
    11    12    13    1
    12    12    11   ar
    13    17    14    1
    14    17    18    1
    15    13    14    1
    16    14    16    1
    17    10    11   ar
    18     5     6    1
    19    18    19    1
    20    16    20    1
    21    19    20    1
