@<TRIPOS>MOLECULE
1uwh_BAX_A_1.pdb
 32 34 0 0 0
SMALL
GASTEIGER

@<TRIPOS>ATOM
      1  C1        77.6250   47.8530   68.5610 C.ar  1723  BAX1723     0.0214
      2  C2        77.1990   48.8230   67.6770 C.ar  1723  BAX1723     0.0750
      3  C3        77.0410   50.1520   68.0650 C.ar  1723  BAX1723     0.0175
      4  C4        77.3070   50.5060   69.3560 C.ar  1723  BAX1723     0.0127
      5  C13       76.1690   47.3550   65.5280 C.2   1723  BAX1723     0.3477
      6  C16       75.3080   46.2050   63.3490 C.ar  1723  BAX1723     0.0752
      7  C17       75.7030   45.8670   61.9800 C.ar  1723  BAX1723     0.0198
      8  C18       74.9730   44.9030   61.2950 C.ar  1723  BAX1723     0.0388
      9  C19       73.8960   44.2580   61.8870 C.ar  1723  BAX1723     0.1454
     10  C20       73.5170   44.5670   63.2070 C.ar  1723  BAX1723     0.0388
     11  C21       74.2130   45.5420   63.9430 C.ar  1723  BAX1723     0.0198
     12  O22       73.2130   43.3320   61.1480 O.3   1723  BAX1723    -0.4534
     13  C24       74.6220   41.3330   61.8990 C.ar  1723  BAX1723     0.0582
     14  C25       74.6010   39.9590   62.0580 C.ar  1723  BAX1723     0.1021
     15  C27       72.2730   39.9270   61.2150 C.ar  1723  BAX1723     0.1392
     16  C28       72.3300   41.2550   61.0770 C.ar  1723  BAX1723     0.0613
     17  N30       70.5070   37.9140   61.3520 N.am  1723  BAX1723    -0.1985
     18  C31       70.0640   37.0280   60.3220 C.3   1723  BAX1723     0.1389
     19  C5        77.7370   49.5450   70.2650 C.ar  1723  BAX1723     0.0616
     20  C6        77.9050   48.1580   69.8670 C.ar  1723  BAX1723     0.0833
     21  C7        78.3340   47.1480   70.7270 C.3   1723  BAX1723     0.4194
     22  F8        79.5630   47.3940   71.1380 F     1723  BAX1723    -0.1658
     23  F9        77.5040   47.0700   71.7710 F     1723  BAX1723    -0.1658
     24  F10       78.3720   45.9370   70.1830 F     1723  BAX1723    -0.1658
     25 CL11       78.0460   50.1400   71.9170 Cl    1723  BAX1723    -0.0823
     26  N12       76.9190   48.4000   66.3580 N.am  1723  BAX1723    -0.1607
     27  N14       76.0650   47.3550   64.1450 N.am  1723  BAX1723    -0.1607
     28  O15       76.2500   46.2990   66.0550 O.2   1723  BAX1723    -0.2484
     29  C23       73.4160   41.9760   61.3840 C.ar  1723  BAX1723     0.1485
     30  N26       73.3930   39.2430   61.7070 N.ar  1723  BAX1723    -0.2390
     31  C29       70.9260   39.2220   60.8210 C.2   1723  BAX1723     0.2827
     32  O32       69.9160   39.9770   60.5670 O.2   1723  BAX1723    -0.2667
@<TRIPOS>BOND
     1    18    17    1
     2    32    31    2
     3    31    15    1
     4    31    17   am
     5    16    15   ar
     6    16    29   ar
     7    12    29    1
     8    12     9    1
     9    15    30   ar
    10     8     9   ar
    11     8     7   ar
    12    29    13   ar
    13    30    14   ar
    14     9    10   ar
    15    13    14   ar
    16     7     6   ar
    17    10    11   ar
    18     6    11   ar
    19     6    27    1
    20    27     5   am
    21     5    28    2
    22     5    26   am
    23    26     2    1
    24     2     3   ar
    25     2     1   ar
    26     3     4   ar
    27     1    20   ar
    28     4    19   ar
    29    20    19   ar
    30    20    21    1
    31    24    21    1
    32    19    25    1
    33    21    22    1
    34    21    23    1
