@<TRIPOS>MOLECULE
1uwj_BAX_A_1.pdb
 32 34 0 0 0
SMALL
GASTEIGER

@<TRIPOS>ATOM
      1  C1         4.4840   25.4790   37.7660 C.ar  1723  BAX1723     0.0214
      2  C2         3.3770   25.1160   37.0250 C.ar  1723  BAX1723     0.0750
      3  C3         2.1030   25.1120   37.5690 C.ar  1723  BAX1723     0.0175
      4  C4         1.9300   25.4790   38.8710 C.ar  1723  BAX1723     0.0127
      5  C13        4.4810   23.8280   34.7990 C.2   1723  BAX1723     0.3477
      6  C16        5.3170   22.7050   32.5890 C.ar  1723  BAX1723     0.0752
      7  C17        5.5690   22.9710   31.1750 C.ar  1723  BAX1723     0.0198
      8  C18        6.4540   22.1460   30.4890 C.ar  1723  BAX1723     0.0388
      9  C19        7.0960   21.1000   31.1380 C.ar  1723  BAX1723     0.1454
     10  C20        6.8600   20.8430   32.4930 C.ar  1723  BAX1723     0.0388
     11  C21        5.9730   21.6350   33.2170 C.ar  1723  BAX1723     0.0198
     12  O22        7.9560   20.3220   30.4290 O.3   1723  BAX1723    -0.4534
     13  C24       10.0580   21.7250   30.9690 C.ar  1723  BAX1723     0.0582
     14  C25       11.4490   21.6490   31.0740 C.ar  1723  BAX1723     0.1021
     15  C27       11.2870   19.2450   30.4620 C.ar  1723  BAX1723     0.1392
     16  C28        9.9740   19.3690   30.3760 C.ar  1723  BAX1723     0.0613
     17  N30       11.0080   16.5970   29.7700 N.am  1723  BAX1723    -0.1985
     18  C31       11.6080   15.3860   30.2960 C.3   1723  BAX1723     0.1389
     19  C5         3.0310   25.8460   39.6500 C.ar  1723  BAX1723     0.0616
     20  C6         4.3680   25.8620   39.0940 C.ar  1723  BAX1723     0.0833
     21  C7         5.5220   26.2240   39.8130 C.3   1723  BAX1723     0.4194
     22  F8         5.6280   27.5590   39.8310 F     1723  BAX1723    -0.1658
     23  F9         5.4570   25.7270   41.0720 F     1723  BAX1723    -0.1658
     24  F10        6.6750   25.7500   39.2900 F     1723  BAX1723    -0.1658
     25 CL11        2.6700   26.2840   41.3270 Cl    1723  BAX1723    -0.0823
     26  N12        3.5930   24.7130   35.6940 N.am  1723  BAX1723    -0.1607
     27  N14        4.2900   23.5810   33.4190 N.am  1723  BAX1723    -0.1607
     28  O15        5.5990   23.8020   35.2250 O.2   1723  BAX1723    -0.2484
     29  C23        9.3280   20.4980   30.5990 C.ar  1723  BAX1723     0.1485
     30  N26       12.0810   20.3660   30.8110 N.ar  1723  BAX1723    -0.2390
     31  C29       11.7950   17.8040   30.1520 C.2   1723  BAX1723     0.2827
     32  O32       13.0260   17.7230   29.8550 O.2   1723  BAX1723    -0.2667
@<TRIPOS>BOND
     1    17    31   am
     2    17    18    1
     3    32    31    2
     4    31    15    1
     5    16    15   ar
     6    16    29   ar
     7    12    29    1
     8    12     9    1
     9    15    30   ar
    10     8     9   ar
    11     8     7   ar
    12    29    13   ar
    13    30    14   ar
    14    13    14   ar
    15     9    10   ar
    16     7     6   ar
    17    10    11   ar
    18     6    11   ar
    19     6    27    1
    20    27     5   am
    21     5    28    2
    22     5    26   am
    23    26     2    1
    24     2     3   ar
    25     2     1   ar
    26     3     4   ar
    27     1    20   ar
    28     4    19   ar
    29    20    19   ar
    30    20    21    1
    31    24    21    1
    32    19    25    1
    33    21    22    1
    34    21    23    1
