@<TRIPOS>MOLECULE
1uwk_NAD_A_1.pdb
 44 48 0 0 0
SMALL
GASTEIGER

@<TRIPOS>ATOM
      1  PA        32.7820   19.2120  -54.7180 P.3   1558  NAD1558     0.2189
      2  O1A       32.0420   20.3120  -55.4680 O.2   1558  NAD1558    -0.5170
      3  O2A       32.1510   17.8960  -54.5580 O.3   1558  NAD1558    -0.4371
      4  O5B       34.2150   19.0670  -55.4350 O.3   1558  NAD1558    -0.3112
      5  C5B       35.1380   18.0490  -55.0880 C.3   1558  NAD1558     0.1813
      6  C4B       36.1910   18.0570  -56.1830 C.3   1558  NAD1558     0.1821
      7  O4B       37.1530   17.0290  -55.8380 O.3   1558  NAD1558    -0.3135
      8  C3B       35.5680   17.6150  -57.5380 C.3   1558  NAD1558     0.2184
      9  O3B       35.7140   18.6750  -58.4840 O.3   1558  NAD1558    -0.2174
     10  C2B       36.2860   16.3270  -57.8700 C.3   1558  NAD1558     0.2570
     11  O2B       36.5390   16.1520  -59.2890 O.3   1558  NAD1558    -0.2130
     12  C1B       37.5750   16.4800  -57.0880 C.3   1558  NAD1558     0.3186
     13  N9A       38.2470   15.2040  -56.8190 N.pl3 1558  NAD1558    -0.1439
     14  C8A       37.7120   14.1640  -56.1860 C.3   1558  NAD1558     0.3377
     15  N7A       38.6180   13.1730  -56.0880 N.2   1558  NAD1558    -0.2095
     16  C5A       39.7480   13.6360  -56.6560 C.2   1558  NAD1558     0.2526
     17  C6A       41.0090   13.0530  -56.7690 C.2   1558  NAD1558     0.4393
     18  N6A       41.3040   11.8320  -56.3560 N.pl3 1558  NAD1558     0.2180
     19  N1A       41.9940   13.8570  -57.3680 N.2   1558  NAD1558     0.0021
     20  C2A       41.6770   15.1290  -57.8270 C.3   1558  NAD1558     0.5254
     21  N3A       40.4790   15.6650  -57.7270 N.2   1558  NAD1558    -0.0055
     22  C4A       39.5300   14.8960  -57.1320 C.2   1558  NAD1558     0.3518
     23  O3        33.1410   19.6740  -53.2420 O.3   1558  NAD1558    -0.2703
     24  PN        33.5520   21.1220  -52.6680 P.3   1558  NAD1558     0.2189
     25  O1N       34.7420   21.6610  -53.4580 O.2   1558  NAD1558    -0.5170
     26  O2N       32.3630   21.9620  -52.5730 O.3   1558  NAD1558    -0.4371
     27  O5D       34.0150   20.6940  -51.1930 O.3   1558  NAD1558    -0.3112
     28  C5D       35.2860   20.0120  -51.1110 C.3   1558  NAD1558     0.1813
     29  C4D       35.4440   19.4110  -49.7030 C.3   1558  NAD1558     0.1799
     30  O4D       35.5360   20.4840  -48.7470 O.3   1558  NAD1558    -0.3327
     31  C3D       34.2080   18.6040  -49.2710 C.3   1558  NAD1558     0.2158
     32  O3D       34.7040   17.5010  -48.5020 O.3   1558  NAD1558    -0.2175
     33  C2D       33.4630   19.5880  -48.3620 C.3   1558  NAD1558     0.2309
     34  O2D       32.5930   18.9150  -47.4470 O.3   1558  NAD1558    -0.2158
     35  C1D       34.6410   20.2010  -47.6370 C.3   1558  NAD1558     0.2263
     36  N1N       34.5520   21.4030  -46.9220 N.pl3 1558  NAD1558    -0.2787
     37  C2N       35.1280   21.4680  -45.6600 C.3   1558  NAD1558     0.1244
     38  C3N       35.1690   22.7050  -45.0360 C.2   1558  NAD1558     0.0544
     39  C7N       35.7080   23.0820  -43.8050 C.2   1558  NAD1558     0.2818
     40  O7N       35.6720   24.2830  -43.3810 O.2   1558  NAD1558    -0.2670
     41  N7N       36.2930   22.2650  -42.9300 N.am  1558  NAD1558    -0.0839
     42  C4N       34.5950   23.8030  -45.6900 C.2   1558  NAD1558     0.0033
     43  C5N       33.9990   23.7000  -46.9420 C.2   1558  NAD1558     0.0157
     44  C6N       34.0250   22.4830  -47.5840 C.2   1558  NAD1558     0.0633
@<TRIPOS>BOND
     1    11    10    1
     2     9     8    1
     3    10     8    1
     4    10    12    1
     5    20    21    1
     6    20    19    1
     7    21    22    2
     8     8     6    1
     9    19    17    2
    10    22    13    1
    11    22    16    1
    12    12    13    1
    13    12     7    1
    14    13    14    1
    15    17    16    1
    16    17    18    1
    17    16    15    2
    18    14    15    1
    19     6     7    1
    20     6     5    1
    21     2     1    2
    22     4     5    1
    23     4     1    1
    24     1     3    1
    25     1    23    1
    26    25    24    2
    27    23    24    1
    28    24    26    1
    29    24    27    1
    30    27    28    1
    31    28    29    1
    32    29    31    1
    33    29    30    1
    34    31    32    1
    35    31    33    1
    36    30    35    1
    37    33    35    1
    38    33    34    1
    39    35    36    1
    40    44    43    2
    41    44    36    1
    42    43    42    1
    43    36    37    1
    44    42    38    2
    45    37    38    1
    46    38    39    1
    47    39    40    2
    48    39    41   am
