@<TRIPOS>MOLECULE
1uwk_URO_A_1.pdb
 10 10 0 0 0
SMALL
GASTEIGER

@<TRIPOS>ATOM
      1  OAA        8.6830   11.5380  -17.0140 O.co2 1559  URO1559    -0.2398
      2  CAI        8.6520   10.5460  -17.7310 C.2   1559  URO1559     0.3961
      3  OAB        7.5060   10.1100  -17.9620 O.co2 1559  URO1559    -0.2398
      4  CAC        9.8470   10.0450  -18.2370 C.2   1559  URO1559     0.1362
      5  CAD       10.2430    9.2380  -19.2280 C.1   1559  URO1559    -0.0440
      6  CAJ       11.0920    8.7330  -20.1500 C.1   1559  URO1559    -0.0081
      7  CAF       10.7590    8.1020  -21.2530 C.3   1559  URO1559     0.2141
      8  NAH       11.8160    7.4190  -21.7030 N.2   1559  URO1559    -0.2341
      9  CAE       12.8600    7.6680  -20.8950 C.2   1559  URO1559     0.2038
     10  NAG       12.3960    8.4920  -19.9900 N.2   1559  URO1559    -0.1843
@<TRIPOS>BOND
     1     8     7    1
     2     8     9    2
     3     7     6    1
     4     9    10    1
     5     6    10    2
     6     6     5    2
     7     5     4    2
     8     4     2    1
     9     3     2   ar
    10     2     1   ar
