@<TRIPOS>MOLECULE
1uwl_NAD_A_1.pdb
 44 48 0 0 0
SMALL
GASTEIGER

@<TRIPOS>ATOM
      1  PA        33.0250   19.6000  -54.7280 P.3   1555  NAD1555     0.2189
      2  O1A       32.2600   20.6240  -55.4490 O.2   1555  NAD1555    -0.5170
      3  O2A       32.3680   18.2200  -54.5490 O.3   1555  NAD1555    -0.4371
      4  O5B       34.4480   19.4270  -55.4490 O.3   1555  NAD1555    -0.3112
      5  C5B       35.3550   18.4550  -55.0360 C.3   1555  NAD1555     0.1813
      6  C4B       36.4100   18.4160  -56.1790 C.3   1555  NAD1555     0.1821
      7  O4B       37.4050   17.4670  -55.8590 O.3   1555  NAD1555    -0.3135
      8  C3B       35.8000   17.9950  -57.5180 C.3   1555  NAD1555     0.2184
      9  O3B       35.9660   19.0370  -58.4690 O.3   1555  NAD1555    -0.2174
     10  C2B       36.4990   16.7040  -57.9000 C.3   1555  NAD1555     0.2570
     11  O2B       36.8090   16.5230  -59.2730 O.3   1555  NAD1555    -0.2130
     12  C1B       37.7780   16.8160  -57.0890 C.3   1555  NAD1555     0.3186
     13  N9A       38.4560   15.5760  -56.7750 N.pl3 1555  NAD1555    -0.1439
     14  C8A       37.8980   14.4800  -56.1490 C.3   1555  NAD1555     0.3377
     15  N7A       38.8320   13.5540  -56.0720 N.2   1555  NAD1555    -0.2095
     16  C5A       39.9930   14.0260  -56.5780 C.2   1555  NAD1555     0.2526
     17  C6A       41.2340   13.4730  -56.6900 C.2   1555  NAD1555     0.4393
     18  N6A       41.4790   12.2360  -56.2770 N.pl3 1555  NAD1555     0.2180
     19  N1A       42.2330   14.2200  -57.2860 N.2   1555  NAD1555     0.0021
     20  C2A       41.9560   15.4930  -57.7710 C.3   1555  NAD1555     0.5254
     21  N3A       40.7110   16.0570  -57.6490 N.2   1555  NAD1555    -0.0055
     22  C4A       39.7490   15.2960  -57.0500 C.2   1555  NAD1555     0.3518
     23  O3        33.4040   20.0720  -53.2670 O.3   1555  NAD1555    -0.2703
     24  PN        33.8520   21.5370  -52.7320 P.3   1555  NAD1555     0.2189
     25  O1N       34.9890   22.0430  -53.5150 O.2   1555  NAD1555    -0.5170
     26  O2N       32.6250   22.3770  -52.6520 O.3   1555  NAD1555    -0.4371
     27  O5D       34.3170   21.0810  -51.2630 O.3   1555  NAD1555    -0.3112
     28  C5D       35.5320   20.3080  -51.1080 C.3   1555  NAD1555     0.1813
     29  C4D       35.7410   19.8790  -49.6600 C.3   1555  NAD1555     0.1799
     30  O4D       35.8570   21.0510  -48.8100 O.3   1555  NAD1555    -0.3327
     31  C3D       34.5570   19.0840  -49.1170 C.3   1555  NAD1555     0.2158
     32  O3D       35.0270   18.0160  -48.3170 O.3   1555  NAD1555    -0.2175
     33  C2D       33.7890   20.0790  -48.2710 C.3   1555  NAD1555     0.2309
     34  O2D       32.9830   19.4340  -47.3280 O.3   1555  NAD1555    -0.2158
     35  C1D       34.9660   20.8570  -47.7210 C.3   1555  NAD1555     0.2263
     36  N1N       34.6600   22.1740  -47.1750 N.pl3 1555  NAD1555    -0.2787
     37  C2N       35.5860   22.7660  -46.3770 C.3   1555  NAD1555     0.1244
     38  C3N       35.3740   24.0330  -45.8640 C.2   1555  NAD1555     0.0544
     39  C7N       36.4030   24.6560  -44.9630 C.2   1555  NAD1555     0.2818
     40  O7N       36.1450   25.8820  -44.3760 O.2   1555  NAD1555    -0.2670
     41  N7N       37.5420   24.0650  -44.7080 N.am  1555  NAD1555    -0.0839
     42  C4N       34.2330   24.7640  -46.2240 C.2   1555  NAD1555     0.0033
     43  C5N       33.3680   24.1970  -47.1410 C.2   1555  NAD1555     0.0157
     44  C6N       33.5690   22.9080  -47.5870 C.2   1555  NAD1555     0.0633
@<TRIPOS>BOND
     1    11    10    1
     2     9     8    1
     3    10     8    1
     4    10    12    1
     5    20    21    1
     6    20    19    1
     7    21    22    2
     8     8     6    1
     9    19    17    2
    10    12    13    1
    11    12     7    1
    12    22    13    1
    13    22    16    1
    14    13    14    1
    15    17    16    1
    16    17    18    1
    17    16    15    2
    18     6     7    1
    19     6     5    1
    20    14    15    1
    21     2     1    2
    22     4     5    1
    23     4     1    1
    24     1     3    1
    25     1    23    1
    26    25    24    2
    27    23    24    1
    28    24    26    1
    29    24    27    1
    30    27    28    1
    31    28    29    1
    32    29    31    1
    33    29    30    1
    34    31    32    1
    35    31    33    1
    36    30    35    1
    37    33    35    1
    38    33    34    1
    39    35    36    1
    40    44    36    1
    41    44    43    2
    42    36    37    1
    43    43    42    1
    44    37    38    1
    45    42    38    2
    46    38    39    1
    47    39    41   am
    48    39    40    2
