@<TRIPOS>MOLECULE
1uwr_GAF_A_1.pdb
 11 11 0 0 0
SMALL
GASTEIGER

@<TRIPOS>ATOM
      1  C1       119.7600   38.1020   65.0020 C.3   1490  GAF1490     0.1801
      2  C2       118.8830   37.4290   63.9310 C.3   1490  GAF1490     0.2230
      3  F2       118.4290   36.1760   64.3420 F     1490  GAF1490    -0.2317
      4  C3       119.7000   37.2790   62.6640 C.3   1490  GAF1490     0.2194
      5  O3       118.8780   36.6730   61.6830 O.3   1490  GAF1490    -0.2173
      6  C4       120.2350   38.6360   62.1830 C.3   1490  GAF1490     0.2144
      7  O4       119.1090   39.4430   61.9080 O.3   1490  GAF1490    -0.2176
      8  C5       121.0710   39.2420   63.3300 C.3   1490  GAF1490     0.1810
      9  O5       120.2580   39.3390   64.5170 O.3   1490  GAF1490    -0.3479
     10  C6       121.6720   40.6320   63.0390 C.3   1490  GAF1490     0.2141
     11  O6       120.6790   41.5960   63.3480 O.3   1490  GAF1490    -0.2176
@<TRIPOS>BOND
     1     5     4    1
     2     7     6    1
     3     6     4    1
     4     6     8    1
     5     4     2    1
     6    10     8    1
     7    10    11    1
     8     8     9    1
     9     2     3    1
    10     2     1    1
    11     9     1    1
