@<TRIPOS>MOLECULE
1uws_G2F_A_1.pdb
 11 11 0 0 0
SMALL
GASTEIGER

@<TRIPOS>ATOM
      1  C1        48.2910   37.9500   46.4100 C.3   1490  G2F1490     0.1801
      2  C2        49.1250   37.2790   47.5340 C.3   1490  G2F1490     0.2230
      3  C3        48.3310   37.3390   48.8290 C.3   1490  G2F1490     0.2194
      4  C4        48.0260   38.8200   49.1700 C.3   1490  G2F1490     0.2144
      5  C5        47.2070   39.4290   48.0250 C.3   1490  G2F1490     0.1810
      6  C6        46.8570   40.9230   48.2630 C.3   1490  G2F1490     0.2141
      7  O3        49.0830   36.7260   49.8780 O.3   1490  G2F1490    -0.2173
      8  O4        47.2840   38.9320   50.3840 O.3   1490  G2F1490    -0.2176
      9  O5        47.9180   39.2890   46.7890 O.3   1490  G2F1490    -0.3479
     10  O6        48.0710   41.7040   48.2480 O.3   1490  G2F1490    -0.2176
     11  F2        49.2910   35.9470   47.2320 F     1490  G2F1490    -0.2317
@<TRIPOS>BOND
     1     1     9    1
     2     1     2    1
     3     9     5    1
     4    11     2    1
     5     2     3    1
     6     5     6    1
     7     5     4    1
     8    10     6    1
     9     3     4    1
    10     3     7    1
    11     4     8    1
