@<TRIPOS>MOLECULE
1uwt_GTL_A_1.pdb
 13 13 0 0 0
SMALL
GASTEIGER

@<TRIPOS>ATOM
      1  C1       119.3410   38.7040   64.7170 C.2   1490  GTL1490     0.4163
      2  N1       118.7030   38.8310   65.8720 N.4   1490  GTL1490     0.1455
      3  C2       118.8190   37.5970   63.7760 C.3   1490  GTL1490     0.2978
      4  N5       120.3920   39.5900   64.4340 N.2   1490  GTL1490    -0.0582
      5  O7       118.8930   40.0260   66.5570 O.3   1490  GTL1490     0.0696
      6  O2       118.7250   36.3890   64.4950 O.3   1490  GTL1490    -0.2066
      7  C3       119.8420   37.4220   62.6450 C.3   1490  GTL1490     0.2291
      8  O3       119.2140   36.7030   61.6040 O.3   1490  GTL1490    -0.2168
      9  C4       120.4200   38.7570   62.0970 C.3   1490  GTL1490     0.2365
     10  O4       119.3120   39.5740   61.7840 O.3   1490  GTL1490    -0.2155
     11  C5       121.2460   39.3860   63.2530 C.3   1490  GTL1490     0.2803
     12  C6       121.9620   40.7360   62.9390 C.3   1490  GTL1490     0.2377
     13  O6       121.0770   41.8230   63.1270 O.3   1490  GTL1490    -0.2155
@<TRIPOS>BOND
     1     8     7    1
     2    10     9    1
     3     9     7    1
     4     9    11    1
     5     7     3    1
     6    12    13    1
     7    12    11    1
     8    11     4    1
     9     3     6    1
    10     3     1    1
    11     4     1    2
    12     1     2    1
    13     2     5    1
