@<TRIPOS>MOLECULE
1uwu_GOX_A_1.pdb
 13 13 0 0 0
SMALL
GASTEIGER

@<TRIPOS>ATOM
      1  C1        74.5520   21.0060   89.4610 C.2   1490  GOX1490     0.4163
      2  N1        75.0040   21.1720   90.6950 N.4   1490  GOX1490     0.1455
      3  C2        73.8000   22.2220   88.8780 C.3   1490  GOX1490     0.2978
      4  N5        74.7720   19.7820   88.7940 N.2   1490  GOX1490    -0.0582
      5  O7        75.8450   20.1790   91.2060 O.3   1490  GOX1490     0.0696
      6  O2        72.7420   22.5540   89.7360 O.3   1490  GOX1490    -0.2066
      7  C3        73.2510   21.9150   87.4810 C.3   1490  GOX1490     0.2291
      8  O3        72.9960   23.2170   86.9110 O.3   1490  GOX1490    -0.2168
      9  C4        74.2960   21.0370   86.7040 C.3   1490  GOX1490     0.2365
     10  O4        73.9330   20.9240   85.3500 O.3   1490  GOX1490    -0.2155
     11  C5        74.3700   19.6410   87.3900 C.3   1490  GOX1490     0.2803
     12  C6        75.3780   18.6410   86.7940 C.3   1490  GOX1490     0.2377
     13  O6        76.6830   19.1360   86.9310 O.3   1490  GOX1490    -0.2155
@<TRIPOS>BOND
     1    10     9    1
     2     9    11    1
     3     9     7    1
     4    12    13    1
     5    12    11    1
     6     8     7    1
     7    11     4    1
     8     7     3    1
     9     4     1    2
    10     3     1    1
    11     3     6    1
    12     1     2    1
    13     2     5    1
