@<TRIPOS>MOLECULE
1uwz_THU_A_1.pdb
 16 17 0 0 0
SMALL
GASTEIGER

@<TRIPOS>ATOM
      1  N1         3.9770   65.1650   57.0720 N.am  138  THU138     -0.1863
      2  C2         4.7010   66.3100   57.1580 C.1   138  THU138      0.2194
      3  O2         4.6670   67.1560   56.2740 O.2   138  THU138     -0.2059
      4  N3         5.4640   66.5050   58.2590 N.2   138  THU138     -0.1579
      5  C4         5.5360   65.5210   59.3400 C.3   138  THU138      0.2671
      6  O4         6.8360   64.9740   59.5090 O.3   138  THU138     -0.1953
      7  C5         4.5650   64.3110   59.2190 C.3   138  THU138      0.0820
      8  C6         4.3470   63.9910   57.7330 C.3   138  THU138      0.1157
      9  C1'        3.5990   64.6950   55.5490 C.2   138  THU138      0.2047
     10  C2'        4.1590   64.4220   54.1900 C.2   138  THU138      0.0639
     11  C3'        2.9290   63.9950   53.4840 C.3   138  THU138      0.2207
     12  O3'        2.5830   64.8710   52.4500 O.3   138  THU138     -0.2141
     13  C4'        1.7940   63.8940   54.5060 C.3   138  THU138      0.2345
     14  O4'        2.2090   64.4880   55.7380 O.2   138  THU138     -0.4606
     15  C5'        1.2680   62.5020   54.6850 C.3   138  THU138      0.2284
     16  O5'        2.3560   61.7040   55.1560 O.3   138  THU138     -0.2163
@<TRIPOS>BOND
     1    12    11    1
     2    11    10    1
     3    11    13    1
     4    10     9    2
     5    13    15    1
     6    13    14    1
     7    15    16    1
     8     9    14    1
     9     9     1    1
    10     3     2    2
    11     1     2   am
    12     1     8    1
    13     2     4    2
    14     8     7    1
    15     4     5    1
    16     7     5    1
    17     5     6    1
