@<TRIPOS>MOLECULE
1ux0_THU_A_1.pdb
 16 17 0 0 0
SMALL
GASTEIGER

@<TRIPOS>ATOM
      1  N1         4.2850   65.2300   57.2410 N.am  138  THU138     -0.1863
      2  C2         5.0460   66.3490   57.2750 C.1   138  THU138      0.2194
      3  O2         5.0200   67.1590   56.3560 O.2   138  THU138     -0.2059
      4  N3         5.8350   66.5660   58.3530 N.2   138  THU138     -0.1579
      5  C4         5.8970   65.6310   59.4750 C.3   138  THU138      0.2671
      6  O4         7.1750   65.0340   59.6340 O.3   138  THU138     -0.1953
      7  C5         4.8670   64.4690   59.4390 C.3   138  THU138      0.0820
      8  C6         4.5990   64.0790   57.9740 C.3   138  THU138      0.1157
      9  C1'        3.9270   64.7030   55.7310 C.2   138  THU138      0.2047
     10  C2'        4.5050   64.3860   54.3870 C.2   138  THU138      0.0639
     11  C3'        3.2810   63.9520   53.6790 C.3   138  THU138      0.2207
     12  O3'        2.9540   64.8130   52.6250 O.3   138  THU138     -0.2141
     13  C4'        2.1320   63.8840   54.6880 C.3   138  THU138      0.2345
     14  O4'        2.5340   64.5080   55.9060 O.2   138  THU138     -0.4606
     15  C5'        1.5980   62.5020   54.9010 C.3   138  THU138      0.2284
     16  O5'        2.6910   61.7160   55.3820 O.3   138  THU138     -0.2163
@<TRIPOS>BOND
     1    12    11    1
     2    11    10    1
     3    11    13    1
     4    10     9    2
     5    13    15    1
     6    13    14    1
     7    15    16    1
     8     9    14    1
     9     9     1    1
    10     3     2    2
    11     1     2   am
    12     1     8    1
    13     2     4    2
    14     8     7    1
    15     4     5    1
    16     7     5    1
    17     5     6    1
