@<TRIPOS>MOLECULE
1ux1_THU_A_1.pdb
 16 17 0 0 0
SMALL
GASTEIGER

@<TRIPOS>ATOM
      1  N1        33.0410   10.6640   84.2530 N.am  138  THU138     -0.2130
      2  C2        33.6040    9.8030   85.1160 C.1   138  THU138      0.2151
      3  O2        33.3240    8.5990   85.0990 O.2   138  THU138     -0.2062
      4  N3        34.4870   10.2910   86.0070 N.2   138  THU138     -0.1581
      5  C4        34.8510   11.7010   86.0730 C.3   138  THU138      0.2671
      6  O4        34.8440   12.2360   87.3870 O.3   138  THU138     -0.1953
      7  C5        34.0140   12.6840   85.2080 C.3   138  THU138      0.0816
      8  C6        32.7910   12.0000   84.5740 C.3   138  THU138      0.1099
      9  C1'       31.6470   10.1390   83.5910 C.3   138  THU138      0.2040
     10  C2'       30.2150    9.7910   83.8810 C.3   138  THU138      0.0870
     11  C3'       29.7580    9.4760   82.5090 C.3   138  THU138      0.1858
     12  O3'       29.4910    8.1100   82.3290 O.3   138  THU138     -0.2203
     13  C4'       30.8370    9.9570   81.5360 C.3   138  THU138      0.1802
     14  O4'       32.0760   10.0500   82.2500 O.3   138  THU138     -0.3341
     15  C5'       30.4760   11.2170   80.8100 C.3   138  THU138      0.2141
     16  O5'       30.4680   12.2700   81.7810 O.3   138  THU138     -0.2176
@<TRIPOS>BOND
     1    15    13    1
     2    15    16    1
     3    13    14    1
     4    13    11    1
     5    14     9    1
     6    12    11    1
     7    11    10    1
     8     9    10    1
     9     9     1    1
    10     1     8    1
    11     1     2   am
    12     8     7    1
    13     3     2    2
    14     2     4    2
    15     7     5    1
    16     4     5    1
    17     5     6    1
