@<TRIPOS>MOLECULE
1ux8_HEM_A_1.pdb
 43 50 0 0 0
SMALL
GASTEIGER

@<TRIPOS>ATOM
      1 FE          2.3260   14.0680   25.8500 Fe    700  HEM700      0.0000
      2  CHA       -0.7460   13.7030   27.5110 C.2   700  HEM700      0.0000
      3  CHB        3.4620   11.3470   27.6620 C.2   700  HEM700      0.0000
      4  CHC        5.3490   14.3290   24.3080 C.2   700  HEM700      0.0000
      5  CHD        1.0210   16.5490   23.8640 C.2   700  HEM700      0.0000
      6  NA         1.4950   12.7650   27.3120 N.2   700  HEM700      0.0000
      7  C1A        0.2380   12.8100   27.8780 C.2   700  HEM700      0.0000
      8  C2A        0.1300   11.7460   28.8540 C.2   700  HEM700      0.0000
      9  C3A        1.3090   11.1030   28.8850 C.2   700  HEM700      0.0000
     10  C4A        2.1820   11.7270   27.9270 C.2   700  HEM700      0.0000
     11  CMA        1.6680    9.8870   29.7790 C.3   700  HEM700      0.0000
     12  CAA       -1.0960   11.3880   29.7390 C.3   700  HEM700      0.0000
     13  CBA       -2.3350   11.0770   28.8910 C.3   700  HEM700      0.0000
     14  CGA       -3.5480   11.9220   29.2800 C.2   700  HEM700      0.0000
     15  O1A       -3.5190   12.6200   30.3480 O.co2 700  HEM700      0.0000
     16  O2A       -4.5730   11.9100   28.5100 O.co2 700  HEM700      0.0000
     17  NB         4.0430   13.0690   25.9990 N.ar  700  HEM700      0.0000
     18  C1B        4.2940   11.9460   26.7680 C.ar  700  HEM700      0.0000
     19  C2B        5.6160   11.4590   26.4450 C.ar  700  HEM700      0.0000
     20  C3B        6.1370   12.2890   25.5290 C.ar  700  HEM700      0.0000
     21  C4B        5.1820   13.3170   25.2370 C.ar  700  HEM700      0.0000
     22  CMB        6.2720   10.1930   27.0770 C.3   700  HEM700      0.0000
     23  CAB        7.5230   12.2070   24.8870 C.2   700  HEM700      0.0000
     24  CBB        8.3860   13.1660   25.2120 C.2   700  HEM700      0.0000
     25  NC         3.0620   15.2320   24.3490 N.2   700  HEM700      0.0000
     26  C1C        4.3260   15.1270   23.8070 C.2   700  HEM700      0.0000
     27  C2C        4.3860   16.0200   22.6680 C.2   700  HEM700      0.0000
     28  C3C        3.1880   16.6310   22.5720 C.2   700  HEM700      0.0000
     29  C4C        2.3210   16.1550   23.6180 C.2   700  HEM700      0.0000
     30  CMC        5.6090   16.2510   21.7290 C.3   700  HEM700      0.0000
     31  CAC        2.8360   17.6710   21.5060 C.2   700  HEM700      0.0000
     32  CBC        2.1640   17.3310   20.4030 C.2   700  HEM700      0.0000
     33  ND         0.4100   14.9600   25.6810 N.ar  700  HEM700      0.0000
     34  C1D        0.1450   16.0500   24.8200 C.ar  700  HEM700      0.0000
     35  C2D       -1.2100   16.5110   25.0680 C.ar  700  HEM700      0.0000
     36  C3D       -1.7380   15.5940   26.1800 C.ar  700  HEM700      0.0000
     37  C4D       -0.6680   14.6820   26.5170 C.ar  700  HEM700      0.0000
     38  CMD       -1.9710   17.6590   24.3600 C.3   700  HEM700      0.0000
     39  CAD       -3.0990   15.6170   26.8760 C.3   700  HEM700      0.0000
     40  CBD       -2.9270   16.5100   28.0890 C.3   700  HEM700      0.0000
     41  CGD       -4.2070   16.5440   28.8450 C.2   700  HEM700      0.0000
     42  O1D       -4.4590   15.5010   29.4900 O.co2 700  HEM700      0.0000
     43  O2D       -4.9540   17.5750   28.7970 O.co2 700  HEM700      0.0000
@<TRIPOS>BOND
     1    32    31    2
     2    31    28    1
     3    30    27    1
     4    28    27    2
     5    28    29    1
     6    27    26    1
     7    29     5    1
     8    29    25    2
     9    26     4    2
    10    26    25    1
    11     5    34    2
    12     4    21    1
    13    25     1    1
    14    38    35    1
    15    34    35   ar
    16    34    33   ar
    17    23    24    2
    18    23    20    1
    19    35    36   ar
    20    21    20   ar
    21    21    17   ar
    22    20    19   ar
    23    33     1    1
    24    33    37   ar
    25     1    17    1
    26     1     6    1
    27    17    18   ar
    28    36    37   ar
    29    36    39    1
    30    19    18   ar
    31    19    22    1
    32    37     2    2
    33    18     3    1
    34    39    40    1
    35     6     7    2
    36     6    10    1
    37     2     7    1
    38     3    10    2
    39     7     8    1
    40    10     9    1
    41    40    41    1
    42    16    14   ar
    43    43    41   ar
    44    41    42   ar
    45     8     9    2
    46     8    12    1
    47     9    11    1
    48    13    14    1
    49    13    12    1
    50    14    15   ar
