@<TRIPOS>MOLECULE
1ux9_FC6_A_1.pdb
 13 12 0 0 0
SMALL
GASTEIGER

@<TRIPOS>ATOM
      1  N24       30.5160   -6.4010   38.0550 N.1   1176  FC61176     0.0000
      2  C24       29.8620   -5.7260   38.7380 C.1   1176  FC61176     0.0000
      3 FE2        28.6970   -4.6410   39.6260 Fe    1176  FC61176     0.0000
      4  C21       27.5710   -3.4870   40.5280 C.1   1176  FC61176     0.0000
      5  N25       26.9190   -2.7380   41.1650 N.1   1176  FC61176     0.0000
      6  C22       27.7900   -6.0990   40.2490 C.1   1176  FC61176     0.0000
      7  N22       27.1750   -7.0610   40.5240 N.1   1176  FC61176     0.0000
      8  C26       27.6200   -4.5070   38.1500 C.1   1176  FC61176     0.0000
      9  N21       26.9490   -4.3220   37.2190 N.1   1176  FC61176     0.0000
     10  C23       29.7200   -4.6620   41.1500 C.1   1176  FC61176     0.0000
     11  N23       30.1520   -4.7970   42.2570 N.1   1176  FC61176     0.0000
     12  C11       29.6930   -3.2680   38.9510 C.1   1176  FC61176     0.0000
     13  N11       30.4750   -2.4810   38.5890 N.1   1176  FC61176     0.0000
@<TRIPOS>BOND
     1     9     8    3
     2     1     2    3
     3     8     3    1
     4    13    12    3
     5     2     3    1
     6    12     3    1
     7     3     6    1
     8     3     4    1
     9     3    10    1
    10     6     7    3
    11     4     5    3
    12    10    11    3
