@<TRIPOS>MOLECULE
1ux9_HEM_A_1.pdb
 43 50 0 0 0
SMALL
GASTEIGER

@<TRIPOS>ATOM
      1 FE         17.7620    4.3890   51.0990 Fe    1172  HEM1172     0.0000
      2  CHA       16.0430    5.5900   53.8860 C.2   1172  HEM1172     0.0000
      3  CHB       20.5890    5.8830   52.1200 C.2   1172  HEM1172     0.0000
      4  CHC       19.3810    3.1930   48.3080 C.2   1172  HEM1172     0.0000
      5  CHD       14.9730    2.5290   50.2410 C.2   1172  HEM1172     0.0000
      6  NA        18.2060    5.4970   52.7010 N.2   1172  HEM1172     0.0000
      7  C1A       17.3800    5.9130   53.7220 C.2   1172  HEM1172     0.0000
      8  C2A       18.1820    6.7540   54.5980 C.2   1172  HEM1172     0.0000
      9  C3A       19.4300    6.8150   54.1210 C.2   1172  HEM1172     0.0000
     10  C4A       19.4720    6.0350   52.9130 C.2   1172  HEM1172     0.0000
     11  CMA       20.6120    7.5890   54.7460 C.3   1172  HEM1172     0.0000
     12  CAA       17.7110    7.4320   55.9000 C.3   1172  HEM1172     0.0000
     13  CBA       18.1630    6.6040   57.1070 C.3   1172  HEM1172     0.0000
     14  CGA       17.4240    5.2840   57.0900 C.2   1172  HEM1172     0.0000
     15  O1A       16.1830    5.2990   57.3000 O.co2 1172  HEM1172     0.0000
     16  O2A       18.0720    4.2280   56.8570 O.co2 1172  HEM1172     0.0000
     17  NB        19.6270    4.5230   50.3490 N.ar  1172  HEM1172     0.0000
     18  C1B       20.6640    5.2060   50.9360 C.ar  1172  HEM1172     0.0000
     19  C2B       21.8410    5.0630   50.0970 C.ar  1172  HEM1172     0.0000
     20  C3B       21.5040    4.3130   49.0390 C.ar  1172  HEM1172     0.0000
     21  C4B       20.1080    3.9550   49.1880 C.ar  1172  HEM1172     0.0000
     22  CMB       23.2060    5.6760   50.4150 C.3   1172  HEM1172     0.0000
     23  CAB       22.3620    3.8780   47.8420 C.2   1172  HEM1172     0.0000
     24  CBB       23.4760    4.5310   47.5290 C.2   1172  HEM1172     0.0000
     25  NC        17.2870    3.1400   49.5770 N.2   1172  HEM1172     0.0000
     26  C1C       18.0950    2.7740   48.5190 C.2   1172  HEM1172     0.0000
     27  C2C       17.3710    1.8890   47.6340 C.2   1172  HEM1172     0.0000
     28  C3C       16.1580    1.7210   48.1590 C.2   1172  HEM1172     0.0000
     29  C4C       16.0760    2.4940   49.3920 C.2   1172  HEM1172     0.0000
     30  CMC       17.9660    1.2600   46.3530 C.3   1172  HEM1172     0.0000
     31  CAC       15.0280    0.8350   47.6140 C.2   1172  HEM1172     0.0000
     32  CBC       14.8330    0.6670   46.3090 C.2   1172  HEM1172     0.0000
     33  ND        15.7870    4.0790   51.9750 N.ar  1172  HEM1172     0.0000
     34  C1D       14.8200    3.2730   51.3910 C.ar  1172  HEM1172     0.0000
     35  C2D       13.6180    3.3610   52.1790 C.ar  1172  HEM1172     0.0000
     36  C3D       13.9520    4.3390   53.2920 C.ar  1172  HEM1172     0.0000
     37  C4D       15.3230    4.7360   53.0980 C.ar  1172  HEM1172     0.0000
     38  CMD       12.2480    2.6750   51.9690 C.3   1172  HEM1172     0.0000
     39  CAD       12.9730    4.8010   54.3760 C.3   1172  HEM1172     0.0000
     40  CBD       12.3720    6.0210   53.6680 C.3   1172  HEM1172     0.0000
     41  CGD       11.4970    6.7980   54.5850 C.2   1172  HEM1172     0.0000
     42  O1D       10.7860    7.6660   54.0770 O.co2 1172  HEM1172     0.0000
     43  O2D       11.5200    6.5130   55.7890 O.co2 1172  HEM1172     0.0000
@<TRIPOS>BOND
     1    32    31    2
     2    30    27    1
     3    24    23    2
     4    31    28    1
     5    27    28    2
     6    27    26    1
     7    23    20    1
     8    28    29    1
     9     4    26    2
    10     4    21    1
    11    26    25    1
    12    20    21   ar
    13    20    19   ar
    14    21    17   ar
    15    29    25    2
    16    29     5    1
    17    25     1    1
    18    19    22    1
    19    19    18   ar
    20     5    34    2
    21    17    18   ar
    22    17     1    1
    23    18     3    1
    24     1    33    1
    25     1     6    1
    26    34    33   ar
    27    34    35   ar
    28    38    35    1
    29    33    37   ar
    30     3    10    2
    31    35    36   ar
    32     6    10    1
    33     6     7    2
    34    10     9    1
    35    37    36   ar
    36    37     2    2
    37    36    39    1
    38    40    39    1
    39    40    41    1
    40     7     2    1
    41     7     8    1
    42    42    41   ar
    43     9     8    2
    44     9    11    1
    45    41    43   ar
    46     8    12    1
    47    12    13    1
    48    16    14   ar
    49    14    13    1
    50    14    15   ar
