@<TRIPOS>MOLECULE
1uxa_SIA_A_1.pdb
 20 20 0 0 0
SMALL
GASTEIGER

@<TRIPOS>ATOM
      1  C1        45.6100   53.3010   66.3770 C.2   1366  SIA1366     0.3914
      2  C2        46.5790   52.9010   65.2170 C.3   1366  SIA1366     0.2203
      3  C3        46.6810   51.3810   65.1080 C.3   1366  SIA1366     0.0760
      4  C4        45.4200   50.7190   64.5000 C.3   1366  SIA1366     0.1773
      5  C5        45.0050   51.4340   63.1900 C.3   1366  SIA1366     0.1552
      6  C6        44.8610   52.9260   63.5110 C.3   1366  SIA1366     0.1710
      7  C7        44.4710   53.7230   62.2760 C.3   1366  SIA1366     0.2134
      8  C8        44.4580   55.2140   62.6210 C.3   1366  SIA1366     0.2173
      9  C9        43.7460   55.9860   61.5300 C.3   1366  SIA1366     0.2175
     10  C10       43.5570   50.1530   61.6940 C.2   1366  SIA1366     0.2420
     11  C11       42.0640   49.8570   61.3800 C.3   1366  SIA1366     0.0964
     12  N5        43.7200   50.8590   62.7980 N.am  1366  SIA1366    -0.2020
     13  O1A       45.6500   52.6590   67.4510 O.co2 1366  SIA1366    -0.2430
     14  O1B       44.8290   54.2710   66.2550 O.co2 1366  SIA1366    -0.2430
     15  O4        45.6910   49.3630   64.2410 O.3   1366  SIA1366    -0.2211
     16  O6        46.1270   53.4530   63.9800 O.3   1366  SIA1366    -0.3429
     17  O7        45.4470   53.4930   61.2680 O.3   1366  SIA1366    -0.2176
     18  O8        43.8060   55.4410   63.8610 O.3   1366  SIA1366    -0.2175
     19  O9        44.0250   57.3710   61.6750 O.3   1366  SIA1366    -0.2175
     20  O10       44.4740   49.8260   60.8760 O.2   1366  SIA1366    -0.2733
@<TRIPOS>BOND
     1    20    10    2
     2    17     7    1
     3    11    10    1
     4     9    19    1
     5     9     8    1
     6    10    12   am
     7     7     8    1
     8     7     6    1
     9     8    18    1
    10    12     5    1
    11     5     6    1
    12     5     4    1
    13     6    16    1
    14    16     2    1
    15    15     4    1
    16     4     3    1
    17     3     2    1
    18     2     1    1
    19    14     1   ar
    20     1    13   ar
