@<TRIPOS>MOLECULE
1uxb_SIA_A_1.pdb
 20 20 0 0 0
SMALL
GASTEIGER

@<TRIPOS>ATOM
      1  C1        45.6930   53.0680   66.2750 C.2   1366  SIA1366     0.3914
      2  C2        46.6500   52.5170   65.1700 C.3   1366  SIA1366     0.2203
      3  C3        46.6390   50.9720   65.1590 C.3   1366  SIA1366     0.0760
      4  C4        45.3830   50.3490   64.4770 C.3   1366  SIA1366     0.1773
      5  C5        45.0290   51.0510   63.1630 C.3   1366  SIA1366     0.1552
      6  C6        44.9680   52.5450   63.4530 C.3   1366  SIA1366     0.1710
      7  C7        44.5060   53.3710   62.2490 C.3   1366  SIA1366     0.2134
      8  C8        44.5630   54.8230   62.6530 C.3   1366  SIA1366     0.2173
      9  C9        43.8180   55.6620   61.6380 C.3   1366  SIA1366     0.2175
     10  C10       43.4990   49.8990   61.6470 C.2   1366  SIA1366     0.2420
     11  C11       42.0420   49.6190   61.3380 C.3   1366  SIA1366     0.0964
     12  N5        43.7070   50.6150   62.7480 N.am  1366  SIA1366    -0.2020
     13  O1A       45.7120   52.5420   67.4080 O.co2 1366  SIA1366    -0.2430
     14  O1B       44.9670   54.0510   66.0200 O.co2 1366  SIA1366    -0.2430
     15  O4        45.6650   49.0070   64.1860 O.3   1366  SIA1366    -0.2211
     16  O6        46.2550   53.0280   63.8850 O.3   1366  SIA1366    -0.3429
     17  O7        45.3800   53.1430   61.1480 O.3   1366  SIA1366    -0.2176
     18  O8        43.9660   54.9820   63.9340 O.3   1366  SIA1366    -0.2175
     19  O9        44.2220   57.0120   61.7970 O.3   1366  SIA1366    -0.2175
     20  O10       44.3920   49.4540   60.9030 O.2   1366  SIA1366    -0.2733
@<TRIPOS>BOND
     1    20    10    2
     2    17     7    1
     3    11    10    1
     4     9    19    1
     5     9     8    1
     6    10    12   am
     7     7     8    1
     8     7     6    1
     9     8    18    1
    10    12     5    1
    11     5     6    1
    12     5     4    1
    13     6    16    1
    14    16     2    1
    15    15     4    1
    16     4     3    1
    17     3     2    1
    18     2     1    1
    19    14     1   ar
    20     1    13   ar
