@<TRIPOS>MOLECULE
1uxg_NAD_A_1.pdb
 44 48 0 0 0
SMALL
GASTEIGER

@<TRIPOS>ATOM
      1  PA        89.4150  119.6280   74.3810 P.3   1310  NAD1310     0.2189
      2  O1A       88.6170  120.1600   75.4730 O.3   1310  NAD1310    -0.4371
      3  O2A       90.9110  119.3360   74.5960 O.2   1310  NAD1310    -0.5170
      4  O5B       89.4550  120.5600   73.0940 O.3   1310  NAD1310    -0.3112
      5  C5B       88.2900  121.2500   72.5230 C.3   1310  NAD1310     0.1813
      6  C4B       88.8280  122.6120   72.0970 C.3   1310  NAD1310     0.1821
      7  O4B       87.6450  123.3110   71.5020 O.3   1310  NAD1310    -0.3135
      8  C3B       89.2400  123.5720   73.2710 C.3   1310  NAD1310     0.2184
      9  O3B       90.6500  124.0360   73.0050 O.3   1310  NAD1310    -0.2174
     10  C2B       88.2960  124.7320   73.3000 C.3   1310  NAD1310     0.2570
     11  O2B       88.6820  125.9470   73.7360 O.3   1310  NAD1310    -0.2130
     12  C1B       87.7880  124.6780   71.8320 C.3   1310  NAD1310     0.3186
     13  N9A       86.4760  125.2670   71.7080 N.pl3 1310  NAD1310    -0.1439
     14  C8A       85.3390  125.3270   72.4720 C.3   1310  NAD1310     0.3377
     15  N7A       84.3210  125.9990   71.9610 N.2   1310  NAD1310    -0.2095
     16  C5A       84.7570  126.4370   70.7770 C.2   1310  NAD1310     0.2526
     17  C6A       84.0920  127.2530   69.7190 C.2   1310  NAD1310     0.4393
     18  N6A       82.8640  127.7030   69.8090 N.pl3 1310  NAD1310     0.2180
     19  N1A       84.9160  127.4690   68.6570 N.2   1310  NAD1310     0.0021
     20  C2A       86.1800  127.0710   68.4430 C.3   1310  NAD1310     0.5254
     21  N3A       86.8590  126.2930   69.4230 N.2   1310  NAD1310    -0.0055
     22  C4A       86.0980  126.0090   70.5650 C.2   1310  NAD1310     0.3518
     23  O3        88.8300  118.3190   73.8100 O.3   1310  NAD1310    -0.2703
     24  PN        89.2440  117.0630   72.9940 P.3   1310  NAD1310     0.2189
     25  O1N       89.7710  116.0620   73.9370 O.3   1310  NAD1310    -0.4371
     26  O2N       90.1550  117.5160   71.8890 O.2   1310  NAD1310    -0.5170
     27  O5D       87.9300  116.3810   72.3430 O.3   1310  NAD1310    -0.3112
     28  C5D       87.2680  117.2510   71.3380 C.3   1310  NAD1310     0.1813
     29  C4D       85.8990  116.6900   71.0710 C.3   1310  NAD1310     0.1799
     30  O4D       86.0090  115.4440   70.2340 O.3   1310  NAD1310    -0.3327
     31  C3D       85.0800  116.1790   72.3040 C.3   1310  NAD1310     0.2158
     32  O3D       83.6760  116.5020   72.1080 O.3   1310  NAD1310    -0.2175
     33  C2D       85.3200  114.6580   72.3800 C.3   1310  NAD1310     0.2309
     34  O2D       84.4030  113.9110   73.1300 O.3   1310  NAD1310    -0.2158
     35  C1D       85.3230  114.2960   70.8750 C.3   1310  NAD1310     0.2263
     36  N1N       86.0270  113.0470   70.3700 N.pl3 1310  NAD1310    -0.2787
     37  C2N       85.4740  112.2970   69.3540 C.3   1310  NAD1310     0.1244
     38  C3N       86.1310  111.1870   68.9140 C.2   1310  NAD1310     0.0544
     39  C7N       85.5110  110.3760   67.7830 C.2   1310  NAD1310     0.2818
     40  O7N       84.6120  110.7470   67.0380 O.2   1310  NAD1310    -0.2670
     41  N7N       86.0960  109.0890   67.6400 N.am  1310  NAD1310    -0.0839
     42  C4N       87.4260  110.7360   69.4740 C.2   1310  NAD1310     0.0033
     43  C5N       87.9090  111.5750   70.5160 C.2   1310  NAD1310     0.0157
     44  C6N       87.2930  112.6830   70.9850 C.2   1310  NAD1310     0.0633
@<TRIPOS>BOND
     1    40    39    2
     2    41    39   am
     3    39    38    1
     4    20    19    1
     5    20    21    1
     6    19    17    2
     7    38    37    1
     8    38    42    2
     9    37    36    1
    10    21    22    2
    11    42    43    1
    12    17    18    1
    13    17    16    1
    14    30    35    1
    15    30    29    1
    16    36    35    1
    17    36    44    1
    18    43    44    2
    19    22    16    1
    20    22    13    1
    21    16    15    2
    22    35    33    1
    23    29    28    1
    24    29    31    1
    25    28    27    1
    26     7    12    1
    27     7     6    1
    28    13    12    1
    29    13    14    1
    30    12    10    1
    31    26    24    2
    32    15    14    1
    33     6     5    1
    34     6     8    1
    35    32    31    1
    36    31    33    1
    37    27    24    1
    38    33    34    1
    39     5     4    1
    40    24    23    1
    41    24    25    1
    42     9     8    1
    43     4     1    1
    44     8    10    1
    45    10    11    1
    46    23     1    1
    47     1     3    2
    48     1     2    1
