@<TRIPOS>MOLECULE
1uxh_NAD_A_1.pdb
 44 48 0 0 0
SMALL
GASTEIGER

@<TRIPOS>ATOM
      1  PA        89.4940  119.5100  -36.4700 P.3   1310  NAD1310     0.2189
      2  O1A       88.6850  120.0600  -35.3920 O.3   1310  NAD1310    -0.4371
      3  O2A       90.9780  119.2220  -36.2330 O.2   1310  NAD1310    -0.5170
      4  O5B       89.5520  120.4390  -37.7810 O.3   1310  NAD1310    -0.3112
      5  C5B       88.3880  121.1380  -38.3460 C.3   1310  NAD1310     0.1813
      6  C4B       88.9070  122.5110  -38.7600 C.3   1310  NAD1310     0.1821
      7  O4B       87.7050  123.2020  -39.3380 O.3   1310  NAD1310    -0.3135
      8  C3B       89.3120  123.4650  -37.5760 C.3   1310  NAD1310     0.2184
      9  O3B       90.7140  123.9610  -37.8540 O.3   1310  NAD1310    -0.2174
     10  C2B       88.3390  124.6040  -37.5270 C.3   1310  NAD1310     0.2570
     11  O2B       88.6750  125.8170  -37.0520 O.3   1310  NAD1310    -0.2130
     12  C1B       87.8460  124.5690  -39.0020 C.3   1310  NAD1310     0.3186
     13  N9A       86.5330  125.1830  -39.1310 N.pl3 1310  NAD1310    -0.1439
     14  C8A       85.4080  125.2870  -38.3540 C.3   1310  NAD1310     0.3377
     15  N7A       84.3970  125.9660  -38.8710 N.2   1310  NAD1310    -0.2095
     16  C5A       84.8190  126.3670  -40.0740 C.2   1310  NAD1310     0.2526
     17  C6A       84.1470  127.1740  -41.1440 C.2   1310  NAD1310     0.4393
     18  N6A       82.9340  127.6470  -41.0420 N.pl3 1310  NAD1310     0.2180
     19  N1A       84.9560  127.3510  -42.2310 N.2   1310  NAD1310     0.0021
     20  C2A       86.2080  126.9220  -42.4540 C.3   1310  NAD1310     0.5254
     21  N3A       86.8920  126.1530  -41.4640 N.2   1310  NAD1310    -0.0055
     22  C4A       86.1460  125.9090  -40.2970 C.2   1310  NAD1310     0.3518
     23  O3        88.9060  118.1960  -37.0300 O.3   1310  NAD1310    -0.2703
     24  PN        89.3170  116.9390  -37.8560 P.3   1310  NAD1310     0.2189
     25  O1N       89.8610  115.9270  -36.9210 O.3   1310  NAD1310    -0.4371
     26  O2N       90.2290  117.4050  -38.9590 O.2   1310  NAD1310    -0.5170
     27  O5D       88.0050  116.2630  -38.5120 O.3   1310  NAD1310    -0.3112
     28  C5D       87.3440  117.1570  -39.5030 C.3   1310  NAD1310     0.1813
     29  C4D       85.9670  116.6140  -39.7780 C.3   1310  NAD1310     0.1799
     30  O4D       86.0550  115.3770  -40.6330 O.3   1310  NAD1310    -0.3327
     31  C3D       85.1380  116.1010  -38.5590 C.3   1310  NAD1310     0.2158
     32  O3D       83.7450  116.4520  -38.7580 O.3   1310  NAD1310    -0.2175
     33  C2D       85.3490  114.5750  -38.4990 C.3   1310  NAD1310     0.2309
     34  O2D       84.4250  113.8330  -37.7590 O.3   1310  NAD1310    -0.2158
     35  C1D       85.3510  114.2250  -40.0100 C.3   1310  NAD1310     0.2263
     36  N1N       86.0610  112.9820  -40.5140 N.pl3 1310  NAD1310    -0.2787
     37  C2N       85.5080  112.2000  -41.5150 C.3   1310  NAD1310     0.1244
     38  C3N       86.1910  111.1030  -41.9410 C.2   1310  NAD1310     0.0544
     39  C7N       85.6130  110.2240  -43.0440 C.2   1310  NAD1310     0.2818
     40  O7N       85.9600  109.0850  -43.3140 O.2   1310  NAD1310    -0.2670
     41  N7N       84.5860  110.8800  -43.7960 N.am  1310  NAD1310    -0.0839
     42  C4N       87.5030  110.6990  -41.3870 C.2   1310  NAD1310     0.0033
     43  C5N       87.9790  111.5630  -40.3690 C.2   1310  NAD1310     0.0157
     44  C6N       87.3440  112.6590  -39.9110 C.2   1310  NAD1310     0.0633
@<TRIPOS>BOND
     1    41    39   am
     2    40    39    2
     3    39    38    1
     4    20    19    1
     5    20    21    1
     6    19    17    2
     7    38    37    1
     8    38    42    2
     9    37    36    1
    10    21    22    2
    11    42    43    1
    12    17    18    1
    13    17    16    1
    14    30    35    1
    15    30    29    1
    16    36    35    1
    17    36    44    1
    18    43    44    2
    19    22    16    1
    20    22    13    1
    21    16    15    2
    22    35    33    1
    23    29    28    1
    24    29    31    1
    25    28    27    1
    26     7    12    1
    27     7     6    1
    28    13    12    1
    29    13    14    1
    30    12    10    1
    31    26    24    2
    32    15    14    1
    33     6     5    1
    34     6     8    1
    35    32    31    1
    36    31    33    1
    37    27    24    1
    38    33    34    1
    39     5     4    1
    40    24    23    1
    41    24    25    1
    42     9     8    1
    43     4     1    1
    44     8    10    1
    45    10    11    1
    46    23     1    1
    47     1     3    2
    48     1     2    1
