@<TRIPOS>MOLECULE
1uxi_NAD_A_1.pdb
 44 48 0 0 0
SMALL
GASTEIGER

@<TRIPOS>ATOM
      1  PA        89.2620  119.1370   76.1210 P.3   1310  NAD1310     0.2189
      2  O1A       88.5230  119.6700   77.2520 O.3   1310  NAD1310    -0.4371
      3  O2A       90.7540  118.8400   76.2630 O.2   1310  NAD1310    -0.5170
      4  O5B       89.2430  120.0800   74.8310 O.3   1310  NAD1310    -0.3112
      5  C5B       88.0350  120.7200   74.2900 C.3   1310  NAD1310     0.1813
      6  C4B       88.5120  122.0970   73.8560 C.3   1310  NAD1310     0.1821
      7  O4B       87.3060  122.7770   73.2920 O.3   1310  NAD1310    -0.3135
      8  C3B       88.9330  123.0560   75.0260 C.3   1310  NAD1310     0.2184
      9  O3B       90.3320  123.5420   74.7190 O.3   1310  NAD1310    -0.2174
     10  C2B       87.9650  124.1960   75.0820 C.3   1310  NAD1310     0.2570
     11  O2B       88.3380  125.4120   75.5350 O.3   1310  NAD1310    -0.2130
     12  C1B       87.4590  124.1450   73.6140 C.3   1310  NAD1310     0.3186
     13  N9A       86.1540  124.7560   73.4670 N.pl3 1310  NAD1310    -0.1439
     14  C8A       85.0260  124.8880   74.2280 C.3   1310  NAD1310     0.3377
     15  N7A       84.0200  125.5520   73.6760 N.2   1310  NAD1310    -0.2095
     16  C5A       84.4550  125.9080   72.4660 C.2   1310  NAD1310     0.2526
     17  C6A       83.7970  126.6730   71.3590 C.2   1310  NAD1310     0.4393
     18  N6A       82.5820  127.1510   71.4230 N.pl3 1310  NAD1310     0.2180
     19  N1A       84.6240  126.8090   70.2800 N.2   1310  NAD1310     0.0021
     20  C2A       85.8770  126.3730   70.0930 C.3   1310  NAD1310     0.5254
     21  N3A       86.5430  125.6410   71.1150 N.2   1310  NAD1310    -0.0055
     22  C4A       85.7810  125.4410   72.2760 C.2   1310  NAD1310     0.3518
     23  O3        88.6400  117.8400   75.5680 O.3   1310  NAD1310    -0.2703
     24  PN        89.0450  116.5800   74.7660 P.3   1310  NAD1310     0.2189
     25  O1N       89.5950  115.5970   75.7170 O.3   1310  NAD1310    -0.4371
     26  O2N       89.9430  117.0390   73.6600 O.2   1310  NAD1310    -0.5170
     27  O5D       87.7500  115.8720   74.1210 O.3   1310  NAD1310    -0.3112
     28  C5D       87.0720  116.7370   73.1120 C.3   1310  NAD1310     0.1813
     29  C4D       85.6700  116.2200   72.9090 C.3   1310  NAD1310     0.1799
     30  O4D       85.7090  114.9940   72.0470 O.3   1310  NAD1310    -0.3327
     31  C3D       84.8960  115.7040   74.1680 C.3   1310  NAD1310     0.2158
     32  O3D       83.4940  116.0740   74.0580 O.3   1310  NAD1310    -0.2175
     33  C2D       85.0880  114.1780   74.2010 C.3   1310  NAD1310     0.2309
     34  O2D       84.1810  113.4330   74.9580 O.3   1310  NAD1310    -0.2158
     35  C1D       85.0450  113.8420   72.6920 C.3   1310  NAD1310     0.2263
     36  N1N       85.7550  112.6190   72.1620 N.pl3 1310  NAD1310    -0.2787
     37  C2N       85.1800  111.8650   71.1710 C.3   1310  NAD1310     0.1244
     38  C3N       85.8330  110.7800   70.7000 C.2   1310  NAD1310     0.0544
     39  C7N       85.1740  109.9690   69.5880 C.2   1310  NAD1310     0.2818
     40  O7N       84.3020  110.3660   68.8180 O.2   1310  NAD1310    -0.2670
     41  N7N       85.6840  108.6470   69.4980 N.am  1310  NAD1310    -0.0839
     42  C4N       87.1610  110.3510   71.2050 C.2   1310  NAD1310     0.0033
     43  C5N       87.6690  111.1950   72.2310 C.2   1310  NAD1310     0.0157
     44  C6N       87.0490  112.2870   72.7260 C.2   1310  NAD1310     0.0633
@<TRIPOS>BOND
     1    40    39    2
     2    41    39   am
     3    39    38    1
     4    20    19    1
     5    20    21    1
     6    19    17    2
     7    38    37    1
     8    38    42    2
     9    21    22    2
    10    37    36    1
    11    42    43    1
    12    17    18    1
    13    17    16    1
    14    30    35    1
    15    30    29    1
    16    36    35    1
    17    36    44    1
    18    43    44    2
    19    22    16    1
    20    22    13    1
    21    16    15    2
    22    35    33    1
    23    29    28    1
    24    29    31    1
    25    28    27    1
    26     7    12    1
    27     7     6    1
    28    13    12    1
    29    13    14    1
    30    12    10    1
    31    26    24    2
    32    15    14    1
    33     6     5    1
    34     6     8    1
    35    32    31    1
    36    27    24    1
    37    31    33    1
    38    33    34    1
    39     5     4    1
    40     9     8    1
    41    24    23    1
    42    24    25    1
    43     4     1    1
    44     8    10    1
    45    10    11    1
    46    23     1    1
    47     1     3    2
    48     1     2    1
