@<TRIPOS>MOLECULE
1uxj_NAD_A_1.pdb
 44 48 0 0 0
SMALL
GASTEIGER

@<TRIPOS>ATOM
      1  PA        -8.2180   25.0350   61.0790 P.3   1308  NAD1308     0.2189
      2  O1A       -7.3030   23.9160   60.8340 O.2   1308  NAD1308    -0.5170
      3  O2A       -9.2330   24.9770   62.2240 O.3   1308  NAD1308    -0.4371
      4  O5B       -9.1540   25.3550   59.8100 O.3   1308  NAD1308    -0.3112
      5  C5B       -8.6510   25.4030   58.4270 C.3   1308  NAD1308     0.1813
      6  C4B       -9.7570   24.7860   57.5890 C.3   1308  NAD1308     0.1821
      7  O4B       -9.2460   24.8470   56.1810 O.3   1308  NAD1308    -0.3135
      8  C3B       -9.9980   23.2410   57.7890 C.3   1308  NAD1308     0.2184
      9  O3B      -11.4500   23.0380   58.1380 O.3   1308  NAD1308    -0.2174
     10  C2B       -9.6290   22.5380   56.5150 C.3   1308  NAD1308     0.2570
     11  O2B      -10.2080   21.3820   56.1320 O.3   1308  NAD1308    -0.2130
     12  C1B       -9.7840   23.7310   55.5240 C.3   1308  NAD1308     0.3186
     13  N9A       -8.9910   23.5530   54.3440 N.pl3 1308  NAD1308    -0.1439
     14  C8A       -7.7470   23.0600   54.0540 C.3   1308  NAD1308     0.3377
     15  N7A       -7.3860   23.0790   52.7820 N.2   1308  NAD1308    -0.2095
     16  C5A       -8.4250   23.6110   52.1310 C.2   1308  NAD1308     0.2526
     17  C6A       -8.6390   23.9000   50.6760 C.2   1308  NAD1308     0.4393
     18  N6A       -7.7540   23.6460   49.7440 N.pl3 1308  NAD1308     0.2180
     19  N1A       -9.8660   24.4560   50.4500 N.2   1308  NAD1308     0.0021
     20  C2A      -10.8490   24.7620   51.3080 C.3   1308  NAD1308     0.5254
     21  N3A      -10.6940   24.5060   52.7040 N.2   1308  NAD1308    -0.0055
     22  C4A       -9.4600   23.9310   53.0500 C.2   1308  NAD1308     0.3518
     23  O3        -7.4400   26.3490   61.2890 O.3   1308  NAD1308    -0.2703
     24  PN        -7.5940   27.7740   61.8970 P.3   1308  NAD1308     0.2189
     25  O1N       -7.2900   27.7590   63.3420 O.3   1308  NAD1308    -0.4371
     26  O2N       -8.9630   28.2510   61.5280 O.2   1308  NAD1308    -0.5170
     27  O5D       -6.4610   28.7420   61.2670 O.3   1308  NAD1308    -0.3112
     28  C5D       -6.6020   28.8980   59.8010 C.3   1308  NAD1308     0.1813
     29  C4D       -5.3970   29.6390   59.2830 C.3   1308  NAD1308     0.1799
     30  O4D       -5.3500   31.0450   59.8240 O.3   1308  NAD1308    -0.3327
     31  C3D       -3.9710   29.1050   59.6700 C.3   1308  NAD1308     0.2158
     32  O3D       -3.0860   29.2680   58.5380 O.3   1308  NAD1308    -0.2175
     33  C2D       -3.5020   29.9450   60.8730 C.3   1308  NAD1308     0.2309
     34  O2D       -2.1200   29.9270   61.1550 O.3   1308  NAD1308    -0.2158
     35  C1D       -4.0290   31.3390   60.4360 C.3   1308  NAD1308     0.2263
     36  N1N       -4.2400   32.4420   61.4460 N.pl3 1308  NAD1308    -0.2787
     37  C2N       -3.9210   33.7510   61.1280 C.3   1308  NAD1308     0.1244
     38  C3N       -4.1250   34.7230   62.0640 C.2   1308  NAD1308     0.0544
     39  C7N       -3.7840   36.1800   61.7340 C.2   1308  NAD1308     0.2818
     40  O7N       -3.8690   37.1390   62.4900 O.2   1308  NAD1308    -0.2670
     41  N7N       -3.3280   36.3480   60.3900 N.am  1308  NAD1308    -0.0839
     42  C4N       -4.6720   34.4470   63.4100 C.2   1308  NAD1308     0.0033
     43  C5N       -4.9640   33.0790   63.6320 C.2   1308  NAD1308     0.0157
     44  C6N       -4.7830   32.0810   62.7430 C.2   1308  NAD1308     0.0633
@<TRIPOS>BOND
     1    18    17    1
     2    19    17    2
     3    19    20    1
     4    17    16    1
     5    20    21    1
     6    16    15    2
     7    16    22    1
     8    21    22    2
     9    15    14    1
    10    22    13    1
    11    14    13    1
    12    13    12    1
    13    12     7    1
    14    12    10    1
    15    11    10    1
    16     7     6    1
    17    10     8    1
    18     6     8    1
    19     6     5    1
    20     8     9    1
    21     5     4    1
    22    32    31    1
    23    29    31    1
    24    29    28    1
    25    29    30    1
    26    31    33    1
    27    28    27    1
    28     4     1    1
    29    30    35    1
    30    41    39   am
    31    35    33    1
    32    35    36    1
    33     2     1    2
    34    33    34    1
    35     1    23    1
    36     1     3    1
    37    37    36    1
    38    37    38    1
    39    27    24    1
    40    23    24    1
    41    36    44    1
    42    26    24    2
    43    39    38    1
    44    39    40    2
    45    24    25    1
    46    38    42    2
    47    44    43    2
    48    42    43    1
