@<TRIPOS>MOLECULE
1uxk_NAD_A_1.pdb
 44 48 0 0 0
SMALL
GASTEIGER

@<TRIPOS>ATOM
      1  PA        -8.2700   25.2490   61.2730 P.3   1307  NAD1307     0.2189
      2  O1A       -7.3390   24.1390   61.0470 O.2   1307  NAD1307    -0.5170
      3  O2A       -9.2910   25.2010   62.4160 O.3   1307  NAD1307    -0.4371
      4  O5B       -9.2110   25.5430   59.9920 O.3   1307  NAD1307    -0.3112
      5  C5B       -8.7010   25.5900   58.6080 C.3   1307  NAD1307     0.1813
      6  C4B       -9.7980   24.9750   57.7550 C.3   1307  NAD1307     0.1821
      7  O4B       -9.2620   25.0380   56.3550 O.3   1307  NAD1307    -0.3135
      8  C3B      -10.0400   23.4310   57.9510 C.3   1307  NAD1307     0.2184
      9  O3B      -11.5040   23.2280   58.2600 O.3   1307  NAD1307    -0.2174
     10  C2B       -9.6380   22.7260   56.6900 C.3   1307  NAD1307     0.2570
     11  O2B      -10.2040   21.5700   56.2950 O.3   1307  NAD1307    -0.2130
     12  C1B       -9.7690   23.9110   55.6900 C.3   1307  NAD1307     0.3186
     13  N9A       -8.9340   23.7300   54.5450 N.pl3 1307  NAD1307    -0.1439
     14  C8A       -7.6760   23.2400   54.3040 C.3   1307  NAD1307     0.3377
     15  N7A       -7.2680   23.2530   53.0460 N.2   1307  NAD1307    -0.2095
     16  C5A       -8.2870   23.7800   52.3540 C.2   1307  NAD1307     0.2526
     17  C6A       -8.4510   24.0610   50.8950 C.2   1307  NAD1307     0.4393
     18  N6A       -7.5340   23.8070   49.9950 N.pl3 1307  NAD1307     0.2180
     19  N1A       -9.6730   24.6110   50.6240 N.2   1307  NAD1307     0.0021
     20  C2A      -10.6900   24.9170   51.4440 C.3   1307  NAD1307     0.5254
     21  N3A      -10.5830   24.6690   52.8420 N.2   1307  NAD1307    -0.0055
     22  C4A       -9.3580   24.0990   53.2350 C.2   1307  NAD1307     0.3518
     23  O3        -7.5090   26.5760   61.4690 O.3   1307  NAD1307    -0.2703
     24  PN        -7.7010   28.0040   62.0570 P.3   1307  NAD1307     0.2189
     25  O1N       -7.4340   27.9800   63.5080 O.3   1307  NAD1307    -0.4371
     26  O2N       -9.0750   28.4580   61.6500 O.2   1307  NAD1307    -0.5170
     27  O5D       -6.5710   28.9990   61.4480 O.3   1307  NAD1307    -0.3112
     28  C5D       -6.6910   29.1590   59.9780 C.3   1307  NAD1307     0.1813
     29  C4D       -5.4710   29.8800   59.4770 C.3   1307  NAD1307     0.1799
     30  O4D       -5.3990   31.2830   60.0270 O.3   1307  NAD1307    -0.3327
     31  C3D       -4.0570   29.3110   59.8680 C.3   1307  NAD1307     0.2158
     32  O3D       -3.1680   29.4170   58.7330 O.3   1307  NAD1307    -0.2175
     33  C2D       -3.5530   30.1500   61.0590 C.3   1307  NAD1307     0.2309
     34  O2D       -2.1660   30.1160   61.3020 O.3   1307  NAD1307    -0.2158
     35  C1D       -4.0760   31.5580   60.6460 C.3   1307  NAD1307     0.2263
     36  N1N       -4.2830   32.6520   61.6770 N.pl3 1307  NAD1307    -0.2787
     37  C2N       -4.0020   33.9750   61.3650 C.3   1307  NAD1307     0.1244
     38  C3N       -4.2030   34.9330   62.3140 C.2   1307  NAD1307     0.0544
     39  C7N       -3.9030   36.3990   61.9890 C.2   1307  NAD1307     0.2818
     40  O7N       -3.9450   37.3400   62.7650 O.2   1307  NAD1307    -0.2670
     41  N7N       -3.5470   36.5980   60.6180 N.am  1307  NAD1307    -0.0839
     42  C4N       -4.7050   34.6340   63.6710 C.2   1307  NAD1307     0.0033
     43  C5N       -4.9590   33.2540   63.8860 C.2   1307  NAD1307     0.0157
     44  C6N       -4.7800   32.2700   62.9830 C.2   1307  NAD1307     0.0633
@<TRIPOS>BOND
     1    18    17    1
     2    19    17    2
     3    19    20    1
     4    17    16    1
     5    20    21    1
     6    16    15    2
     7    16    22    1
     8    21    22    2
     9    15    14    1
    10    22    13    1
    11    14    13    1
    12    13    12    1
    13    12     7    1
    14    12    10    1
    15    11    10    1
    16     7     6    1
    17    10     8    1
    18     6     8    1
    19     6     5    1
    20     8     9    1
    21     5     4    1
    22    32    31    1
    23    29    31    1
    24    29    28    1
    25    29    30    1
    26    31    33    1
    27    28    27    1
    28     4     1    1
    29    30    35    1
    30    41    39   am
    31    35    33    1
    32    35    36    1
    33     2     1    2
    34    33    34    1
    35     1    23    1
    36     1     3    1
    37    37    36    1
    38    37    38    1
    39    27    24    1
    40    23    24    1
    41    26    24    2
    42    36    44    1
    43    39    38    1
    44    39    40    2
    45    24    25    1
    46    38    42    2
    47    44    43    2
    48    42    43    1
