@<TRIPOS>MOLECULE
1uxn_AMP_A_1.pdb
 23 25 0 0 0
SMALL
GASTEIGER

@<TRIPOS>ATOM
      1  P        -33.0220   77.2850   38.0810 P.3   1502  AMP1502     0.5327
      2  O1P      -31.9050   77.3130   39.0600 O.3   1502  AMP1502    -0.1145
      3  O2P      -34.0470   78.3020   38.1860 O.3   1502  AMP1502    -0.1145
      4  O3P      -33.6280   75.8800   37.9910 O.2   1502  AMP1502    -0.2224
      5  O5'      -32.2250   77.5270   36.7150 O.3   1502  AMP1502    -0.2675
      6  C5'      -32.9250   77.4830   35.5190 C.3   1502  AMP1502     0.1860
      7  C4'      -32.0760   78.1310   34.4530 C.3   1502  AMP1502     0.1823
      8  O4'      -32.9690   77.9160   33.3090 O.3   1502  AMP1502    -0.3135
      9  C3'      -31.9710   79.7870   34.6590 C.3   1502  AMP1502     0.2184
     10  O3'      -30.7640   80.2230   33.8720 O.3   1502  AMP1502    -0.2174
     11  C2'      -33.3420   80.1770   33.9890 C.3   1502  AMP1502     0.2570
     12  O2'      -33.4090   81.4640   33.4730 O.3   1502  AMP1502    -0.2130
     13  C1'      -33.4630   79.1260   32.8020 C.3   1502  AMP1502     0.3186
     14  N9       -34.8440   78.8650   32.4000 N.pl3 1502  AMP1502    -0.1439
     15  C8       -36.0310   79.0950   33.1020 C.3   1502  AMP1502     0.3377
     16  N7       -37.1750   78.7620   32.4810 N.2   1502  AMP1502    -0.2095
     17  C5       -36.6370   78.2810   31.2880 C.2   1502  AMP1502     0.2526
     18  C6       -37.2670   77.7590   30.1370 C.2   1502  AMP1502     0.4393
     19  N6       -38.6390   77.6810   30.1160 N.pl3 1502  AMP1502     0.2180
     20  N1       -36.4120   77.3620   29.1050 N.2   1502  AMP1502     0.0021
     21  C2       -35.0660   77.4580   29.1700 C.3   1502  AMP1502     0.5254
     22  N3       -34.3850   77.9480   30.2270 N.2   1502  AMP1502    -0.0055
     23  C4       -35.2220   78.3370   31.2330 C.2   1502  AMP1502     0.3518
@<TRIPOS>BOND
     1    20    21    1
     2    20    18    2
     3    21    22    1
     4    19    18    1
     5    18    17    1
     6    22    23    2
     7    23    17    1
     8    23    14    1
     9    17    16    2
    10    14    13    1
    11    14    15    1
    12    16    15    1
    13    13     8    1
    14    13    11    1
    15     8     7    1
    16    12    11    1
    17    10     9    1
    18    11     9    1
    19     7     9    1
    20     7     6    1
    21     6     5    1
    22     5     1    1
    23     4     1    2
    24     1     3    1
    25     1     2    1
