@<TRIPOS>MOLECULE
1uxn_NAP_A_1.pdb
 48 52 0 0 0
SMALL
GASTEIGER

@<TRIPOS>ATOM
      1  PA       -18.8720   60.1330   11.9060 P.3   1503  NAP1503     0.2189
      2  O1A      -20.1350   59.3770   11.9930 O.3   1503  NAP1503    -0.4371
      3  O2A      -17.7100   59.2300   11.8050 O.2   1503  NAP1503    -0.5170
      4  O5B      -18.5580   61.1020   13.0210 O.3   1503  NAP1503    -0.3112
      5  C5B      -18.6970   60.5540   14.2660 C.3   1503  NAP1503     0.1813
      6  C4B      -18.3050   61.4380   15.4060 C.3   1503  NAP1503     0.1820
      7  O4B      -18.6110   60.4570   16.3940 O.3   1503  NAP1503    -0.3136
      8  C3B      -16.7790   61.5750   15.3810 C.3   1503  NAP1503     0.2157
      9  O3B      -16.4050   62.6400   16.2700 O.3   1503  NAP1503    -0.2175
     10  C2B      -16.3460   60.2490   15.9000 C.3   1503  NAP1503     0.2314
     11  O2B      -15.0230   60.2940   16.4090 O.3   1503  NAP1503    -0.2630
     12  C1B      -17.4110   59.8840   16.9370 C.3   1503  NAP1503     0.3158
     13  N9A      -17.5580   58.4470   17.0450 N.pl3 1503  NAP1503    -0.1439
     14  C8A      -17.2040   57.4470   16.1380 C.3   1503  NAP1503     0.3377
     15  N7A      -17.5090   56.2290   16.6490 N.2   1503  NAP1503    -0.2095
     16  C5A      -18.0430   56.4890   17.8450 C.2   1503  NAP1503     0.2526
     17  C6A      -18.5250   55.5900   18.7840 C.2   1503  NAP1503     0.4393
     18  N6A      -18.5120   54.2870   18.5770 N.pl3 1503  NAP1503     0.2180
     19  N1A      -19.0360   56.0810   19.9750 N.2   1503  NAP1503     0.0021
     20  C2A      -19.0670   57.4170   20.2140 C.3   1503  NAP1503     0.5254
     21  N3A      -18.6040   58.2920   19.3050 N.2   1503  NAP1503    -0.0055
     22  C4A      -18.0810   57.8540   18.1050 C.2   1503  NAP1503     0.3518
     23  O3       -18.8470   60.9670   10.5120 O.3   1503  NAP1503    -0.2703
     24  PN       -17.8910   62.0590    9.9130 P.3   1503  NAP1503     0.2189
     25  O1N      -17.1190   61.2450    8.9410 O.2   1503  NAP1503    -0.5170
     26  O2N      -16.9210   62.6100   10.9160 O.3   1503  NAP1503    -0.4371
     27  O5D      -18.7060   63.0830    8.9810 O.3   1503  NAP1503    -0.3112
     28  C5D      -19.8960   63.6590    9.3090 C.3   1503  NAP1503     0.1813
     29  C4D      -21.0470   62.7370    9.0110 C.3   1503  NAP1503     0.1799
     30  O4D      -22.0810   63.3410    9.7440 O.3   1503  NAP1503    -0.3327
     31  C3D      -21.5580   62.7080    7.5380 C.3   1503  NAP1503     0.2158
     32  O3D      -22.3150   61.4640    7.2330 O.3   1503  NAP1503    -0.2175
     33  C2D      -22.4780   63.9320    7.4740 C.3   1503  NAP1503     0.2309
     34  O2D      -23.4830   63.8300    6.4480 O.3   1503  NAP1503    -0.2158
     35  C1D      -23.0410   63.9570    8.8560 C.3   1503  NAP1503     0.2263
     36  N1N      -23.3680   65.3040    9.2380 N.pl3 1503  NAP1503    -0.2787
     37  C2N      -24.7230   65.5090    9.5530 C.3   1503  NAP1503     0.1244
     38  C3N      -25.1560   66.8070    9.8750 C.2   1503  NAP1503     0.0544
     39  C7N      -26.6500   67.0460   10.2050 C.2   1503  NAP1503     0.2818
     40  O7N      -27.0590   68.1840   10.4770 O.2   1503  NAP1503    -0.2670
     41  N7N      -27.3880   65.9620   10.1560 N.am  1503  NAP1503    -0.0839
     42  C4N      -24.2100   67.9120    9.8830 C.2   1503  NAP1503     0.0033
     43  C5N      -22.8000   67.6980    9.5630 C.2   1503  NAP1503     0.0157
     44  C6N      -22.3920   66.3720    9.2420 C.2   1503  NAP1503     0.0633
     45  P2B      -13.6770   59.8960   15.5670 P.3   1503  NAP1503     0.5328
     46  O1X      -14.0210   58.5570   14.8920 O.3   1503  NAP1503    -0.1145
     47  O2X      -13.4080   61.0320   14.6730 O.2   1503  NAP1503    -0.2224
     48  O3X      -12.6470   59.6660   16.6570 O.3   1503  NAP1503    -0.1145
@<TRIPOS>BOND
     1    34    33    1
     2    32    31    1
     3    33    31    1
     4    33    35    1
     5    31    29    1
     6    35    36    1
     7    35    30    1
     8    25    24    2
     9    27    28    1
    10    27    24    1
    11    29    28    1
    12    29    30    1
    13    36    44    1
    14    36    37    1
    15    44    43    2
    16    37    38    1
    17    43    42    1
    18    38    42    2
    19    38    39    1
    20    24    23    1
    21    24    26    1
    22    41    39   am
    23    39    40    2
    24    23     1    1
    25     3     1    2
    26     1     2    1
    27     1     4    1
    28     4     5    1
    29     5     6    1
    30    47    45    2
    31    46    45    1
    32     8     6    1
    33     8    10    1
    34     8     9    1
    35     6     7    1
    36    45    11    1
    37    45    48    1
    38    10    11    1
    39    10    12    1
    40    14    15    1
    41    14    13    1
    42     7    12    1
    43    15    16    2
    44    12    13    1
    45    13    22    1
    46    16    22    1
    47    16    17    1
    48    22    21    2
    49    18    17    1
    50    17    19    2
    51    21    20    1
    52    19    20    1
