@<TRIPOS>MOLECULE
1uxp_AMP_A_1.pdb
 23 25 0 0 0
SMALL
GASTEIGER

@<TRIPOS>ATOM
      1  P        -33.0460   77.3210   38.2710 P.3   1502  AMP1502     0.5327
      2  O1P      -31.8980   77.4130   39.1930 O.3   1502  AMP1502    -0.1145
      3  O2P      -34.1100   78.3280   38.3440 O.3   1502  AMP1502    -0.1145
      4  O3P      -33.6230   75.9150   38.2900 O.2   1502  AMP1502    -0.2224
      5  O5'      -32.3370   77.5120   36.8520 O.3   1502  AMP1502    -0.2675
      6  C5'      -33.1290   77.4290   35.6950 C.3   1502  AMP1502     0.1860
      7  C4'      -32.3360   78.1000   34.5840 C.3   1502  AMP1502     0.1823
      8  O4'      -33.2440   77.9000   33.4490 O.3   1502  AMP1502    -0.3135
      9  C3'      -32.2070   79.7460   34.8440 C.3   1502  AMP1502     0.2184
     10  O3'      -30.9360   80.1720   34.1480 O.3   1502  AMP1502    -0.2174
     11  C2'      -33.5510   80.2040   34.1270 C.3   1502  AMP1502     0.2570
     12  O2'      -33.5240   81.4820   33.5590 O.3   1502  AMP1502    -0.2130
     13  C1'      -33.7610   79.1190   32.9590 C.3   1502  AMP1502     0.3186
     14  N9       -35.1800   78.8930   32.6620 N.pl3 1502  AMP1502    -0.1439
     15  C8       -36.2910   79.1390   33.4800 C.3   1502  AMP1502     0.3377
     16  N7       -37.5070   78.8540   32.9680 N.2   1502  AMP1502    -0.2095
     17  C5       -37.1120   78.3860   31.7150 C.2   1502  AMP1502     0.2526
     18  C6       -37.8890   77.9110   30.6250 C.2   1502  AMP1502     0.4393
     19  N6       -39.2640   77.8880   30.7590 N.pl3 1502  AMP1502     0.2180
     20  N1       -37.1710   77.5040   29.4890 N.2   1502  AMP1502     0.0021
     21  C2       -35.8110   77.5500   29.4110 C.3   1502  AMP1502     0.5254
     22  N3       -34.9910   77.9950   30.4010 N.2   1502  AMP1502    -0.0055
     23  C4       -35.6980   78.3930   31.5120 C.2   1502  AMP1502     0.3518
@<TRIPOS>BOND
     1    21    20    1
     2    21    22    1
     3    20    18    2
     4    22    23    2
     5    18    19    1
     6    18    17    1
     7    23    17    1
     8    23    14    1
     9    17    16    2
    10    14    13    1
    11    14    15    1
    12    13     8    1
    13    13    11    1
    14    16    15    1
    15     8     7    1
    16    12    11    1
    17    11     9    1
    18    10     9    1
    19     7     9    1
    20     7     6    1
    21     6     5    1
    22     5     1    1
    23     1     4    2
    24     1     3    1
    25     1     2    1
