@<TRIPOS>MOLECULE
1uxp_NAP_A_1.pdb
 48 52 0 0 0
SMALL
GASTEIGER

@<TRIPOS>ATOM
      1  PA       -18.8830   60.3370   12.0530 P.3   1503  NAP1503     0.2189
      2  O1A      -20.1580   59.5830   12.1170 O.3   1503  NAP1503    -0.4371
      3  O2A      -17.7010   59.4540   11.9670 O.2   1503  NAP1503    -0.5170
      4  O5B      -18.6130   61.3140   13.1870 O.3   1503  NAP1503    -0.3112
      5  C5B      -18.7440   60.7360   14.4270 C.3   1503  NAP1503     0.1813
      6  C4B      -18.3930   61.6020   15.6020 C.3   1503  NAP1503     0.1820
      7  O4B      -18.6840   60.5920   16.5640 O.3   1503  NAP1503    -0.3136
      8  C3B      -16.8710   61.7790   15.6100 C.3   1503  NAP1503     0.2157
      9  O3B      -16.5380   62.8010   16.5770 O.3   1503  NAP1503    -0.2175
     10  C2B      -16.4130   60.4360   16.0610 C.3   1503  NAP1503     0.2314
     11  O2B      -15.0660   60.4840   16.5260 O.3   1503  NAP1503    -0.2630
     12  C1B      -17.4660   60.0360   17.1110 C.3   1503  NAP1503     0.3158
     13  N9A      -17.6080   58.5840   17.2290 N.pl3 1503  NAP1503    -0.1439
     14  C8A      -17.2270   57.5840   16.3530 C.3   1503  NAP1503     0.3377
     15  N7A      -17.5430   56.3660   16.8620 N.2   1503  NAP1503    -0.2095
     16  C5A      -18.1110   56.6290   18.0330 C.2   1503  NAP1503     0.2526
     17  C6A      -18.6190   55.7280   18.9660 C.2   1503  NAP1503     0.4393
     18  N6A      -18.5880   54.4140   18.7690 N.pl3 1503  NAP1503     0.2180
     19  N1A      -19.1750   56.2340   20.1450 N.2   1503  NAP1503     0.0021
     20  C2A      -19.2180   57.5770   20.3650 C.3   1503  NAP1503     0.5254
     21  N3A      -18.7270   58.4440   19.4580 N.2   1503  NAP1503    -0.0055
     22  C4A      -18.1640   57.9970   18.2800 C.2   1503  NAP1503     0.3518
     23  O3       -18.8500   61.1670   10.6730 O.3   1503  NAP1503    -0.2703
     24  PN       -17.8900   62.2260   10.0620 P.3   1503  NAP1503     0.2189
     25  O1N      -17.2110   61.4620    8.9950 O.2   1503  NAP1503    -0.5170
     26  O2N      -16.8770   62.7040   11.0530 O.3   1503  NAP1503    -0.4371
     27  O5D      -18.7770   63.3600    9.3190 O.3   1503  NAP1503    -0.3112
     28  C5D      -20.0450   63.7710    9.7530 C.3   1503  NAP1503     0.1813
     29  C4D      -21.1530   62.8480    9.2680 C.3   1503  NAP1503     0.1799
     30  O4D      -22.3280   63.3440    9.8780 O.3   1503  NAP1503    -0.3327
     31  C3D      -21.4600   62.8540    7.7470 C.3   1503  NAP1503     0.2158
     32  O3D      -22.0110   61.5480    7.3390 O.3   1503  NAP1503    -0.2175
     33  C2D      -22.5250   63.9590    7.5720 C.3   1503  NAP1503     0.2309
     34  O2D      -23.4510   63.6420    6.5160 O.3   1503  NAP1503    -0.2158
     35  C1D      -23.1850   64.0010    8.9140 C.3   1503  NAP1503     0.2263
     36  N1N      -23.5050   65.3510    9.3270 N.pl3 1503  NAP1503    -0.2787
     37  C2N      -24.8610   65.5620    9.6500 C.3   1503  NAP1503     0.1244
     38  C3N      -25.2760   66.8400   10.0340 C.2   1503  NAP1503     0.0544
     39  C7N      -26.7630   67.0890   10.3640 C.2   1503  NAP1503     0.2818
     40  O7N      -27.1440   68.2090   10.6880 O.2   1503  NAP1503    -0.2670
     41  N7N      -27.5330   66.0270   10.2550 N.am  1503  NAP1503    -0.0839
     42  C4N      -24.3090   67.9240   10.1030 C.2   1503  NAP1503     0.0033
     43  C5N      -22.9130   67.7110    9.7750 C.2   1503  NAP1503     0.0157
     44  C6N      -22.5250   66.4060    9.3850 C.2   1503  NAP1503     0.0633
     45  P2B      -13.7770   60.0230   15.6210 P.3   1503  NAP1503     0.5328
     46  O1X      -14.2580   58.7610   14.8600 O.3   1503  NAP1503    -0.1145
     47  O2X      -13.4180   61.1970   14.7800 O.2   1503  NAP1503    -0.2224
     48  O3X      -12.7420   59.6250   16.6620 O.3   1503  NAP1503    -0.1145
@<TRIPOS>BOND
     1    34    33    1
     2    32    31    1
     3    33    31    1
     4    33    35    1
     5    31    29    1
     6    35    36    1
     7    35    30    1
     8    25    24    2
     9    29    28    1
    10    29    30    1
    11    27    28    1
    12    27    24    1
    13    36    44    1
    14    36    37    1
    15    44    43    2
    16    37    38    1
    17    43    42    1
    18    38    42    2
    19    38    39    1
    20    24    23    1
    21    24    26    1
    22    41    39   am
    23    39    40    2
    24    23     1    1
    25     3     1    2
    26     1     2    1
    27     1     4    1
    28     4     5    1
    29     5     6    1
    30    47    45    2
    31    46    45    1
    32     6     8    1
    33     6     7    1
    34     8    10    1
    35     8     9    1
    36    45    11    1
    37    45    48    1
    38    10    11    1
    39    10    12    1
    40    14    15    1
    41    14    13    1
    42     7    12    1
    43    15    16    2
    44    12    13    1
    45    13    22    1
    46    16    22    1
    47    16    17    1
    48    22    21    2
    49    18    17    1
    50    17    19    2
    51    21    20    1
    52    19    20    1
