@<TRIPOS>MOLECULE
1uxq_G1P_A_1.pdb
 16 16 0 0 0
SMALL
GASTEIGER

@<TRIPOS>ATOM
      1  C1       -32.5910   77.1130   34.3600 C.3   1503  G1P1503     0.2781
      2  C2       -31.4930   78.0870   34.1030 C.3   1503  G1P1503     0.2410
      3  C3       -31.9890   79.5260   34.0240 C.3   1503  G1P1503     0.2198
      4  C4       -33.1020   79.6030   32.9890 C.3   1503  G1P1503     0.2144
      5  C5       -34.2790   78.7390   33.4070 C.3   1503  G1P1503     0.1835
      6  C6       -35.4060   78.6870   32.3810 C.3   1503  G1P1503     0.2142
      7  O1       -32.9630   76.6280   35.7310 O.3   1503  G1P1503    -0.2416
      8  O2       -30.4440   77.9660   35.0880 O.3   1503  G1P1503    -0.2149
      9  O3       -30.8430   80.3200   33.6550 O.3   1503  G1P1503    -0.2174
     10  O4       -33.4380   80.9930   33.0350 O.3   1503  G1P1503    -0.2176
     11  O5       -33.9270   77.4180   33.7560 O.3   1503  G1P1503    -0.3253
     12  O6       -36.4880   77.8540   32.8630 O.3   1503  G1P1503    -0.2176
     13  P        -32.9140   77.0860   37.3520 P.3   1503  G1P1503     0.5346
     14  O1P      -31.5010   77.2220   38.0010 O.3   1503  G1P1503    -0.1145
     15  O2P      -33.8560   78.4420   37.7110 O.2   1503  G1P1503    -0.2223
     16  O3P      -33.6270   75.8320   38.1340 O.3   1503  G1P1503    -0.1145
@<TRIPOS>BOND
     1     6    12    1
     2     6     5    1
     3     4    10    1
     4     4     5    1
     5     4     3    1
     6     5    11    1
     7     9     3    1
     8    11     1    1
     9     3     2    1
    10     2     1    1
    11     2     8    1
    12     1     7    1
    13     7    13    1
    14    13    15    2
    15    13    14    1
    16    13    16    1
