@<TRIPOS>MOLECULE
1uxq_NAP_A_1.pdb
 48 52 0 0 0
SMALL
GASTEIGER

@<TRIPOS>ATOM
      1  PA       -18.8330   60.0550   11.7250 P.3   1502  NAP1502     0.2189
      2  O1A      -20.0920   59.2900   11.8110 O.3   1502  NAP1502    -0.4371
      3  O2A      -17.6440   59.2010   11.6840 O.2   1502  NAP1502    -0.5170
      4  O5B      -18.5430   61.0630   12.8920 O.3   1502  NAP1502    -0.3112
      5  C5B      -18.6480   60.4820   14.1190 C.3   1502  NAP1502     0.1813
      6  C4B      -18.2900   61.3390   15.2940 C.3   1502  NAP1502     0.1820
      7  O4B      -18.5630   60.3060   16.2420 O.3   1502  NAP1502    -0.3136
      8  C3B      -16.7650   61.5330   15.2860 C.3   1502  NAP1502     0.2157
      9  O3B      -16.4200   62.5710   16.2390 O.3   1502  NAP1502    -0.2175
     10  C2B      -16.2890   60.1850   15.7280 C.3   1502  NAP1502     0.2314
     11  O2B      -14.9420   60.2280   16.1940 O.3   1502  NAP1502    -0.2630
     12  C1B      -17.3370   59.7480   16.7630 C.3   1502  NAP1502     0.3158
     13  N9A      -17.4720   58.2990   16.8260 N.pl3 1502  NAP1502    -0.1439
     14  C8A      -17.1180   57.3350   15.8940 C.3   1502  NAP1502     0.3377
     15  N7A      -17.4160   56.0970   16.3680 N.2   1502  NAP1502    -0.2095
     16  C5A      -17.9490   56.3150   17.5750 C.2   1502  NAP1502     0.2526
     17  C6A      -18.4270   55.3810   18.4940 C.2   1502  NAP1502     0.4393
     18  N6A      -18.4030   54.0790   18.2500 N.pl3 1502  NAP1502     0.2180
     19  N1A      -18.9450   55.8390   19.7080 N.2   1502  NAP1502     0.0021
     20  C2A      -18.9820   57.1670   19.9770 C.3   1502  NAP1502     0.5254
     21  N3A      -18.5200   58.0680   19.0870 N.2   1502  NAP1502    -0.0055
     22  C4A      -17.9940   57.6690   17.8730 C.2   1502  NAP1502     0.3518
     23  O3       -18.7730   60.8560   10.3460 O.3   1502  NAP1502    -0.2703
     24  PN       -17.8010   61.9270    9.8010 P.3   1502  NAP1502     0.2189
     25  O1N      -16.9920   61.1010    8.8830 O.2   1502  NAP1502    -0.5170
     26  O2N      -16.8930   62.4730   10.8480 O.3   1502  NAP1502    -0.4371
     27  O5D      -18.5600   62.9310    8.7990 O.3   1502  NAP1502    -0.3112
     28  C5D      -19.7620   63.5460    9.0360 C.3   1502  NAP1502     0.1813
     29  C4D      -20.9180   62.6020    8.7850 C.3   1502  NAP1502     0.1799
     30  O4D      -21.9550   63.1810    9.5410 O.3   1502  NAP1502    -0.3327
     31  C3D      -21.4570   62.5470    7.3300 C.3   1502  NAP1502     0.2158
     32  O3D      -22.1850   61.2800    7.0680 O.3   1502  NAP1502    -0.2175
     33  C2D      -22.4020   63.7430    7.2750 C.3   1502  NAP1502     0.2309
     34  O2D      -23.4110   63.5990    6.2700 O.3   1502  NAP1502    -0.2158
     35  C1D      -22.9460   63.7630    8.6750 C.3   1502  NAP1502     0.2263
     36  N1N      -23.3050   65.1080    9.0800 N.pl3 1502  NAP1502    -0.2787
     37  C2N      -24.6770   65.2950    9.3940 C.3   1502  NAP1502     0.1244
     38  C3N      -25.1200   66.5880    9.7350 C.2   1502  NAP1502     0.0544
     39  C7N      -26.6130   66.8300   10.0540 C.2   1502  NAP1502     0.2818
     40  O7N      -27.0130   67.9660   10.3340 O.2   1502  NAP1502    -0.2670
     41  N7N      -27.3650   65.7530    9.9850 N.am  1502  NAP1502    -0.0839
     42  C4N      -24.1750   67.6940    9.7620 C.2   1502  NAP1502     0.0033
     43  C5N      -22.7640   67.4950    9.4440 C.2   1502  NAP1502     0.0157
     44  C6N      -22.3490   66.1900    9.1060 C.2   1502  NAP1502     0.0633
     45  P2B      -13.6540   59.7490   15.2990 P.3   1502  NAP1502     0.5328
     46  O1X      -13.3850   60.9350   14.3550 O.2   1502  NAP1502    -0.2224
     47  O2X      -12.6000   59.4130   16.2790 O.3   1502  NAP1502    -0.1145
     48  O3X      -14.1580   58.5580   14.4710 O.3   1502  NAP1502    -0.1145
@<TRIPOS>BOND
     1    34    33    1
     2    32    31    1
     3    33    31    1
     4    33    35    1
     5    31    29    1
     6    35    36    1
     7    35    30    1
     8    29    28    1
     9    29    30    1
    10    27    28    1
    11    27    24    1
    12    25    24    2
    13    36    44    1
    14    36    37    1
    15    44    43    2
    16    37    38    1
    17    43    42    1
    18    38    42    2
    19    38    39    1
    20    24    23    1
    21    24    26    1
    22    41    39   am
    23    39    40    2
    24    23     1    1
    25     3     1    2
    26     1     2    1
    27     1     4    1
    28     4     5    1
    29     5     6    1
    30    46    45    2
    31    48    45    1
    32     8     6    1
    33     8    10    1
    34     8     9    1
    35     6     7    1
    36    45    11    1
    37    45    47    1
    38    10    11    1
    39    10    12    1
    40    14    15    1
    41    14    13    1
    42     7    12    1
    43    15    16    2
    44    12    13    1
    45    13    22    1
    46    16    22    1
    47    16    17    1
    48    22    21    2
    49    18    17    1
    50    17    19    2
    51    21    20    1
    52    19    20    1
