@<TRIPOS>MOLECULE
1uxr_F6P_A_1.pdb
 16 16 0 0 0
SMALL
GASTEIGER

@<TRIPOS>ATOM
      1  O1       -33.2120   76.8010   31.6210 O.3   1503  F6P1503    -0.2148
      2  C1       -34.1010   77.9130   31.8490 C.3   1503  F6P1503     0.2434
      3  C2       -34.0190   78.5520   33.2780 C.3   1503  F6P1503     0.2807
      4  O2       -35.3880   78.8160   33.7150 O.3   1503  F6P1503    -0.1896
      5  C3       -33.1220   79.8750   33.2240 C.3   1503  F6P1503     0.2409
      6  O3       -33.9230   81.0120   33.4830 O.3   1503  F6P1503    -0.2149
      7  C4       -31.9730   79.7330   34.2510 C.3   1503  F6P1503     0.2167
      8  O4       -30.6960   80.0430   33.7840 O.3   1503  F6P1503    -0.2175
      9  C5       -32.2220   78.3380   34.8130 C.3   1503  F6P1503     0.1808
     10  O5       -33.3060   77.6940   34.1480 O.3   1503  F6P1503    -0.3254
     11  C6       -32.5480   78.4390   36.1810 C.3   1503  F6P1503     0.1859
     12  O6       -32.7730   77.1050   36.6430 O.3   1503  F6P1503    -0.2675
     13  P        -33.0690   76.9590   38.1700 P.3   1503  F6P1503     0.5327
     14  O1P      -34.0840   77.9900   38.6770 O.3   1503  F6P1503    -0.1145
     15  O2P      -33.5830   75.5180   38.3610 O.2   1503  F6P1503    -0.2224
     16  O3P      -31.7970   77.1240   39.0270 O.3   1503  F6P1503    -0.1145
@<TRIPOS>BOND
     1     1     2    1
     2     2     3    1
     3     5     3    1
     4     5     6    1
     5     5     7    1
     6     3     4    1
     7     3    10    1
     8     8     7    1
     9    10     9    1
    10     7     9    1
    11     9    11    1
    12    11    12    1
    13    12    13    1
    14    13    15    2
    15    13    14    1
    16    13    16    1
