@<TRIPOS>MOLECULE
1uxr_NAP_A_1.pdb
 48 52 0 0 0
SMALL
GASTEIGER

@<TRIPOS>ATOM
      1  PA       -18.9590   60.1840   11.8890 P.3   1502  NAP1502     0.2189
      2  O1A      -20.2380   59.4480   12.0040 O.3   1502  NAP1502    -0.4371
      3  O2A      -17.7590   59.3300   11.7540 O.2   1502  NAP1502    -0.5170
      4  O5B      -18.6620   61.1670   13.0860 O.3   1502  NAP1502    -0.3112
      5  C5B      -18.7960   60.5930   14.3240 C.3   1502  NAP1502     0.1813
      6  C4B      -18.4220   61.4750   15.4910 C.3   1502  NAP1502     0.1820
      7  O4B      -18.7010   60.4750   16.4690 O.3   1502  NAP1502    -0.3136
      8  C3B      -16.8970   61.6630   15.4640 C.3   1502  NAP1502     0.2157
      9  O3B      -16.5520   62.7160   16.3900 O.3   1502  NAP1502    -0.2175
     10  C2B      -16.4220   60.3370   15.9450 C.3   1502  NAP1502     0.2314
     11  O2B      -15.0770   60.4210   16.4260 O.3   1502  NAP1502    -0.2630
     12  C1B      -17.4780   59.9280   16.9980 C.3   1502  NAP1502     0.3158
     13  N9A      -17.6150   58.4830   17.0940 N.pl3 1502  NAP1502    -0.1439
     14  C8A      -17.2310   57.5030   16.1930 C.3   1502  NAP1502     0.3377
     15  N7A      -17.5430   56.2760   16.6830 N.2   1502  NAP1502    -0.2095
     16  C5A      -18.1120   56.5180   17.8710 C.2   1502  NAP1502     0.2526
     17  C6A      -18.6120   55.5990   18.7890 C.2   1502  NAP1502     0.4393
     18  N6A      -18.5730   54.2940   18.5670 N.pl3 1502  NAP1502     0.2180
     19  N1A      -19.1650   56.0740   19.9740 N.2   1502  NAP1502     0.0021
     20  C2A      -19.2140   57.4070   20.2200 C.3   1502  NAP1502     0.5254
     21  N3A      -18.7290   58.2940   19.3280 N.2   1502  NAP1502    -0.0055
     22  C4A      -18.1680   57.8740   18.1400 C.2   1502  NAP1502     0.3518
     23  O3       -18.9490   61.0830   10.5670 O.3   1502  NAP1502    -0.2703
     24  PN       -17.9720   62.1610    9.9910 P.3   1502  NAP1502     0.2189
     25  O1N      -17.3760   61.5260    8.8000 O.2   1502  NAP1502    -0.5170
     26  O2N      -16.9130   62.5200   10.9910 O.3   1502  NAP1502    -0.4371
     27  O5D      -18.9480   63.3490    9.5630 O.3   1502  NAP1502    -0.3112
     28  C5D      -19.5890   63.2360    8.2750 C.3   1502  NAP1502     0.1813
     29  C4D      -20.9250   62.5150    8.4490 C.3   1502  NAP1502     0.1799
     30  O4D      -21.7060   63.2700    9.4020 O.3   1502  NAP1502    -0.3327
     31  C3D      -21.7670   62.4670    7.1540 C.3   1502  NAP1502     0.2158
     32  O3D      -22.6020   61.2530    7.0860 O.3   1502  NAP1502    -0.2175
     33  C2D      -22.5910   63.7500    7.2760 C.3   1502  NAP1502     0.2309
     34  O2D      -23.7230   63.7900    6.4070 O.3   1502  NAP1502    -0.2158
     35  C1D      -22.9150   63.7490    8.7480 C.3   1502  NAP1502     0.2263
     36  N1N      -23.3120   65.0960    9.1570 N.pl3 1502  NAP1502    -0.2787
     37  C2N      -24.6970   65.2770    9.4690 C.3   1502  NAP1502     0.1244
     38  C3N      -25.1610   66.5770    9.8020 C.2   1502  NAP1502     0.0544
     39  C7N      -26.6730   66.8180   10.1280 C.2   1502  NAP1502     0.2818
     40  O7N      -27.0860   67.9500   10.3990 O.2   1502  NAP1502    -0.2670
     41  N7N      -27.4210   65.7490   10.0730 N.am  1502  NAP1502    -0.0839
     42  C4N      -24.2250   67.6880    9.8180 C.2   1502  NAP1502     0.0033
     43  C5N      -22.8070   67.4990    9.5020 C.2   1502  NAP1502     0.0157
     44  C6N      -22.3700   66.1930    9.1770 C.2   1502  NAP1502     0.0633
     45  P2B      -13.7610   59.9670   15.5710 P.3   1502  NAP1502     0.5328
     46  O1X      -13.4910   61.1450   14.6290 O.2   1502  NAP1502    -0.2224
     47  O2X      -12.7310   59.6660   16.5830 O.3   1502  NAP1502    -0.1145
     48  O3X      -14.2150   58.7670   14.7430 O.3   1502  NAP1502    -0.1145
@<TRIPOS>BOND
     1    34    33    1
     2    32    31    1
     3    31    33    1
     4    31    29    1
     5    33    35    1
     6    28    29    1
     7    28    27    1
     8    29    30    1
     9    35    36    1
    10    35    30    1
    11    25    24    2
    12    36    44    1
    13    36    37    1
    14    44    43    2
    15    37    38    1
    16    43    42    1
    17    27    24    1
    18    38    42    2
    19    38    39    1
    20    24    23    1
    21    24    26    1
    22    41    39   am
    23    39    40    2
    24    23     1    1
    25     3     1    2
    26     1     2    1
    27     1     4    1
    28     4     5    1
    29     5     6    1
    30    46    45    2
    31    48    45    1
    32     8     6    1
    33     8    10    1
    34     8     9    1
    35     6     7    1
    36    45    11    1
    37    45    47    1
    38    10    11    1
    39    10    12    1
    40    14    15    1
    41    14    13    1
    42     7    12    1
    43    15    16    2
    44    12    13    1
    45    13    22    1
    46    16    22    1
    47    16    17    1
    48    22    21    2
    49    18    17    1
    50    17    19    2
    51    21    20    1
    52    19    20    1
