@<TRIPOS>MOLECULE
1uxt_NAD_A_1.pdb
 44 48 0 0 0
SMALL
GASTEIGER

@<TRIPOS>ATOM
      1  PA       -18.7920   60.1510   11.9800 P.3   1503  NAD1503     0.2189
      2  O1A      -20.0980   59.4690   12.1050 O.3   1503  NAD1503    -0.4371
      3  O2A      -17.6300   59.2630   11.8400 O.2   1503  NAD1503    -0.5170
      4  O5B      -18.4740   61.1390   13.1420 O.3   1503  NAD1503    -0.3112
      5  C5B      -18.6230   60.6090   14.3710 C.3   1503  NAD1503     0.1813
      6  C4B      -18.2640   61.5130   15.5120 C.3   1503  NAD1503     0.1821
      7  O4B      -18.5610   60.5150   16.4560 O.3   1503  NAD1503    -0.3135
      8  C3B      -16.7360   61.7100   15.5250 C.3   1503  NAD1503     0.2184
      9  O3B      -16.4720   62.7460   16.5050 O.3   1503  NAD1503    -0.2174
     10  C2B      -16.2510   60.3810   16.0000 C.3   1503  NAD1503     0.2570
     11  O2B      -14.9240   60.4770   16.5490 O.3   1503  NAD1503    -0.2130
     12  C1B      -17.3530   59.9440   17.0010 C.3   1503  NAD1503     0.3186
     13  N9A      -17.5090   58.4930   17.0470 N.pl3 1503  NAD1503    -0.1439
     14  C8A      -17.1600   57.5370   16.1030 C.3   1503  NAD1503     0.3377
     15  N7A      -17.4750   56.2960   16.5500 N.2   1503  NAD1503    -0.2095
     16  C5A      -18.0140   56.4990   17.7580 C.2   1503  NAD1503     0.2526
     17  C6A      -18.5100   55.5500   18.6550 C.2   1503  NAD1503     0.4393
     18  N6A      -18.4940   54.2470   18.3840 N.pl3 1503  NAD1503     0.2180
     19  N1A      -19.0340   55.9870   19.8700 N.2   1503  NAD1503     0.0021
     20  C2A      -19.0610   57.3090   20.1710 C.3   1503  NAD1503     0.5254
     21  N3A      -18.5820   58.2250   19.3060 N.2   1503  NAD1503    -0.0055
     22  C4A      -18.0470   57.8480   18.0820 C.2   1503  NAD1503     0.3518
     23  O3       -18.7860   61.0240   10.6950 O.3   1503  NAD1503    -0.2703
     24  PN       -17.8050   62.0560   10.1050 P.3   1503  NAD1503     0.2189
     25  O1N      -17.2710   61.3660    8.9160 O.2   1503  NAD1503    -0.5170
     26  O2N      -16.7220   62.3890   11.0730 O.3   1503  NAD1503    -0.4371
     27  O5D      -18.7810   63.2510    9.7380 O.3   1503  NAD1503    -0.3112
     28  C5D      -19.4500   63.2250    8.4540 C.3   1503  NAD1503     0.1813
     29  C4D      -20.8280   62.5740    8.5960 C.3   1503  NAD1503     0.1799
     30  O4D      -21.6270   63.3600    9.5220 O.3   1503  NAD1503    -0.3327
     31  C3D      -21.6080   62.5490    7.2690 C.3   1503  NAD1503     0.2158
     32  O3D      -22.4170   61.3400    7.1370 O.3   1503  NAD1503    -0.2175
     33  C2D      -22.4520   63.8240    7.3700 C.3   1503  NAD1503     0.2309
     34  O2D      -23.5640   63.8230    6.4860 O.3   1503  NAD1503    -0.2158
     35  C1D      -22.8100   63.8480    8.8340 C.3   1503  NAD1503     0.2263
     36  N1N      -23.2040   65.1990    9.2350 N.pl3 1503  NAD1503    -0.2787
     37  C2N      -24.5830   65.3840    9.5460 C.3   1503  NAD1503     0.1244
     38  C3N      -25.0400   66.6750    9.8820 C.2   1503  NAD1503     0.0544
     39  C7N      -26.5460   66.9160   10.2130 C.2   1503  NAD1503     0.2818
     40  O7N      -26.9380   68.0350   10.4890 O.2   1503  NAD1503    -0.2670
     41  N7N      -27.3120   65.8510   10.1610 N.am  1503  NAD1503    -0.0839
     42  C4N      -24.1060   67.7830    9.9010 C.2   1503  NAD1503     0.0033
     43  C5N      -22.6900   67.5980    9.5860 C.2   1503  NAD1503     0.0157
     44  C6N      -22.2590   66.2940    9.2560 C.2   1503  NAD1503     0.0633
@<TRIPOS>BOND
     1    34    33    1
     2    32    31    1
     3    31    33    1
     4    31    29    1
     5    33    35    1
     6    28    29    1
     7    28    27    1
     8    29    30    1
     9    35    36    1
    10    35    30    1
    11    25    24    2
    12    36    44    1
    13    36    37    1
    14    44    43    2
    15    37    38    1
    16    43    42    1
    17    27    24    1
    18    38    42    2
    19    38    39    1
    20    24    23    1
    21    24    26    1
    22    41    39   am
    23    39    40    2
    24    23     1    1
    25     3     1    2
    26     1     2    1
    27     1     4    1
    28     4     5    1
    29     5     6    1
    30     6     8    1
    31     6     7    1
    32     8    10    1
    33     8     9    1
    34    10    11    1
    35    10    12    1
    36    14    15    1
    37    14    13    1
    38     7    12    1
    39    15    16    2
    40    12    13    1
    41    13    22    1
    42    16    22    1
    43    16    17    1
    44    22    21    2
    45    18    17    1
    46    17    19    2
    47    21    20    1
    48    19    20    1
