@<TRIPOS>MOLECULE
1uxt_G1P_A_1.pdb
 16 16 0 0 0
SMALL
GASTEIGER

@<TRIPOS>ATOM
      1  C1       -32.7130   77.2650   34.9470 C.3   1502  G1P1502     0.2781
      2  C2       -31.5990   78.1100   34.3450 C.3   1502  G1P1502     0.2410
      3  C3       -31.9810   79.6000   34.3020 C.3   1502  G1P1502     0.2198
      4  C4       -33.2720   79.6270   33.4450 C.3   1502  G1P1502     0.2144
      5  C5       -34.4170   78.8870   34.1250 C.3   1502  G1P1502     0.1835
      6  C6       -35.6570   78.7150   33.2520 C.3   1502  G1P1502     0.2142
      7  O1       -32.3800   77.3770   36.3580 O.3   1502  G1P1502    -0.2416
      8  O2       -30.3890   77.9200   35.1370 O.3   1502  G1P1502    -0.2149
      9  O3       -30.8640   80.2780   33.6680 O.3   1502  G1P1502    -0.2174
     10  O4       -33.5840   81.0080   33.4040 O.3   1502  G1P1502    -0.2176
     11  O5       -34.1000   77.6650   34.7400 O.3   1502  G1P1502    -0.3253
     12  O6       -36.6760   77.9780   33.9590 O.3   1502  G1P1502    -0.2176
     13  P        -33.1350   77.0620   37.7640 P.3   1502  G1P1502     0.5346
     14  O1P      -34.2630   78.0110   38.2110 O.3   1502  G1P1502    -0.1145
     15  O2P      -33.5900   75.4300   37.8010 O.2   1502  G1P1502    -0.2223
     16  O3P      -31.9640   77.2830   38.8900 O.3   1502  G1P1502    -0.1145
@<TRIPOS>BOND
     1     6    12    1
     2     6     5    1
     3    10     4    1
     4     4     5    1
     5     4     3    1
     6     9     3    1
     7     5    11    1
     8     3     2    1
     9     2     1    1
    10     2     8    1
    11    11     1    1
    12     1     7    1
    13     7    13    1
    14    13    15    2
    15    13    14    1
    16    13    16    1
