@<TRIPOS>MOLECULE
1uxu_AMP_A_1.pdb
 23 25 0 0 0
SMALL
GASTEIGER

@<TRIPOS>ATOM
      1  P        -33.0160   77.1620   37.7160 P.3   503  AMP503      0.5327
      2  O1P      -31.8590   77.2420   38.6630 O.3   503  AMP503     -0.1145
      3  O2P      -34.1400   78.0860   37.8710 O.3   503  AMP503     -0.1145
      4  O3P      -33.5350   75.6520   37.6460 O.2   503  AMP503     -0.2224
      5  O5'      -32.3150   77.4460   36.3160 O.3   503  AMP503     -0.2675
      6  C5'      -33.0830   77.3620   35.1620 C.3   503  AMP503      0.1860
      7  C4'      -32.2600   77.9610   34.0450 C.3   503  AMP503      0.1823
      8  O4'      -33.1770   77.7210   32.9450 O.3   503  AMP503     -0.3135
      9  C3'      -32.1280   79.6130   34.2380 C.3   503  AMP503      0.2184
     10  O3'      -30.8710   79.9860   33.5230 O.3   503  AMP503     -0.2174
     11  C2'      -33.4700   80.0500   33.5070 C.3   503  AMP503      0.2570
     12  O2'      -33.4360   81.2680   32.8600 O.3   503  AMP503     -0.2130
     13  C1'      -33.7300   78.9060   32.4160 C.3   503  AMP503      0.3186
     14  N9       -35.1480   78.6090   32.2570 N.pl3 503  AMP503     -0.1439
     15  C8       -36.1530   78.6910   33.2190 C.3   503  AMP503      0.3377
     16  N7       -37.3950   78.3620   32.8380 N.2   503  AMP503     -0.2095
     17  C5       -37.1300   78.0450   31.5080 C.2   503  AMP503      0.2526
     18  C6       -38.0000   77.6100   30.4870 C.2   503  AMP503      0.4393
     19  N6       -39.3370   77.4620   30.7940 N.pl3 503  AMP503      0.2180
     20  N1       -37.4060   77.3690   29.2240 N.2   503  AMP503      0.0021
     21  C2       -36.0730   77.5400   28.9860 C.3   503  AMP503      0.5254
     22  N3       -35.1700   77.9590   29.9170 N.2   503  AMP503     -0.0055
     23  C4       -35.7630   78.1890   31.1370 C.2   503  AMP503      0.3518
@<TRIPOS>BOND
     1    21    20    1
     2    21    22    1
     3    20    18    2
     4    22    23    2
     5    18    19    1
     6    18    17    1
     7    23    17    1
     8    23    14    1
     9    17    16    2
    10    14    13    1
    11    14    15    1
    12    13     8    1
    13    13    11    1
    14    16    15    1
    15    12    11    1
    16     8     7    1
    17    11     9    1
    18    10     9    1
    19     7     9    1
    20     7     6    1
    21     6     5    1
    22     5     1    1
    23     4     1    2
    24     1     3    1
    25     1     2    1
