@<TRIPOS>MOLECULE
1uxu_G3H_A_1.pdb
 10 9 0 0 0
SMALL
GASTEIGER

@<TRIPOS>ATOM
      1  O1       -22.9430   68.7370    8.0330 O.2   504  G3H504     -0.2854
      2  C1       -23.0530   69.7640    7.3750 C.2   504  G3H504      0.2426
      3  C2       -23.4950   71.0860    8.0170 C.3   504  G3H504      0.2459
      4  O2       -24.8630   70.9320    8.4660 O.3   504  G3H504     -0.2119
      5  C3       -23.2930   72.1460    6.9610 C.3   504  G3H504      0.1946
      6  O1P      -24.2490   73.1790    6.8540 O.3   504  G3H504     -0.2670
      7  O2P      -22.9730   74.1460    4.9400 O.2   504  G3H504     -0.2224
      8  O3P      -24.1460   75.6210    6.5930 O.3   504  G3H504     -0.1145
      9  O4P      -25.4420   74.2420    4.9410 O.3   504  G3H504     -0.1145
     10  P        -24.1930   74.3840    5.7610 P.3   504  G3H504      0.5327
@<TRIPOS>BOND
     1     7    10    2
     2     9    10    1
     3    10     8    1
     4    10     6    1
     5     6     5    1
     6     5     3    1
     7     2     3    1
     8     2     1    2
     9     3     4    1
