@<TRIPOS>MOLECULE
1uxu_NAP_A_1.pdb
 39 42 0 0 0
SMALL
GASTEIGER

@<TRIPOS>ATOM
      1  PA       -18.6580   59.9020   11.7030 P.3   502  NAP502      0.2189
      2  O1A      -19.9220   59.1570   11.8770 O.3   502  NAP502     -0.4371
      3  O2A      -17.4320   59.0940   11.5330 O.2   502  NAP502     -0.5170
      4  O5B      -18.3550   60.8950   12.8750 O.3   502  NAP502     -0.3112
      5  C5B      -18.5160   60.3540   14.1290 C.3   502  NAP502      0.1813
      6  C4B      -18.1430   61.2570   15.2710 C.3   502  NAP502      0.1820
      7  O4B      -18.4530   60.3050   16.2750 O.3   502  NAP502     -0.3136
      8  C3B      -16.6280   61.4200   15.2670 C.3   502  NAP502      0.2157
      9  O3B      -16.3050   62.5140   16.1440 O.3   502  NAP502     -0.2175
     10  C2B      -16.1720   60.1160   15.8220 C.3   502  NAP502      0.2314
     11  O2B      -14.8280   60.2010   16.3390 O.3   502  NAP502     -0.2630
     12  C1B      -17.2650   59.7570   16.8590 C.3   502  NAP502      0.3158
     13  N9A      -17.4290   58.3170   16.9860 N.pl3 502  NAP502     -0.1439
     14  C8A      -17.0580   57.3210   16.1010 C.3   502  NAP502      0.3377
     15  N7A      -17.3820   56.1050   16.5980 N.2   502  NAP502     -0.2095
     16  C5A      -17.9460   56.3620   17.7660 C.2   502  NAP502      0.2526
     17  C6A      -18.4500   55.4520   18.6780 C.2   502  NAP502      0.4393
     18  N6A      -18.4100   54.1490   18.4500 N.pl3 502  NAP502      0.2180
     19  N1A      -19.0130   55.9340   19.8650 N.2   502  NAP502      0.0021
     20  C2A      -19.0580   57.2720   20.1060 C.3   502  NAP502      0.5254
     21  N3A      -18.5600   58.1510   19.2140 N.2   502  NAP502     -0.0055
     22  C4A      -17.9930   57.7230   18.0300 C.2   502  NAP502      0.3518
     23  O3       -18.7700   60.7960   10.3800 O.3   502  NAP502     -0.2703
     24  PN       -17.8510   61.8550    9.7050 P.3   502  NAP502      0.2189
     25  O1N      -17.3980   61.2300    8.4570 O.2   502  NAP502     -0.5170
     26  O2N      -16.6800   62.1710   10.5840 O.3   502  NAP502     -0.4371
     27  O5D      -18.8360   63.1090    9.3610 O.3   502  NAP502     -0.3112
     28  C5D      -20.1750   63.2350    9.8950 C.3   502  NAP502      0.1812
     29  C4D      -21.2880   62.7360    8.9540 C.3   502  NAP502      0.1780
     30  O4D      -22.4470   63.5960    9.0380 O.3   502  NAP502     -0.3482
     31  C3D      -20.9440   62.7050    7.4640 C.3   502  NAP502      0.2140
     32  O3D      -20.2300   61.4650    7.1550 O.3   502  NAP502     -0.2176
     33  C2D      -22.3360   62.7550    6.7870 C.3   502  NAP502      0.2140
     34  O2D      -22.8880   61.4340    6.6200 O.3   502  NAP502     -0.2176
     35  C1D      -23.1330   63.6230    7.7320 C.3   502  NAP502      0.1777
     36  P2B      -13.4720   59.7760   15.4930 P.3   502  NAP502      0.5328
     37  O1X      -13.8070   58.3870   14.8890 O.3   502  NAP502     -0.1145
     38  O2X      -13.2290   60.8820   14.5230 O.2   502  NAP502     -0.2224
     39  O3X      -12.3950   59.6050   16.5540 O.3   502  NAP502     -0.1145
@<TRIPOS>BOND
     1    34    33    1
     2    33    31    1
     3    33    35    1
     4    32    31    1
     5    31    29    1
     6    35    30    1
     7    25    24    2
     8    29    30    1
     9    29    28    1
    10    27    24    1
    11    27    28    1
    12    24    23    1
    13    24    26    1
    14    23     1    1
    15     3     1    2
    16     1     2    1
    17     1     4    1
    18     4     5    1
    19     5     6    1
    20    38    36    2
    21    37    36    1
    22     8     6    1
    23     8    10    1
    24     8     9    1
    25     6     7    1
    26    36    11    1
    27    36    39    1
    28    10    11    1
    29    10    12    1
    30    14    15    1
    31    14    13    1
    32     7    12    1
    33    15    16    2
    34    12    13    1
    35    13    22    1
    36    16    22    1
    37    16    17    1
    38    22    21    2
    39    18    17    1
    40    17    19    2
    41    21    20    1
    42    19    20    1
