@<TRIPOS>MOLECULE
1uxv_NAP_A_1.pdb
 48 52 0 0 0
SMALL
GASTEIGER

@<TRIPOS>ATOM
      1  PA       -18.8170   60.0310   11.8060 P.3   1502  NAP1502     0.2189
      2  O1A      -20.0540   59.2590   11.9590 O.3   1502  NAP1502    -0.4371
      3  O2A      -17.6710   59.0870   11.7760 O.2   1502  NAP1502    -0.5170
      4  O5B      -18.5120   61.0500   12.9500 O.3   1502  NAP1502    -0.3112
      5  C5B      -18.6570   60.4930   14.1940 C.3   1502  NAP1502     0.1813
      6  C4B      -18.2830   61.3660   15.3530 C.3   1502  NAP1502     0.1820
      7  O4B      -18.5940   60.3730   16.3250 O.3   1502  NAP1502    -0.3136
      8  C3B      -16.7640   61.5140   15.3480 C.3   1502  NAP1502     0.2157
      9  O3B      -16.4090   62.5670   16.2540 O.3   1502  NAP1502    -0.2175
     10  C2B      -16.3210   60.1910   15.8520 C.3   1502  NAP1502     0.2314
     11  O2B      -14.9900   60.2460   16.3650 O.3   1502  NAP1502    -0.2630
     12  C1B      -17.4010   59.7960   16.8790 C.3   1502  NAP1502     0.3158
     13  N9A      -17.5560   58.3470   16.9560 N.pl3 1502  NAP1502    -0.1439
     14  C8A      -17.2430   57.3730   16.0120 C.3   1502  NAP1502     0.3377
     15  N7A      -17.5340   56.1460   16.4880 N.2   1502  NAP1502    -0.2095
     16  C5A      -18.0200   56.3700   17.7070 C.2   1502  NAP1502     0.2526
     17  C6A      -18.4680   55.4390   18.6340 C.2   1502  NAP1502     0.4393
     18  N6A      -18.4550   54.1370   18.3820 N.pl3 1502  NAP1502     0.2180
     19  N1A      -18.9420   55.8980   19.8650 N.2   1502  NAP1502     0.0021
     20  C2A      -18.9640   57.2260   20.1420 C.3   1502  NAP1502     0.5254
     21  N3A      -18.5270   58.1250   19.2400 N.2   1502  NAP1502    -0.0055
     22  C4A      -18.0450   57.7260   18.0110 C.2   1502  NAP1502     0.3518
     23  O3       -18.7910   60.8120   10.3940 O.3   1502  NAP1502    -0.2703
     24  PN       -17.8100   61.8390    9.7730 P.3   1502  NAP1502     0.2189
     25  O1N      -17.1490   61.0620    8.7010 O.2   1502  NAP1502    -0.5170
     26  O2N      -16.8100   62.2850   10.7860 O.3   1502  NAP1502    -0.4371
     27  O5D      -18.6560   62.9820    9.0330 O.3   1502  NAP1502    -0.3112
     28  C5D      -19.8840   63.4500    9.4800 C.3   1502  NAP1502     0.1813
     29  C4D      -21.0440   62.5870    9.0150 C.3   1502  NAP1502     0.1799
     30  O4D      -22.1660   63.1630    9.6520 O.3   1502  NAP1502    -0.3327
     31  C3D      -21.3840   62.6090    7.4920 C.3   1502  NAP1502     0.2158
     32  O3D      -22.0210   61.3430    7.0900 O.3   1502  NAP1502    -0.2175
     33  C2D      -22.3770   63.7630    7.3510 C.3   1502  NAP1502     0.2309
     34  O2D      -23.3080   63.5580    6.2800 O.3   1502  NAP1502    -0.2158
     35  C1D      -23.0360   63.7800    8.6880 C.3   1502  NAP1502     0.2263
     36  N1N      -23.3890   65.1130    9.0820 N.pl3 1502  NAP1502    -0.2787
     37  C2N      -24.7500   65.2810    9.4070 C.3   1502  NAP1502     0.1244
     38  C3N      -25.2050   66.5470    9.7660 C.2   1502  NAP1502     0.0544
     39  C7N      -26.6990   66.7470   10.1000 C.2   1502  NAP1502     0.2818
     40  O7N      -27.1090   67.8550   10.3990 O.2   1502  NAP1502    -0.2670
     41  N7N      -27.4370   65.6600   10.0260 N.am  1502  NAP1502    -0.0839
     42  C4N      -24.2720   67.6730    9.8060 C.2   1502  NAP1502     0.0033
     43  C5N      -22.8630   67.5030    9.4740 C.2   1502  NAP1502     0.0157
     44  C6N      -22.4360   66.2030    9.1100 C.2   1502  NAP1502     0.0633
     45  P2B      -13.6710   59.7400   15.5490 P.3   1502  NAP1502     0.5328
     46  O1X      -14.0740   58.3910   14.9420 O.3   1502  NAP1502    -0.1145
     47  O2X      -13.3570   60.8190   14.5930 O.2   1502  NAP1502    -0.2224
     48  O3X      -12.6490   59.5210   16.6420 O.3   1502  NAP1502    -0.1145
@<TRIPOS>BOND
     1    34    33    1
     2    32    31    1
     3    33    31    1
     4    33    35    1
     5    31    29    1
     6    35    36    1
     7    35    30    1
     8    25    24    2
     9    29    28    1
    10    29    30    1
    11    27    28    1
    12    27    24    1
    13    36    44    1
    14    36    37    1
    15    44    43    2
    16    37    38    1
    17    43    42    1
    18    38    42    2
    19    38    39    1
    20    24    23    1
    21    24    26    1
    22    41    39   am
    23    39    40    2
    24    23     1    1
    25     3     1    2
    26     1     2    1
    27     1     4    1
    28     4     5    1
    29     5     6    1
    30    47    45    2
    31    46    45    1
    32     8     6    1
    33     8    10    1
    34     8     9    1
    35     6     7    1
    36    45    11    1
    37    45    48    1
    38    10    11    1
    39    10    12    1
    40    14    15    1
    41    14    13    1
    42     7    12    1
    43    15    16    2
    44    12    13    1
    45    13    22    1
    46    16    22    1
    47    16    17    1
    48    22    21    2
    49    18    17    1
    50    17    19    2
    51    21    20    1
    52    19    20    1
