@<TRIPOS>MOLECULE
1uxv_AMP_A_1.pdb
 23 25 0 0 0
SMALL
GASTEIGER

@<TRIPOS>ATOM
      1  P        -33.1670   77.1460   38.4850 P.3   1503  AMP1503     0.5327
      2  O1P      -32.1640   77.3500   39.5080 O.3   1503  AMP1503    -0.1145
      3  O2P      -34.1930   78.2010   38.4420 O.2   1503  AMP1503    -0.2224
      4  O3P      -33.8040   75.7120   38.6060 O.3   1503  AMP1503    -0.1145
      5  O5'      -32.3610   77.1560   37.1400 O.3   1503  AMP1503    -0.2675
      6  C5'      -33.0900   76.9080   35.9660 C.3   1503  AMP1503     0.1860
      7  C4'      -32.2450   77.5190   34.9150 C.3   1503  AMP1503     0.1823
      8  O4'      -33.0070   77.2460   33.7080 O.3   1503  AMP1503    -0.3135
      9  C3'      -32.1250   79.1780   35.1510 C.3   1503  AMP1503     0.2184
     10  O3'      -30.7620   79.6400   34.6660 O.3   1503  AMP1503    -0.2174
     11  C2'      -33.3540   79.6020   34.2670 C.3   1503  AMP1503     0.2570
     12  O2'      -33.3260   80.9090   33.6740 O.3   1503  AMP1503    -0.2130
     13  C1'      -33.3940   78.4540   33.1250 C.3   1503  AMP1503     0.3186
     14  N9       -34.7420   78.3430   32.5540 N.pl3 1503  AMP1503    -0.1439
     15  C8       -35.9560   78.7610   33.1070 C.3   1503  AMP1503     0.3377
     16  N7       -37.0550   78.5850   32.3750 N.2   1503  AMP1503    -0.2095
     17  C5       -36.4730   78.0090   31.2650 C.2   1503  AMP1503     0.2526
     18  C6       -37.0580   77.5810   30.0790 C.2   1503  AMP1503     0.4393
     19  N6       -38.4390   77.7380   29.9460 N.pl3 1503  AMP1503     0.2180
     20  N1       -36.1830   77.0350   29.1310 N.2   1503  AMP1503     0.0021
     21  C2       -34.8550   76.9170   29.3410 C.3   1503  AMP1503     0.5254
     22  N3       -34.2050   77.3090   30.4630 N.2   1503  AMP1503    -0.0055
     23  C4       -35.0650   77.8380   31.3630 C.2   1503  AMP1503     0.3518
@<TRIPOS>BOND
     1    20    21    1
     2    20    18    2
     3    21    22    1
     4    19    18    1
     5    18    17    1
     6    22    23    2
     7    17    23    1
     8    17    16    2
     9    23    14    1
    10    16    15    1
    11    14    15    1
    12    14    13    1
    13    13     8    1
    14    13    11    1
    15    12    11    1
    16     8     7    1
    17    11     9    1
    18    10     9    1
    19     7     9    1
    20     7     6    1
    21     6     5    1
    22     5     1    1
    23     3     1    2
    24     1     4    1
    25     1     2    1
