@<TRIPOS>MOLECULE
1uxx_XYP_X_1.pdb
 10 10 0 0 0
SMALL
GASTEIGER

@<TRIPOS>ATOM
      1  O4A       -5.9590   12.5310   14.4320 O.3   1131  XYP1131    -0.1869
      2  C1B       -5.3350   12.8630   15.6500 C.3   1131  XYP1131     0.3024
      3  C2B       -4.9520   11.6410   16.4340 C.3   1131  XYP1131     0.2434
      4  C3B       -4.3730   12.0860   17.7640 C.3   1131  XYP1131     0.2199
      5  C4B       -3.2360   13.0680   17.5250 C.3   1131  XYP1131     0.2143
      6  C5B       -3.7210   14.1700   16.5980 C.3   1131  XYP1131     0.1804
      7  O2B       -6.0780   10.8370   16.7080 O.3   1131  XYP1131    -0.2148
      8  O3B       -3.9250   10.9640   18.4860 O.3   1131  XYP1131    -0.2174
      9  O4B       -2.8620   13.6210   18.7720 O.3   1131  XYP1131    -0.2176
     10  O5B       -4.2160   13.5820   15.4050 O.3   1131  XYP1131    -0.3237
@<TRIPOS>BOND
     1     1     2    1
     2    10     2    1
     3    10     6    1
     4     2     3    1
     5     3     7    1
     6     3     4    1
     7     6     5    1
     8     5     4    1
     9     5     9    1
    10     4     8    1
