@<TRIPOS>MOLECULE
1uxy_EPU_A_1.pdb
 44 46 0 0 0
SMALL
GASTEIGER

@<TRIPOS>ATOM
      1  N1U       16.2120   22.4760   13.7640 N.am  402  EPU402     -0.1766
      2  C2U       17.5930   22.4450   13.7440 C.1   402  EPU402      0.2845
      3  N3U       18.1550   21.2410   13.5830 N.2   402  EPU402     -0.2452
      4  C4U       17.4800   20.0880   13.4480 C.1   402  EPU402      0.2182
      5  C5U       15.9980   20.0940   13.5170 C.2   402  EPU402      0.1242
      6  C6U       15.3690   21.2770   13.6650 C.2   402  EPU402      0.0929
      7  O2U       18.2440   23.4640   13.8620 O.2   402  EPU402     -0.1918
      8  O4U       18.0410   19.0200   13.2560 O.2   402  EPU402     -0.2085
      9  C1D       15.5660   23.7680   13.9040 C.3   402  EPU402      0.2401
     10  C2D       14.9710   24.3190   12.6080 C.3   402  EPU402      0.2319
     11  O2D       15.8320   24.8070   11.6630 O.3   402  EPU402     -0.2157
     12  C3D       13.9770   25.2450   13.1490 C.3   402  EPU402      0.2158
     13  C4D       13.5180   24.5810   14.4400 C.3   402  EPU402      0.1799
     14  O4D       14.4730   23.6070   14.7550 O.3   402  EPU402     -0.3320
     15  O3D       14.4700   26.5830   13.1460 O.3   402  EPU402     -0.2175
     16  C5D       12.1490   23.8840   14.1000 C.3   402  EPU402      0.1813
     17  O5D       12.3870   22.9190   13.0080 O.3   402  EPU402     -0.3112
     18  PA        11.1270   22.2350   12.4080 P.3   402  EPU402      0.2189
     19  O1A       10.6210   23.3790   11.5700 O.3   402  EPU402     -0.4371
     20  O2A       11.7600   21.1870   11.5360 O.2   402  EPU402     -0.5170
     21  O3A        9.9700   21.6480   13.1900 O.3   402  EPU402     -0.2703
     22  PB        10.2390   20.8220   14.5030 P.3   402  EPU402      0.2208
     23  O1B        9.7550   21.5850   15.7190 O.3   402  EPU402     -0.4371
     24  O2B       11.6670   20.3330   14.6220 O.2   402  EPU402     -0.5170
     25  C1         7.9870   19.8000   14.4190 C.3   402  EPU402      0.2644
     26  C2         7.2160   18.4900   14.5370 C.3   402  EPU402      0.1940
     27  C3         7.1880   17.6990   13.2540 C.3   402  EPU402      0.2235
     28  C4         6.5300   18.7430   12.2600 C.3   402  EPU402      0.2230
     29  C5         7.3260   20.0520   12.1350 C.3   402  EPU402      0.1845
     30  C6         6.6360   21.1010   11.2520 C.3   402  EPU402      0.2142
     31  C7         7.0700   18.2710   17.1010 C.2   402  EPU402      0.2421
     32  C8         7.8370   17.2820   18.0270 C.3   402  EPU402      0.0964
     33  N2         7.4450   18.0690   15.8840 N.am  402  EPU402     -0.1981
     34  O1         9.3410   19.6300   14.1980 O.3   402  EPU402     -0.2864
     35  O3         6.4300   16.6170   13.6330 O.2   402  EPU402     -0.4682
     36  O4         6.3970   18.1700   10.9920 O.3   402  EPU402     -0.2165
     37  O5         7.3640   20.5960   13.4440 O.3   402  EPU402     -0.3259
     38  O6         5.4180   21.5780   11.7230 O.3   402  EPU402     -0.2176
     39  O7         6.3060   19.0390   17.4930 O.2   402  EPU402     -0.2733
     40  C1E        6.3340   14.3740   14.2960 C.2   402  EPU402      0.4211
     41  O1E        6.6250   13.1460   14.1460 O.co2 402  EPU402     -0.2371
     42  O2E        5.5490   14.7500   15.2330 O.co2 402  EPU402     -0.2371
     43  C2E        6.9060   15.3820   13.3580 C.2   402  EPU402      0.2182
     44  C3E        7.7640   15.0830   12.3590 C.2   402  EPU402      0.0471
@<TRIPOS>BOND
     1    36    28    1
     2    30    38    1
     3    30    29    1
     4    20    18    2
     5    19    18    1
     6    11    10    1
     7    29    28    1
     8    29    37    1
     9    28    27    1
    10    44    43    2
    11    18    17    1
    12    18    21    1
    13    10    12    1
    14    10     9    1
    15    17    16    1
    16    15    12    1
    17    12    13    1
    18    21    22    1
    19    27    35    1
    20    27    26    1
    21     8     4    2
    22    43    35    1
    23    43    40    1
    24    37    25    1
    25     4     5    1
    26     4     3    2
    27     5     6    2
    28     3     2    2
    29     6     1    1
    30     2     1   am
    31     2     7    2
    32     1     9    1
    33     9    14    1
    34    16    13    1
    35    41    40   ar
    36    34    25    1
    37    34    22    1
    38    40    42   ar
    39    25    26    1
    40    13    14    1
    41    22    24    2
    42    22    23    1
    43    26    33    1
    44    33    31   am
    45    31    39    2
    46    31    32    1
