@<TRIPOS>MOLECULE
1uy0_BGC_A_1.pdb
 11 11 0 0 0
SMALL
GASTEIGER

@<TRIPOS>ATOM
      1  C2        19.4280  -13.6400   34.0980 C.3   1134  BGC1134     0.2141
      2  C3        20.6190  -13.5890   35.0590 C.3   1134  BGC1134     0.2173
      3  C4        21.7090  -12.6730   34.5040 C.3   1134  BGC1134     0.2142
      4  C5        21.1000  -11.3060   34.1990 C.3   1134  BGC1134     0.1810
      5  C6        22.0750  -10.2290   33.7050 C.3   1134  BGC1134     0.2141
      6  C1        18.9890  -12.2420   33.6780 C.3   1134  BGC1134     0.1777
      7  O2        18.3210  -14.2810   34.7030 O.3   1134  BGC1134    -0.2176
      8  O3        21.1310  -14.8840   35.2970 O.3   1134  BGC1134    -0.2175
      9  O4        22.7630  -12.5830   35.4500 O.3   1134  BGC1134    -0.2176
     10  O5        20.0840  -11.4630   33.2140 O.3   1134  BGC1134    -0.3481
     11  O6        22.7680  -10.6610   32.5790 O.3   1134  BGC1134    -0.2176
@<TRIPOS>BOND
     1    11     5    1
     2    10     6    1
     3    10     4    1
     4     6     1    1
     5     5     4    1
     6     1     7    1
     7     1     2    1
     8     4     3    1
     9     3     2    1
    10     3     9    1
    11     2     8    1
