@<TRIPOS>MOLECULE
1uy2_XYP_A_1.pdb
 10 10 0 0 0
SMALL
GASTEIGER

@<TRIPOS>ATOM
      1  O4A       19.9770    9.0260   20.8940 O.3   1147  XYP1147    -0.1869
      2  C1B       19.1430    9.5560   19.9160 C.3   1147  XYP1147     0.3024
      3  C2B       19.1630    8.6670   18.6690 C.3   1147  XYP1147     0.2434
      4  C3B       18.2070    9.2810   17.6760 C.3   1147  XYP1147     0.2199
      5  C4B       16.8290    9.5480   18.2800 C.3   1147  XYP1147     0.2143
      6  C5B       17.0060   10.3390   19.5450 C.3   1147  XYP1147     0.1804
      7  O2B       20.4840    8.6530   18.1080 O.3   1147  XYP1147    -0.2148
      8  O3B       18.0460    8.5300   16.4760 O.3   1147  XYP1147    -0.2174
      9  O4B       16.0450   10.3280   17.3910 O.3   1147  XYP1147    -0.2176
     10  O5B       17.8810    9.6470   20.4250 O.3   1147  XYP1147    -0.3237
@<TRIPOS>BOND
     1     8     4    1
     2     9     5    1
     3     4     5    1
     4     4     3    1
     5     7     3    1
     6     5     6    1
     7     3     2    1
     8     6    10    1
     9     2    10    1
    10     2     1    1
