@<TRIPOS>MOLECULE
1uy3_XYP_A_1.pdb
 10 10 0 0 0
SMALL
GASTEIGER

@<TRIPOS>ATOM
      1  O4A       19.9350    8.8770   20.8700 O.3   1148  XYP1148    -0.1869
      2  C1B       19.0480    9.3320   19.8620 C.3   1148  XYP1148     0.3024
      3  C2B       19.0310    8.4900   18.5850 C.3   1148  XYP1148     0.2434
      4  C3B       18.0370    9.0970   17.6140 C.3   1148  XYP1148     0.2199
      5  C4B       16.6620    9.2960   18.2500 C.3   1148  XYP1148     0.2143
      6  C5B       16.8340   10.0150   19.5600 C.3   1148  XYP1148     0.1804
      7  O2B       20.3010    8.4510   17.9670 O.3   1148  XYP1148    -0.2148
      8  O3B       17.8750    8.3290   16.4350 O.3   1148  XYP1148    -0.2174
      9  O4B       15.8220   10.0540   17.3790 O.3   1148  XYP1148    -0.2176
     10  O5B       17.7800    9.3470   20.3840 O.3   1148  XYP1148    -0.3237
@<TRIPOS>BOND
     1     8     4    1
     2     9     5    1
     3     4     5    1
     4     4     3    1
     5     7     3    1
     6     5     6    1
     7     3     2    1
     8     6    10    1
     9     2    10    1
    10     2     1    1
