@<TRIPOS>MOLECULE
1uy4_XYP_A_1.pdb
 10 10 0 0 0
SMALL
GASTEIGER

@<TRIPOS>ATOM
      1  O4A       23.5420   10.5080   24.3230 O.3   1148  XYP1148    -0.1869
      2  C1B       22.8050    9.7600   23.3790 C.3   1148  XYP1148     0.3024
      3  C2B       21.4760    9.4380   24.0360 C.3   1148  XYP1148     0.2434
      4  C3B       20.5830    8.7120   23.0530 C.3   1148  XYP1148     0.2199
      5  C4B       20.5510    9.4960   21.7450 C.3   1148  XYP1148     0.2143
      6  C5B       21.9510    9.7330   21.2610 C.3   1148  XYP1148     0.1804
      7  O2B       21.6180    8.5590   25.1360 O.3   1148  XYP1148    -0.2148
      8  O3B       19.2750    8.5840   23.6030 O.3   1148  XYP1148    -0.2174
      9  O4B       19.8820    8.6750   20.8610 O.3   1148  XYP1148    -0.2176
     10  O5B       22.6810   10.4790   22.1980 O.3   1148  XYP1148    -0.3237
@<TRIPOS>BOND
     1     9     5    1
     2     6     5    1
     3     6    10    1
     4     5     4    1
     5    10     2    1
     6     4     8    1
     7     4     3    1
     8     2     3    1
     9     2     1    1
    10     3     7    1
