@<TRIPOS>MOLECULE
1uy6_PU3_A_1.pdb
 27 29 0 0 0
SMALL
GASTEIGER

@<TRIPOS>ATOM
      1  C19        8.2560   10.1870   23.0600 C.3   1224  PU31224     0.2526
      2  O3         8.0950   11.3890   23.8530 O.3   1224  PU31224    -0.4683
      3  C5         6.8220   11.8930   24.0150 C.ar  1224  PU31224     0.1751
      4  C6         5.6590   11.2860   23.4960 C.ar  1224  PU31224     0.0365
      5  C4         6.6540   13.0700   24.8410 C.ar  1224  PU31224     0.2060
      6  O1         7.7140   13.7150   25.3760 O.3   1224  PU31224    -0.4654
      7  C7         8.0410   15.0020   24.8170 C.3   1224  PU31224     0.2528
      8  C3         5.3100   13.5540   25.1120 C.ar  1224  PU31224     0.1751
      9  O2         5.2900   14.7170   25.8570 O.3   1224  PU31224    -0.4683
     10  C8         4.1560   15.5370   25.9070 C.3   1224  PU31224     0.2526
     11  C2         4.1860   12.8870   24.5880 C.ar  1224  PU31224     0.0365
     12  C1         4.3830   11.7460   23.7770 C.ar  1224  PU31224    -0.0052
     13  C9         3.2090   11.0270   23.1370 C.3   1224  PU31224     0.1289
     14  C10        1.9940   10.7670   23.9920 C.2   1224  PU31224     0.2558
     15  N1         0.8030   11.3050   23.7050 N.2   1224  PU31224    -0.3535
     16  C11        0.0520   10.9000   24.7540 C.2   1224  PU31224     0.3063
     17  C13       -1.3510   11.0400   25.1150 C.2   1224  PU31224     0.4517
     18  N5        -2.1950   11.7260   24.3210 N.pl3 1224  PU31224     0.2193
     19  C12        0.8580   10.0890   25.6590 C.2   1224  PU31224     0.3669
     20  N4         0.3420    9.5640   26.7850 N.2   1224  PU31224    -0.0040
     21  C14       -0.9570    9.7930   27.0860 C.3   1224  PU31224     0.5255
     22  N3        -1.7780   10.5150   26.2810 N.2   1224  PU31224     0.0030
     23  N2         2.0680   10.0630   25.1400 N.pl3 1224  PU31224    -0.1457
     24  C15        3.1820    9.3050   25.7100 C.3   1224  PU31224     0.2097
     25  C16        2.9290    7.8460   25.3350 C.3   1224  PU31224     0.0513
     26  C17        4.0350    7.2060   24.5160 C.3   1224  PU31224     0.0043
     27  C18        4.0540    5.7230   24.9060 C.3   1224  PU31224     0.0001
@<TRIPOS>BOND
     1     1     2    1
     2    13    12    1
     3    13    14    1
     4     4    12   ar
     5     4     3   ar
     6    15    14    2
     7    15    16    2
     8    12    11   ar
     9     2     3    1
    10    14    23    1
    11     3     5   ar
    12    18    17    1
    13    26    27    1
    14    26    25    1
    15    11     8   ar
    16    16    17    1
    17    16    19    1
    18     7     6    1
    19     5     8   ar
    20     5     6    1
    21     8     9    1
    22    17    22    2
    23    23    19    1
    24    23    24    1
    25    25    24    1
    26    19    20    2
    27     9    10    1
    28    22    21    1
    29    20    21    1
