@<TRIPOS>MOLECULE
1uy7_PU4_A_1.pdb
 23 25 0 0 0
SMALL
GASTEIGER

@<TRIPOS>ATOM
      1  C18        5.1810    7.0090   24.3200 C.3   1224  PU41224     0.0001
      2  C17        3.6330    6.9890   24.4800 C.3   1224  PU41224     0.0043
      3  C16        3.0520    7.5180   25.5700 C.3   1224  PU41224     0.0513
      4  C15        3.1690    9.0230   25.7360 C.3   1224  PU41224     0.2097
      5  N2         2.0420    9.7150   25.1430 N.pl3 1224  PU41224    -0.1457
      6  C12        0.8050    9.8270   25.5980 C.2   1224  PU41224     0.3669
      7  N4         0.4000    9.2940   26.8260 N.2   1224  PU41224    -0.0040
      8  C14       -0.9950    9.5150   27.1870 C.3   1224  PU41224     0.5255
      9  N3        -1.7470   10.3070   26.2660 N.2   1224  PU41224     0.0030
     10  C11       -0.0790   10.5990   24.6950 C.2   1224  PU41224     0.3063
     11  C13       -1.4200   10.8510   25.0730 C.2   1224  PU41224     0.4517
     12  N5        -2.2100   11.5750   24.2490 N.pl3 1224  PU41224     0.2193
     13  N1         0.7480   11.0000   23.6890 N.2   1224  PU41224    -0.3535
     14  C10        1.8890   10.3900   23.9990 C.2   1224  PU41224     0.2558
     15  C9         3.2300   10.4940   23.2750 C.3   1224  PU41224     0.1287
     16  C1         4.1800   11.5770   23.7590 C.ar  1224  PU41224    -0.0112
     17  C6         5.5650   11.4710   23.8400 C.ar  1224  PU41224    -0.0006
     18  C5         6.3300   12.5480   24.2910 C.ar  1224  PU41224     0.0366
     19  C2         3.4640   12.7390   24.1450 C.ar  1224  PU41224    -0.0006
     20  C3         4.2570   13.8070   24.6100 C.ar  1224  PU41224     0.0366
     21  C4         5.6590   13.7180   24.6760 C.ar  1224  PU41224     0.1387
     22  O1         6.4180   14.7770   25.1570 O.3   1224  PU41224    -0.4714
     23  C7         5.8370   15.8210   25.9330 C.3   1224  PU41224     0.2525
@<TRIPOS>BOND
     1    15    16    1
     2    15    14    1
     3    13    14    2
     4    13    10    2
     5    16    17   ar
     6    16    19   ar
     7    17    18   ar
     8    14     5    1
     9    19    20   ar
    10    12    11    1
    11    18    21   ar
    12     1     2    1
    13     2     3    1
    14    20    21   ar
    15    21    22    1
    16    10    11    1
    17    10     6    1
    18    11     9    2
    19     5     6    1
    20     5     4    1
    21    22    23    1
    22     3     4    1
    23     6     7    2
    24     9     8    1
    25     7     8    1
