@<TRIPOS>MOLECULE
1uy8_PU5_A_1.pdb
 23 25 0 0 0
SMALL
GASTEIGER

@<TRIPOS>ATOM
      1  C18        5.0660    7.3220   23.7970 C.3   1224  PU51224     0.0001
      2  C17        3.6040    7.4470   24.2530 C.3   1224  PU51224     0.0043
      3  C16        3.2740    7.8790   25.4860 C.3   1224  PU51224     0.0513
      4  C15        3.2960    9.3810   25.7620 C.3   1224  PU51224     0.2097
      5  N2         2.0990    9.9760   25.1460 N.pl3 1224  PU51224    -0.1457
      6  C12        0.9010    9.9800   25.6920 C.2   1224  PU51224     0.3669
      7  N4         0.4000    9.5170   26.8410 N.2   1224  PU51224    -0.0040
      8  C14       -0.9160    9.6640   27.0930 C.3   1224  PU51224     0.5255
      9  C9         3.2450   10.8070   23.0920 C.3   1224  PU51224     0.1288
     10  N3        -1.7690   10.3330   26.2830 N.2   1224  PU51224     0.0030
     11  C11        0.0520   10.7140   24.7590 C.2   1224  PU51224     0.3063
     12  C13       -1.3430   10.8240   25.0970 C.2   1224  PU51224     0.4517
     13  N5        -2.1500   11.4490   24.2400 N.pl3 1224  PU51224     0.2193
     14  N1         0.8130   11.0990   23.7430 N.2   1224  PU51224    -0.3535
     15  C10        2.0450   10.6060   23.9820 C.2   1224  PU51224     0.2558
     16  C1         5.5570   11.6860   23.5570 C.ar  1224  PU51224    -0.0035
     17  C6         4.1670   11.8520   23.6790 C.ar  1224  PU51224    -0.0084
     18  C5         3.6200   12.9700   24.2770 C.ar  1224  PU51224     0.0332
     19  C2         6.3990   12.6580   24.0770 C.ar  1224  PU51224     0.0028
     20  C3         5.8540   13.7700   24.6880 C.ar  1224  PU51224     0.0369
     21  C4         4.4770   13.9330   24.7560 C.ar  1224  PU51224     0.1384
     22  O1         3.9190   15.0200   25.3740 O.3   1224  PU51224    -0.4714
     23  C7         4.6480   16.2200   25.6550 C.3   1224  PU51224     0.2525
@<TRIPOS>BOND
     1     9    17    1
     2     9    15    1
     3    16    17   ar
     4    16    19   ar
     5    17    18   ar
     6    14    15    2
     7    14    11    2
     8     1     2    1
     9    15     5    1
    10    19    20   ar
    11    13    12    1
    12     2     3    1
    13    18    21   ar
    14    20    21   ar
    15    21    22    1
    16    11    12    1
    17    11     6    1
    18    12    10    2
    19     5     6    1
    20     5     4    1
    21    22    23    1
    22     3     4    1
    23     6     7    2
    24    10     8    1
    25     7     8    1
