@<TRIPOS>MOLECULE
1uy9_PU6_A_1.pdb
 24 27 0 0 0
SMALL
GASTEIGER

@<TRIPOS>ATOM
      1  C18        4.9830    7.5760   23.7480 C.3   1224  PU61224     0.0001
      2  C17        3.5060    7.4260   24.1100 C.3   1224  PU61224     0.0043
      3  C16        3.1540    7.8810   25.5340 C.3   1224  PU61224     0.0513
      4  C15        3.2590    9.4030   25.7530 C.3   1224  PU61224     0.2097
      5  N2         2.0760   10.0190   25.1410 N.pl3 1224  PU61224    -0.1457
      6  C12        0.8200   10.0430   25.6620 C.2   1224  PU61224     0.3669
      7  N4         0.3600    9.5230   26.8260 N.2   1224  PU61224    -0.0040
      8  C14       -0.9510    9.6980   27.1070 C.3   1224  PU61224     0.5255
      9  N3        -1.7740   10.3570   26.2580 N.2   1224  PU61224     0.0030
     10  C11       -0.0120   10.7330   24.7930 C.2   1224  PU61224     0.3063
     11  C13       -1.3440   10.8860   25.0860 C.2   1224  PU61224     0.4517
     12  N5        -2.2200   11.5340   24.2540 N.pl3 1224  PU61224     0.2193
     13  N1         0.7760   11.1190   23.7730 N.2   1224  PU61224    -0.3535
     14  C10        2.0420   10.6920   23.9610 C.2   1224  PU61224     0.2558
     15  C9         3.2450   10.9050   23.0700 C.3   1224  PU61224     0.1288
     16  C1         4.1030   12.0040   23.6760 C.ar  1224  PU61224    -0.0082
     17  C6         3.5210   13.1730   24.2180 C.ar  1224  PU61224     0.0365
     18  C5         4.3850   14.1340   24.7300 C.ar  1224  PU61224     0.1761
     19  C2         5.4980   11.8400   23.6620 C.ar  1224  PU61224    -0.0004
     20  O3         4.0980   15.3560   25.3160 O.3   1224  PU61224    -0.4346
     21  C3         6.3360   12.8310   24.1870 C.ar  1224  PU61224     0.0399
     22  C4         5.7420   13.9700   24.7070 C.ar  1224  PU61224     0.1764
     23  O1         6.3480   15.0850   25.2850 O.3   1224  PU61224    -0.4346
     24  C7         5.3240   16.0030   25.6900 C.3   1224  PU61224     0.4294
@<TRIPOS>BOND
     1    15    16    1
     2    15    14    1
     3    19    16   ar
     4    19    21   ar
     5    16    17   ar
     6     1     2    1
     7    13    14    2
     8    13    10    2
     9    14     5    1
    10     2     3    1
    11    21    22   ar
    12    17    18   ar
    13    12    11    1
    14    22    18   ar
    15    22    23    1
    16    18    20    1
    17    10    11    1
    18    10     6    1
    19    11     9    2
    20     5     6    1
    21     5     4    1
    22    23    24    1
    23    20    24    1
    24     3     4    1
    25     6     7    2
    26     9     8    1
    27     7     8    1
