@<TRIPOS>MOLECULE
1uyc_PU7_A_1.pdb
 25 27 0 0 0
SMALL
GASTEIGER

@<TRIPOS>ATOM
      1  C19        7.7380   10.0170   23.0910 C.3   1224  PU71224     0.2525
      2  C5         6.7340   12.5930   23.8320 C.ar  1224  PU71224     0.0397
      3  O20        6.3690   10.4460   22.7950 O.3   1224  PU71224    -0.4717
      4  C6         5.8380   11.5810   23.4170 C.ar  1224  PU71224     0.1354
      5  C4         6.2120   13.7390   24.4690 C.ar  1224  PU71224     0.0400
      6  C3         4.8210   13.8110   24.6450 C.ar  1224  PU71224     0.1386
      7  O2         4.1810   14.9090   25.2820 O.3   1224  PU71224    -0.4714
      8  C8         4.8610   16.0970   25.6550 C.3   1224  PU71224     0.2525
      9  C2         3.9570   12.7910   24.2740 C.ar  1224  PU71224     0.0362
     10  C1         4.4470   11.6690   23.6390 C.ar  1224  PU71224     0.0257
     11  C9         3.4480   10.6040   23.2180 C.3   1224  PU71224     0.1318
     12  C10        2.1830   10.4840   24.0560 C.2   1224  PU71224     0.2559
     13  N1         0.9770   11.0060   23.7820 N.2   1224  PU71224    -0.3535
     14  C11        0.1980   10.6660   24.8270 C.2   1224  PU71224     0.3063
     15  C13       -1.1490   10.8710   25.0860 C.2   1224  PU71224     0.4517
     16  N5        -2.0300   11.5510   24.1910 N.pl3 1224  PU71224     0.2193
     17  C12        0.9590    9.9560   25.7260 C.2   1224  PU71224     0.3669
     18  N4         0.4920    9.5090   26.8940 N.2   1224  PU71224    -0.0040
     19  C14       -0.8270    9.7040   27.1420 C.3   1224  PU71224     0.5255
     20  N3        -1.6940   10.4430   26.2530 N.2   1224  PU71224     0.0030
     21  N2         2.1600    9.8720   25.2240 N.pl3 1224  PU71224    -0.1457
     22  C15        3.3720    9.2320   25.7790 C.3   1224  PU71224     0.2097
     23  C16        3.4270    7.7050   25.6300 C.3   1224  PU71224     0.0513
     24  C17        3.9250    7.0200   24.3570 C.3   1224  PU71224     0.0043
     25  C18        5.3200    7.2640   23.7080 C.3   1224  PU71224     0.0001
@<TRIPOS>BOND
     1     3     1    1
     2     3     4    1
     3    11    10    1
     4    11    12    1
     5     4    10   ar
     6     4     2   ar
     7    10     9   ar
     8    25    24    1
     9    13    12    2
    10    13    14    2
    11     2     5   ar
    12    12    21    1
    13    16    15    1
    14     9     6   ar
    15    24    23    1
    16     5     6   ar
    17     6     7    1
    18    14    15    1
    19    14    17    1
    20    15    20    2
    21    21    17    1
    22    21    22    1
    23     7     8    1
    24    23    22    1
    25    17    18    2
    26    20    19    1
    27    18    19    1
