@<TRIPOS>MOLECULE
1uyd_PU8_A_1.pdb
 28 30 0 0 0
SMALL
GASTEIGER

@<TRIPOS>ATOM
      1  C19        4.4030   15.5280   26.5790 C.3   1224  PU81224     0.2527
      2  O3         5.1220   15.0840   25.4530 O.3   1224  PU81224    -0.4674
      3  C5         5.0910   13.7860   24.8460 C.ar  1224  PU81224     0.1856
      4  C6         3.9590   13.1780   24.2910 C.ar  1224  PU81224     0.0913
      5  C4         6.3240   13.1530   24.7740 C.ar  1224  PU81224     0.2069
      6  O1         7.4370   13.8000   25.3630 O.3   1224  PU81224    -0.4654
      7  C7         7.9680   14.9820   24.7400 C.3   1224  PU81224     0.2528
      8  C3         6.4650   11.9280   24.1660 C.ar  1224  PU81224     0.1752
      9  O2         7.7380   11.2760   24.1460 O.3   1224  PU81224    -0.4683
     10  C8         8.1250   10.3750   23.0920 C.3   1224  PU81224     0.2526
     11  C2         5.3500   11.3260   23.6130 C.ar  1224  PU81224     0.0374
     12  C1         4.1060   11.9220   23.6560 C.ar  1224  PU81224     0.0054
     13  C9         2.9810   11.1340   22.9970 C.3   1224  PU81224     0.1298
     14  C10        1.7990   10.8980   23.8970 C.2   1224  PU81224     0.2561
     15  N1         0.5690   11.3430   23.6650 N.2   1224  PU81224    -0.3535
     16  C11       -0.1860   10.9430   24.6660 C.2   1224  PU81224     0.3063
     17  C13       -1.5340   11.1210   24.9450 C.2   1224  PU81224     0.4517
     18  N5        -2.4390   11.8290   24.0330 N.pl3 1224  PU81224     0.2193
     19  C12        0.6250   10.2700   25.5670 C.2   1224  PU81224     0.3672
     20  N4         0.1180    9.7800   26.7170 N.2   1224  PU81224    -0.0039
     21  C14       -1.1950    9.9850   26.9470 C.3   1224  PU81224     0.5255
     22  N3        -2.0040   10.6440   26.0890 N.2   1224  PU81224     0.0030
     23  N2         1.8540   10.2510   25.0560 N.pl3 1224  PU81224    -0.1413
     24  C15        3.0530    9.6350   25.6380 C.3   1224  PU81224     0.2361
     25  C16        2.9130    8.1310   25.6360 C.2   1224  PU81224     0.0201
     26  C17        3.6440    7.2660   24.6120 C.2   1224  PU81224    -0.0263
     27  C18        4.6650    7.8940   23.6780 C.3   1224  PU81224     0.0305
     28 CL          2.4190   14.0030   24.3670 Cl    1224  PU81224    -0.0793
@<TRIPOS>BOND
     1    13    12    1
     2    13    14    1
     3    10     9    1
     4    11    12   ar
     5    11     8   ar
     6    12     4   ar
     7    15    14    2
     8    15    16    2
     9    27    26    1
    10    14    23    1
    11    18    17    1
    12     9     8    1
    13     8     5   ar
    14     4    28    1
    15     4     3   ar
    16    26    25    2
    17    16    17    1
    18    16    19    1
    19     7     6    1
    20     5     3   ar
    21     5     6    1
    22     3     2    1
    23    17    22    2
    24    23    19    1
    25    23    24    1
    26     2     1    1
    27    19    20    2
    28    25    24    1
    29    22    21    1
    30    20    21    1
