@<TRIPOS>MOLECULE
1uye_PU9_A_1.pdb
 29 31 0 0 0
SMALL
GASTEIGER

@<TRIPOS>ATOM
      1 CL          2.2560   13.9900   24.2570 Cl    1224  PU91224    -0.0793
      2  C13        3.8690   13.2630   24.2860 C.ar  1224  PU91224     0.0913
      3  C15        4.9460   13.9470   24.8770 C.ar  1224  PU91224     0.1856
      4  O3         4.9810   15.2210   25.5140 O.3   1224  PU91224    -0.4674
      5  C20        5.1590   16.5150   25.7010 C.3   1224  PU91224     0.2527
      6  C17        6.2210   13.4310   24.8810 C.ar  1224  PU91224     0.2069
      7  O2         7.2220   14.2270   25.5350 O.3   1224  PU91224    -0.4654
      8  C19        8.3290   14.8030   24.7850 C.3   1224  PU91224     0.2528
      9  C16        6.4930   12.2180   24.2920 C.ar  1224  PU91224     0.1752
     10  O1         7.8040   11.7830   24.3480 O.3   1224  PU91224    -0.4683
     11  C18        8.2840   10.6560   23.5810 C.3   1224  PU91224     0.2526
     12  C14        5.4480   11.5030   23.6890 C.ar  1224  PU91224     0.0374
     13  C12        4.1290   12.0070   23.6840 C.ar  1224  PU91224     0.0054
     14  C6         3.0450   11.1730   22.9810 C.3   1224  PU91224     0.1297
     15  C5         1.8530   10.8790   23.8830 C.2   1224  PU91224     0.2559
     16  N3         0.6050   11.3020   23.6430 N.2   1224  PU91224    -0.3535
     17  C2        -0.1510   10.8810   24.6540 C.2   1224  PU91224     0.3063
     18  C3        -1.4770   10.9720   24.9820 C.2   1224  PU91224     0.4517
     19  N5        -2.4380   11.6520   24.1500 N.pl3 1224  PU91224     0.2193
     20  C1         0.6680   10.2330   25.5240 C.2   1224  PU91224     0.3669
     21  N1         0.2850    9.6600   26.6660 N.2   1224  PU91224    -0.0040
     22  C4        -1.0230    9.7970   26.9490 C.3   1224  PU91224     0.5255
     23  N2        -1.8770   10.4420   26.1350 N.2   1224  PU91224     0.0030
     24  N4         1.9020   10.2070   25.0690 N.pl3 1224  PU91224    -0.1457
     25  C7         3.0610    9.5780   25.7040 C.3   1224  PU91224     0.2107
     26  C8         3.0370    8.0610   25.4890 C.3   1224  PU91224     0.0653
     27  C9         3.1550    7.7060   24.0130 C.3   1224  PU91224     0.0813
     28  C10        4.5690    7.8510   23.4340 C.1   1224  PU91224    -0.0778
     29  C11        5.6920    7.9600   23.0730 C.1   1224  PU91224    -0.0141
@<TRIPOS>BOND
     1    14    13    1
     2    14    15    1
     3    29    28    3
     4    28    27    1
     5    11    10    1
     6    16    15    2
     7    16    17    2
     8    13    12   ar
     9    13     2   ar
    10    12     9   ar
    11    15    24    1
    12    27    26    1
    13    19    18    1
    14     1     2    1
    15     2     3   ar
    16     9    10    1
    17     9     6   ar
    18    17    18    1
    19    17    20    1
    20     8     7    1
    21     3     6   ar
    22     3     4    1
    23     6     7    1
    24    18    23    2
    25    24    20    1
    26    24    25    1
    27    26    25    1
    28     4     5    1
    29    20    21    2
    30    23    22    1
    31    21    22    1
