@<TRIPOS>MOLECULE
1uyf_PU1_A_1.pdb
 30 32 0 0 0
SMALL
GASTEIGER

@<TRIPOS>ATOM
      1 CL          2.3120   14.0680   24.3150 Cl    1224  PU11224    -0.0793
      2  C13        3.8980   13.2920   24.2100 C.ar  1224  PU11224     0.0912
      3  C15        5.0260   13.9110   24.7110 C.ar  1224  PU11224     0.1856
      4  O3         5.1190   15.1390   25.3580 O.3   1224  PU11224    -0.4674
      5  C20        4.1260   15.7230   26.1350 C.3   1224  PU11224     0.2527
      6  C17        6.2650   13.3670   24.6310 C.ar  1224  PU11224     0.2069
      7  O2         7.3090   14.0870   25.2130 O.3   1224  PU11224    -0.4654
      8  C19        7.7660   15.2710   24.5720 C.3   1224  PU11224     0.2528
      9  C16        6.5020   12.1950   24.0430 C.ar  1224  PU11224     0.1752
     10  O1         7.8340   11.7330   24.1060 O.3   1224  PU11224    -0.4683
     11  C18        8.1810   10.7080   23.1560 C.3   1224  PU11224     0.2526
     12  C14        5.4270   11.5070   23.5020 C.ar  1224  PU11224     0.0373
     13  C12        4.1400   12.0430   23.5720 C.ar  1224  PU11224     0.0030
     14  C6         3.0410   11.2150   22.9470 C.3   1224  PU11224     0.1025
     15  C5         1.8300   11.0150   23.8120 C.2   1224  PU11224     0.1703
     16  N3         0.6270   11.4450   23.5600 N.2   1224  PU11224    -0.3827
     17  C2        -0.1750   10.9720   24.6730 C.2   1224  PU11224     0.2251
     18  C3        -1.4840   11.1340   24.9560 C.2   1224  PU11224     0.2668
     19  N5        -2.4570   11.8080   24.1250 N.pl3 1224  PU11224    -0.0892
     20  C1         0.5830   10.3140   25.5770 C.2   1224  PU11224     0.2370
     21  N1         0.1470    9.8430   26.7050 N.2   1224  PU11224    -0.2987
     22  C4        -1.1360   10.0080   26.9530 C.1   1224  PU11224     0.2999
     23  N2        -1.8970   10.6050   26.0990 N.2   1224  PU11224    -0.2959
     24  N4         1.9230   10.3260   25.0990 N.pl3 1224  PU11224    -0.2384
     25  C7         3.0880    9.6600   25.7080 C.3   1224  PU11224     0.1012
     26  C8         2.9510    8.1510   25.6090 C.3   1224  PU11224     0.0359
     27  C9         3.3900    7.4800   24.3360 C.3   1224  PU11224     0.0788
     28  C10        4.7800    7.7670   23.7480 C.1   1224  PU11224    -0.0779
     29  C11        5.8230    8.0360   23.2680 C.1   1224  PU11224    -0.0141
     30  F         -1.6960    9.5510   28.0950 F     1224  PU11224    -0.0976
@<TRIPOS>BOND
     1    14    13    1
     2    14    15    1
     3    11    10    1
     4    29    28    3
     5    12    13   ar
     6    12     9   ar
     7    16    15    2
     8    16    17    2
     9    13     2   ar
    10    28    27    1
    11    15    24    1
    12     9    10    1
    13     9     6   ar
    14    19    18    1
    15     2     1    1
    16     2     3   ar
    17    27    26    1
    18     8     7    1
    19     6     3   ar
    20     6     7    1
    21    17    18    1
    22    17    20    1
    23     3     4    1
    24    18    23    2
    25    24    20    1
    26    24    25    1
    27     4     5    1
    28    20    21    2
    29    26    25    1
    30    23    22    2
    31    21    22    2
    32    22    30    1
