@<TRIPOS>MOLECULE
1uyg_PU2_A_1.pdb
 22 24 0 0 0
SMALL
GASTEIGER

@<TRIPOS>ATOM
      1  C18        7.6810   10.0890   22.8450 C.3   1224  PU21224     0.2525
      2  N2         2.2600    9.9580   25.3190 N.2   1224  PU21224    -0.2755
      3  C12        1.0480   10.0930   25.7560 C.1   1224  PU21224     0.1972
      4  N4         0.5710    9.6940   26.9140 N.2   1224  PU21224    -0.2469
      5  C14       -0.7110    9.9290   27.0940 C.1   1224  PU21224     0.3086
      6  C9         3.5150   10.5050   23.2700 C.3   1224  PU21224     0.1551
      7  N3        -1.5560   10.4980   26.2430 N.2   1224  PU21224    -0.2947
      8  C11        0.2840   10.6970   24.8250 C.2   1224  PU21224     0.2768
      9  C13       -1.0660   10.8650   25.0730 C.2   1224  PU21224     0.2757
     10  N5        -1.9680   11.4750   24.1540 N.pl3 1224  PU21224    -0.0886
     11  N1         1.0320   10.9440   23.7520 N.2   1224  PU21224    -0.3261
     12  C10        2.2550   10.4610   24.0760 C.1   1224  PU21224     0.1309
     13  C1         5.7960   11.5440   23.4120 C.ar  1224  PU21224     0.1360
     14  C6         4.4370   11.6390   23.6640 C.ar  1224  PU21224     0.0318
     15  C5         3.9210   12.7510   24.2870 C.ar  1224  PU21224     0.0368
     16  C2         6.6830   12.5560   23.7270 C.ar  1224  PU21224     0.0397
     17  C3         6.1770   13.6970   24.3390 C.ar  1224  PU21224     0.0400
     18  C4         4.8010   13.7840   24.6080 C.ar  1224  PU21224     0.1387
     19  F1        -1.3040    9.4820   28.5200 F     1224  PU21224    -0.0972
     20  O1         4.2350   14.9180   25.2610 O.3   1224  PU21224    -0.4714
     21  O2         6.2690   10.3840   22.8050 O.3   1224  PU21224    -0.4717
     22  C7         5.0310   16.0220   25.7110 C.3   1224  PU21224     0.2525
@<TRIPOS>BOND
     1    21     1    1
     2    21    13    1
     3     6    14    1
     4     6    12    1
     5    13    14   ar
     6    13    16   ar
     7    14    15   ar
     8    16    17   ar
     9    11    12    2
    10    11     8    2
    11    12     2    2
    12    10     9    1
    13    15    18   ar
    14    17    18   ar
    15    18    20    1
    16     8     9    1
    17     8     3    1
    18     9     7    2
    19    20    22    1
    20     2     3    2
    21     3     4    2
    22     7     5    2
    23     4     5    2
    24     5    19    1
