@<TRIPOS>MOLECULE
1uyh_PU0_A_1.pdb
 26 28 0 0 0
SMALL
GASTEIGER

@<TRIPOS>ATOM
      1  C19        7.6600   10.1370   22.8270 C.3   1224  PU01224     0.2525
      2  C5         6.5610   12.6060   23.9570 C.ar  1224  PU01224     0.0397
      3  O20        6.2680   10.4730   22.8830 O.3   1224  PU01224    -0.4717
      4  C6         5.7460   11.5810   23.4960 C.ar  1224  PU01224     0.1353
      5  C4         6.0280   13.7640   24.5690 C.ar  1224  PU01224     0.0400
      6  C3         4.6400   13.8430   24.7210 C.ar  1224  PU01224     0.1386
      7  O2         4.0570   14.9380   25.2980 O.3   1224  PU01224    -0.4714
      8  C8         4.7890   16.0680   25.7960 C.3   1224  PU01224     0.2525
      9  C2         3.8030   12.8220   24.2300 C.ar  1224  PU01224     0.0361
     10  C1         4.3340   11.6820   23.6210 C.ar  1224  PU01224     0.0233
     11  C9         3.4310   10.5670   23.0940 C.3   1224  PU01224     0.1046
     12  C10        2.1840   10.4650   23.9250 C.2   1224  PU01224     0.1704
     13  N1         0.9310   10.9810   23.6270 N.2   1224  PU01224    -0.3827
     14  C11        0.1520   10.6510   24.6980 C.2   1224  PU01224     0.2251
     15  C13       -1.2090   10.8330   24.9700 C.2   1224  PU01224     0.2668
     16  N5        -2.0560   11.4690   24.0840 N.pl3 1224  PU01224    -0.0892
     17  C12        0.9420    9.9900   25.6220 C.2   1224  PU01224     0.2370
     18  N4         0.4270    9.5620   26.7940 N.2   1224  PU01224    -0.2987
     19  C14       -0.8970    9.7890   27.0310 C.1   1224  PU01224     0.2999
     20  N3        -1.6890   10.3960   26.1580 N.2   1224  PU01224    -0.2959
     21  N2         2.1790    9.8520   25.1220 N.pl3 1224  PU01224    -0.2384
     22  C15        3.3630    9.2450   25.7890 C.3   1224  PU01224     0.1001
     23  C16        3.3520    7.7240   25.8130 C.3   1224  PU01224     0.0220
     24  C17        3.8830    7.0990   24.5370 C.3   1224  PU01224     0.0018
     25  C18        5.2980    7.5180   24.1720 C.3   1224  PU01224     0.0001
     26  F1        -1.4630    9.4060   28.1750 F     1224  PU01224    -0.0976
@<TRIPOS>BOND
     1     1     3    1
     2     3     4    1
     3    11    10    1
     4    11    12    1
     5     4    10   ar
     6     4     2   ar
     7    10     9   ar
     8    13    12    2
     9    13    14    2
    10    12    21    1
    11     2     5   ar
    12    16    15    1
    13    25    24    1
    14     9     6   ar
    15    24    23    1
    16     5     6   ar
    17    14    15    1
    18    14    17    1
    19     6     7    1
    20    15    20    2
    21    21    17    1
    22    21    22    1
    23     7     8    1
    24    17    18    2
    25    22    23    1
    26    20    19    2
    27    18    19    2
    28    19    26    1
