@<TRIPOS>MOLECULE
1uyi_PUZ_A_1.pdb
 27 29 0 0 0
SMALL
GASTEIGER

@<TRIPOS>ATOM
      1  C19        5.1990    7.9820   29.0130 C.1   1224  PUZ1224    -0.0141
      2  C18        4.9810    7.6540   27.7770 C.1   1224  PUZ1224    -0.0779
      3  C17        4.6800    7.2890   26.3660 C.3   1224  PUZ1224     0.0788
      4  C16        3.3540    7.9330   25.9080 C.3   1224  PUZ1224     0.0359
      5  C15        3.4660    9.4610   26.0310 C.3   1224  PUZ1224     0.1012
      6  N2         2.2830   10.0330   25.3560 N.pl3 1224  PUZ1224    -0.2384
      7  C12        1.0330   10.1470   25.8500 C.2   1224  PUZ1224     0.2370
      8  N4         0.5660    9.7670   27.0420 N.2   1224  PUZ1224    -0.2987
      9  C11        0.2250   10.7470   24.9230 C.2   1224  PUZ1224     0.2251
     10  C13       -1.1230   10.9340   25.2300 C.2   1224  PUZ1224     0.2668
     11  N5        -2.0080   11.4920   24.3850 N.pl3 1224  PUZ1224    -0.0892
     12  N3        -1.5600   10.5490   26.4280 N.2   1224  PUZ1224    -0.2959
     13  C14       -0.7260    9.9790   27.3070 C.1   1224  PUZ1224     0.2999
     14  F1        -1.1800    9.6000   28.4740 F     1224  PUZ1224    -0.0976
     15  N1         0.9970   11.0240   23.8410 N.2   1224  PUZ1224    -0.3827
     16  C10        2.2460   10.5480   24.1200 C.2   1224  PUZ1224     0.1704
     17  C9         3.4810   10.6170   23.2590 C.3   1224  PUZ1224     0.1046
     18  C1         4.3670   11.7960   23.6460 C.ar  1224  PUZ1224     0.0233
     19  C2         5.7400   11.7320   23.3330 C.ar  1224  PUZ1224     0.1353
     20  O2         6.2150   10.5960   22.7090 O.3   1224  PUZ1224    -0.4717
     21  C7         7.4960   10.0370   23.0230 C.3   1224  PUZ1224     0.2525
     22  C3         6.6110   12.8020   23.6220 C.ar  1224  PUZ1224     0.0397
     23  C4         6.0550   13.9340   24.2360 C.ar  1224  PUZ1224     0.0400
     24  C5         4.6950   13.9950   24.5770 C.ar  1224  PUZ1224     0.1386
     25  C6         3.8370   12.9190   24.2740 C.ar  1224  PUZ1224     0.0361
     26  O5         4.1630   15.1080   25.1890 O.3   1224  PUZ1224    -0.4714
     27  C8         4.9430   16.2520   25.5770 C.3   1224  PUZ1224     0.2525
@<TRIPOS>BOND
     1    20    21    1
     2    20    19    1
     3    17    18    1
     4    17    16    1
     5    19    22   ar
     6    19    18   ar
     7    22    23   ar
     8    18    25   ar
     9    15    16    2
    10    15     9    2
    11    16     6    1
    12    23    24   ar
    13    25    24   ar
    14    11    10    1
    15    24    26    1
    16     9    10    1
    17     9     7    1
    18    26    27    1
    19    10    12    2
    20     6     7    1
    21     6     5    1
    22     7     8    2
    23     4     5    1
    24     4     3    1
    25     3     2    1
    26    12    13    2
    27     8    13    2
    28    13    14    1
    29     2     1    3
