@<TRIPOS>MOLECULE
1uyk_PUX_A_1.pdb
 25 28 0 0 0
SMALL
GASTEIGER

@<TRIPOS>ATOM
      1  C18        5.3940    7.6590   24.4680 C.3   1224  PUX1224     0.0001
      2  C17        4.0100    7.1350   24.8390 C.3   1224  PUX1224     0.0018
      3  C16        3.3890    7.7240   26.1230 C.3   1224  PUX1224     0.0220
      4  C15        3.2200    9.2470   26.2410 C.3   1224  PUX1224     0.1001
      5  N2         2.0930    9.8900   25.5500 N.pl3 1224  PUX1224    -0.2384
      6  C12        0.8250   10.0070   26.0520 C.2   1224  PUX1224     0.2370
      7  N4         0.3140    9.5400   27.2570 N.2   1224  PUX1224    -0.2987
      8  C14       -0.9760    9.6780   27.6180 C.1   1224  PUX1224     0.2999
      9  N3        -1.7200   10.3440   26.6920 N.2   1224  PUX1224    -0.2959
     10  C11        0.0060   10.6760   25.1210 C.2   1224  PUX1224     0.2251
     11  C13       -1.3120   10.8640   25.4670 C.2   1224  PUX1224     0.2668
     12  N5        -2.1950   11.5520   24.6520 N.pl3 1224  PUX1224    -0.0892
     13  N1         0.7570   10.9790   24.0390 N.2   1224  PUX1224    -0.3827
     14  C10        2.0730   10.5310   24.2650 C.2   1224  PUX1224     0.1703
     15  C9         3.3060   10.7450   23.2830 C.3   1224  PUX1224     0.1016
     16  C1         4.1450   11.9080   23.7980 C.ar  1224  PUX1224    -0.0105
     17  C6         3.5400   13.0490   24.3440 C.ar  1224  PUX1224     0.0364
     18  C5         4.4210   14.0360   24.8000 C.ar  1224  PUX1224     0.1761
     19  C2         5.5280   11.7650   23.7620 C.ar  1224  PUX1224    -0.0005
     20  O3         4.1730   15.2730   25.3690 O.3   1224  PUX1224    -0.4346
     21  C3         6.4250   12.7800   24.2490 C.ar  1224  PUX1224     0.0399
     22  C4         5.7770   13.9010   24.7390 C.ar  1224  PUX1224     0.1764
     23  O1         6.3090   14.9930   25.2870 O.3   1224  PUX1224    -0.4346
     24  C7         5.3560   15.8990   25.8170 C.3   1224  PUX1224     0.4294
     25  F         -1.8330    9.3920   29.0180 F     1224  PUX1224    -0.0976
@<TRIPOS>BOND
     1    15    16    1
     2    15    14    1
     3    19    16   ar
     4    19    21   ar
     5    16    17   ar
     6    13    14    2
     7    13    10    2
     8    21    22   ar
     9    14     5    1
    10    17    18   ar
    11     1     2    1
    12    12    11    1
    13    22    18   ar
    14    22    23    1
    15    18    20    1
    16     2     3    1
    17    10    11    1
    18    10     6    1
    19    23    24    1
    20    20    24    1
    21    11     9    2
    22     5     6    1
    23     5     4    1
    24     6     7    2
    25     3     4    1
    26     9     8    2
    27     7     8    2
    28     8    25    1
