@<TRIPOS>MOLECULE
1uym_PU3_A_1.pdb
 27 29 0 0 0
SMALL
GASTEIGER

@<TRIPOS>ATOM
      1  C19        8.4640   10.0760   22.9460 C.3   1224  PU31224     0.2526
      2  O3         8.3440   11.2560   23.7340 O.3   1224  PU31224    -0.4683
      3  C5         6.9910   11.6300   24.0410 C.ar  1224  PU31224     0.1751
      4  C6         5.7600   11.0910   23.3580 C.ar  1224  PU31224     0.0365
      5  C4         6.7610   12.9230   24.7240 C.ar  1224  PU31224     0.2060
      6  O1         7.8080   13.5830   25.4380 O.3   1224  PU31224    -0.4654
      7  C7         8.3080   14.6680   24.6630 C.3   1224  PU31224     0.2528
      8  C3         5.3520   13.3220   25.0060 C.ar  1224  PU31224     0.1751
      9  O2         5.2000   14.5000   25.8540 O.3   1224  PU31224    -0.4683
     10  C8         4.4290   15.6400   25.5330 C.3   1224  PU31224     0.2526
     11  C2         4.3980   12.6900   24.4120 C.ar  1224  PU31224     0.0365
     12  C1         4.5540   11.6470   23.6670 C.ar  1224  PU31224    -0.0052
     13  C9         3.3500   10.9700   23.0240 C.3   1224  PU31224     0.1289
     14  C10        2.1830   10.7420   23.9560 C.2   1224  PU31224     0.2558
     15  N1         0.9210   11.2490   23.7430 N.2   1224  PU31224    -0.3535
     16  C11        0.1450   10.8330   24.7520 C.2   1224  PU31224     0.3063
     17  C13       -1.2660   11.0070   25.1640 C.2   1224  PU31224     0.4517
     18  N5        -2.1020   11.7400   24.4230 N.pl3 1224  PU31224     0.2193
     19  C12        1.0160   10.0430   25.5830 C.2   1224  PU31224     0.3669
     20  N4         0.5640    9.4680   26.7350 N.2   1224  PU31224    -0.0040
     21  C14       -0.8260    9.6280   27.1630 C.3   1224  PU31224     0.5255
     22  N3        -1.6180   10.4520   26.2380 N.2   1224  PU31224     0.0030
     23  N2         2.2420    9.9970   25.0830 N.pl3 1224  PU31224    -0.1457
     24  C15        3.3880    9.2670   25.6110 C.3   1224  PU31224     0.2097
     25  C16        3.2360    7.8460   25.0520 C.3   1224  PU31224     0.0513
     26  C17        4.5380    7.0580   24.9490 C.3   1224  PU31224     0.0043
     27  C18        5.2630    7.3030   23.6400 C.3   1224  PU31224     0.0001
@<TRIPOS>BOND
     1     1     2    1
     2    13    12    1
     3    13    14    1
     4     4    12   ar
     5     4     3   ar
     6    27    26    1
     7    12    11   ar
     8     2     3    1
     9    15    14    2
    10    15    16    2
    11    14    23    1
    12     3     5   ar
    13    11     8   ar
    14    18    17    1
    15     7     6    1
    16     5     8   ar
    17     5     6    1
    18    16    17    1
    19    16    19    1
    20    26    25    1
    21     8     9    1
    22    25    24    1
    23    23    19    1
    24    23    24    1
    25    17    22    2
    26    10     9    1
    27    19    20    2
    28    22    21    1
    29    20    21    1
