@<TRIPOS>MOLECULE
1uyq_NFG_A_1.pdb
 24 25 0 0 0
SMALL
GASTEIGER

@<TRIPOS>ATOM
      1  C1        17.4880   42.4710   36.3490 C.3   3000  NFG3000     0.3242
      2  O1        18.0280   43.4670   37.2030 O.3   3000  NFG3000    -0.4486
      3  C2        16.8590   43.1880   35.1700 C.3   3000  NFG3000     0.2631
      4  F         15.8320   44.0690   35.6020 F     3000  NFG3000    -0.2276
      5  C3        16.3150   42.1670   34.1850 C.3   3000  NFG3000     0.2233
      6  O3        15.8470   42.8610   33.0290 O.3   3000  NFG3000    -0.2171
      7  C4        17.3860   41.1470   33.7910 C.3   3000  NFG3000     0.2147
      8  O4        16.7600   40.1350   33.0030 O.3   3000  NFG3000    -0.2176
      9  C5        18.0290   40.5210   35.0420 C.3   3000  NFG3000     0.1846
     10  C6        19.2190   39.6800   34.7010 C.3   3000  NFG3000     0.2142
     11  O6        19.8290   39.0840   35.8460 O.3   3000  NFG3000    -0.2176
     12  O5        18.5210   41.5800   35.9190 O.3   3000  NFG3000    -0.3155
     13  C11       18.4140   43.1920   38.5070 C.ar  3000  NFG3000     0.1638
     14  C12       19.0270   44.2610   39.2530 C.ar  3000  NFG3000     0.1783
     15  N1        19.2550   45.6060   38.6770 N.pl3 3000  NFG3000     0.0607
     16  O11       19.3660   45.7460   37.4630 O.2   3000  NFG3000    -0.1260
     17  O12       19.3460   46.5880   39.4160 O.2   3000  NFG3000    -0.1260
     18  C13       19.4440   44.0570   40.5820 C.ar  3000  NFG3000     0.0513
     19  C14       19.2740   42.8290   41.2010 C.ar  3000  NFG3000     0.1447
     20  N2        19.6630   42.5010   42.5680 N.pl3 3000  NFG3000     0.0577
     21  O21       19.1590   41.5370   43.1510 O.2   3000  NFG3000    -0.1261
     22  O22       20.5080   43.1910   43.1320 O.2   3000  NFG3000    -0.1261
     23  C15       18.6730   41.7660   40.4830 C.ar  3000  NFG3000     0.0273
     24  C16       18.2490   41.9440   39.1580 C.ar  3000  NFG3000     0.0404
@<TRIPOS>BOND
     1     8     7    1
     2     6     5    1
     3     7     5    1
     4     7     9    1
     5     5     3    1
     6    10     9    1
     7    10    11    1
     8     9    12    1
     9     3     4    1
    10     3     1    1
    11    12     1    1
    12     1     2    1
    13     2    13    1
    14    16    15    2
    15    13    24   ar
    16    13    14   ar
    17    15    14    1
    18    15    17    2
    19    24    23   ar
    20    14    18   ar
    21    23    19   ar
    22    18    19   ar
    23    19    20    1
    24    20    22    2
    25    20    21    2
