@<TRIPOS>MOLECULE
1uyq_G2F_A_1.pdb
 11 11 0 0 0
SMALL
GASTEIGER

@<TRIPOS>ATOM
      1  C1        34.9990   56.9480   18.1520 C.3   2000  G2F2000     0.1801
      2  C2        35.2170   55.7610   19.1180 C.3   2000  G2F2000     0.2230
      3  C3        36.7150   55.6750   19.4570 C.3   2000  G2F2000     0.2194
      4  C4        37.5280   55.4950   18.1690 C.3   2000  G2F2000     0.2144
      5  C5        37.1760   56.6120   17.1790 C.3   2000  G2F2000     0.1810
      6  C6        37.8220   56.4360   15.8180 C.3   2000  G2F2000     0.2141
      7  O3        36.9630   54.5970   20.3490 O.3   2000  G2F2000    -0.2173
      8  O4        38.9150   55.5440   18.4680 O.3   2000  G2F2000    -0.2176
      9  O5        35.7460   56.6670   16.9730 O.3   2000  G2F2000    -0.3479
     10  O6        37.5470   55.1530   15.2780 O.3   2000  G2F2000    -0.2176
     11  F2        34.4400   55.8780   20.3110 F     2000  G2F2000    -0.2317
@<TRIPOS>BOND
     1    10     6    1
     2     6     5    1
     3     9     5    1
     4     9     1    1
     5     5     4    1
     6     1     2    1
     7     4     8    1
     8     4     3    1
     9     2     3    1
    10     2    11    1
    11     3     7    1
