@<TRIPOS>MOLECULE
1uyr_D1L_A_1.pdb
 21 22 0 0 0
SMALL
GASTEIGER

@<TRIPOS>ATOM
      1  O1A       27.3850   42.3230   36.5940 O.co2 3219  D1L3219    -0.2416
      2  C1        27.9630   43.3730   36.8770 C.2   3219  D1L3219     0.4040
      3  O1B       27.4910   44.4510   36.5190 O.co2 3219  D1L3219    -0.2416
      4  C2        29.2600   43.3440   37.6870 C.3   3219  D1L3219     0.2677
      5  C2A       30.4410   43.6900   36.7770 C.3   3219  D1L3219     0.0598
      6  O2        29.1520   44.3360   38.7200 O.3   3219  D1L3219    -0.4677
      7  C3        28.9660   43.8390   39.9750 C.ar  3219  D1L3219     0.1394
      8  C4        29.3310   44.6300   41.0590 C.ar  3219  D1L3219     0.0400
      9  C5        29.0900   44.2010   42.3620 C.ar  3219  D1L3219     0.0406
     10  C6        28.3640   42.6030   40.2010 C.ar  3219  D1L3219     0.0400
     11  C7        28.1260   42.1690   41.5030 C.ar  3219  D1L3219     0.0406
     12  C8        28.4820   42.9690   42.5850 C.ar  3219  D1L3219     0.1455
     13  O8        28.1180   42.5920   43.8420 O.3   3219  D1L3219    -0.4526
     14  C9        29.0670   42.0050   44.6260 C.ar  3219  D1L3219     0.1558
     15  C10       30.1840   41.3580   44.1050 C.ar  3219  D1L3219     0.0392
     16  C11       31.0970   40.7310   44.9510 C.ar  3219  D1L3219     0.0146
     17  C12       30.8930   40.7500   46.3270 C.ar  3219  D1L3219     0.0587
     18 CL12       31.9710   39.9190   47.3950 Cl    3219  D1L3219    -0.0822
     19  C13       29.7840   41.4030   46.8550 C.ar  3219  D1L3219     0.0259
     20  C14       28.8770   42.0270   46.0060 C.ar  3219  D1L3219     0.0929
     21 CL14       27.4850   42.8010   46.6790 Cl    3219  D1L3219    -0.0790
@<TRIPOS>BOND
     1     3     2   ar
     2     1     2   ar
     3     5     4    1
     4     2     4    1
     5     4     6    1
     6     6     7    1
     7     7    10   ar
     8     7     8   ar
     9    10    11   ar
    10     8     9   ar
    11    11    12   ar
    12     9    12   ar
    13    12    13    1
    14    13    14    1
    15    15    14   ar
    16    15    16   ar
    17    14    20   ar
    18    16    17   ar
    19    20    21    1
    20    20    19   ar
    21    17    19   ar
    22    17    18    1
