@<TRIPOS>MOLECULE
1uys_H1L_A_1.pdb
 24 25 0 0 0
SMALL
GASTEIGER

@<TRIPOS>ATOM
      1  O1A       -0.4320   19.6980  -23.6330 O.co2 3000  H1L3000    -0.2416
      2  C1         0.0050   18.8510  -22.8410 C.2   3000  H1L3000     0.4040
      3  O1B        1.1880   18.4950  -22.9160 O.co2 3000  H1L3000    -0.2416
      4  C2        -0.9040   18.2590  -21.7910 C.3   3000  H1L3000     0.2677
      5  C2A       -1.8940   17.2720  -22.4230 C.3   3000  H1L3000     0.0598
      6  O2        -0.0850   17.5570  -20.8320 O.3   3000  H1L3000    -0.4677
      7  C3        -0.1460   18.0510  -19.5930 C.ar  3000  H1L3000     0.1394
      8  C4        -0.1350   19.4240  -19.3000 C.ar  3000  H1L3000     0.0400
      9  C5        -0.0540   19.8720  -17.9730 C.ar  3000  H1L3000     0.0407
     10  C6        -0.1000   17.1270  -18.5210 C.ar  3000  H1L3000     0.0400
     11  C7        -0.0320   17.5800  -17.2190 C.ar  3000  H1L3000     0.0407
     12  C8         0.0080   18.9480  -16.9610 C.ar  3000  H1L3000     0.1474
     13  O8         0.2570   19.3490  -15.6510 O.3   3000  H1L3000    -0.4353
     14  C9        -0.8660   19.4940  -14.8980 C.ar  3000  H1L3000     0.2403
     15  N9        -2.0280   19.0590  -15.2960 N.ar  3000  H1L3000    -0.2092
     16  C10       -3.1400   19.1600  -14.5220 C.ar  3000  H1L3000     0.1060
     17  C11       -3.0550   19.7300  -13.2910 C.ar  3000  H1L3000     0.0916
     18  C12       -4.2850   19.8330  -12.3950 C.3   3000  H1L3000     0.4200
     19  F1        -5.3510   19.3610  -13.0280 F     3000  H1L3000    -0.1658
     20  F2        -4.0590   19.1190  -11.2980 F     3000  H1L3000    -0.1658
     21  F3        -4.5130   21.0920  -12.0620 F     3000  H1L3000    -0.1658
     22  C13       -1.8400   20.2240  -12.8210 C.ar  3000  H1L3000     0.0215
     23  C14       -0.7030   20.1120  -13.6400 C.ar  3000  H1L3000     0.1111
     24 CL1         0.8220   20.6720  -13.1410 Cl    3000  H1L3000    -0.0774
@<TRIPOS>BOND
     1     1     2   ar
     2     3     2   ar
     3     2     4    1
     4     5     4    1
     5     4     6    1
     6     6     7    1
     7     7     8   ar
     8     7    10   ar
     9     8     9   ar
    10    10    11   ar
    11     9    12   ar
    12    11    12   ar
    13    12    13    1
    14    13    14    1
    15    15    14   ar
    16    15    16   ar
    17    14    23   ar
    18    16    17   ar
    19    23    24    1
    20    23    22   ar
    21    17    22   ar
    22    17    18    1
    23    19    18    1
    24    18    21    1
    25    18    20    1
