@<TRIPOS>MOLECULE
1uyu_CAM_A_1.pdb
 11 12 0 0 0
SMALL
GASTEIGER

@<TRIPOS>ATOM
      1  C1        22.7290   -3.2890   47.4780 C.3   1416  CAM1416     0.0282
      2  C2        23.5110   -3.1610   48.7770 C.3   1416  CAM1416     0.1519
      3  O         23.8820   -4.2310   49.5980 O.3   1416  CAM1416    -0.2232
      4  C3        23.8240   -1.7050   49.0300 C.3   1416  CAM1416     0.0329
      5  C4        23.1660   -1.1400   47.7700 C.3   1416  CAM1416     0.0026
      6  C5        24.0990   -1.5280   46.6150 C.3   1416  CAM1416     0.0002
      7  C6        23.7960   -3.0180   46.4090 C.3   1416  CAM1416     0.0024
      8  C7        21.9200   -1.9960   47.5240 C.3   1416  CAM1416     0.0024
      9  C8        20.9160   -1.9860   48.6800 C.3   1416  CAM1416     0.0001
     10  C9        21.2240   -1.6510   46.2000 C.3   1416  CAM1416     0.0001
     11  C10       21.9210   -4.5800   47.3350 C.3   1416  CAM1416     0.0025
@<TRIPOS>BOND
     1    10     8    1
     2     7     6    1
     3     7     1    1
     4     6     5    1
     5    11     1    1
     6     1     8    1
     7     1     2    1
     8     8     5    1
     9     8     9    1
    10     5     4    1
    11     2     4    1
    12     2     3    1
