@<TRIPOS>MOLECULE
1uyu_HEM_A_1.pdb
 43 50 0 0 0
SMALL
GASTEIGER

@<TRIPOS>ATOM
      1 FE         23.7920    1.7760   43.9670 Fe    1415  HEM1415     0.0000
      2  CHA       24.4320    2.2970   47.2750 C.2   1415  HEM1415     0.0000
      3  CHB       20.3950    2.0900   44.6450 C.2   1415  HEM1415     0.0000
      4  CHC       23.0350    0.9930   40.7680 C.2   1415  HEM1415     0.0000
      5  CHD       27.0530    0.6550   43.4600 C.2   1415  HEM1415     0.0000
      6  NA        22.6330    2.0820   45.6560 N.2   1415  HEM1415     0.0000
      7  C1A       23.1130    2.3530   46.9220 C.2   1415  HEM1415     0.0000
      8  C2A       22.0010    2.7180   47.7860 C.2   1415  HEM1415     0.0000
      9  C3A       20.8930    2.6480   47.0480 C.2   1415  HEM1415     0.0000
     10  C4A       21.2650    2.2650   45.6970 C.2   1415  HEM1415     0.0000
     11  CMA       19.4380    2.9050   47.4830 C.3   1415  HEM1415     0.0000
     12  CAA       22.1080    3.1010   49.2890 C.3   1415  HEM1415     0.0000
     13  CBA       21.9780    1.8700   50.1750 C.3   1415  HEM1415     0.0000
     14  CGA       22.1150    2.2080   51.6490 C.2   1415  HEM1415     0.0000
     15  O1A       22.1980    3.4030   52.0100 O.co2 1415  HEM1415     0.0000
     16  O2A       22.1390    1.2700   52.4790 O.co2 1415  HEM1415     0.0000
     17  NB        22.0060    1.5260   42.9210 N.ar  1415  HEM1415     0.0000
     18  C1B       20.7410    1.8160   43.3420 C.ar  1415  HEM1415     0.0000
     19  C2B       19.8500    1.7630   42.1940 C.ar  1415  HEM1415     0.0000
     20  C3B       20.5980    1.4770   41.1150 C.ar  1415  HEM1415     0.0000
     21  C4B       21.9670    1.3160   41.5640 C.ar  1415  HEM1415     0.0000
     22  CMB       18.3430    2.0370   42.2860 C.3   1415  HEM1415     0.0000
     23  CAB       20.2000    1.2880   39.6310 C.2   1415  HEM1415     0.0000
     24  CBB       18.9620    1.4590   39.1920 C.2   1415  HEM1415     0.0000
     25  NC        24.8460    0.9310   42.3970 N.2   1415  HEM1415     0.0000
     26  C1C       24.3170    0.7350   41.1570 C.2   1415  HEM1415     0.0000
     27  C2C       25.3680    0.2360   40.3170 C.2   1415  HEM1415     0.0000
     28  C3C       26.4800    0.1320   41.0510 C.2   1415  HEM1415     0.0000
     29  C4C       26.1750    0.5540   42.3870 C.2   1415  HEM1415     0.0000
     30  CMC       25.2280   -0.1200   38.8330 C.3   1415  HEM1415     0.0000
     31  CAC       27.8270   -0.3680   40.5220 C.2   1415  HEM1415     0.0000
     32  CBC       28.6320   -1.0390   41.3350 C.2   1415  HEM1415     0.0000
     33  ND        25.4790    1.4940   45.1480 N.ar  1415  HEM1415     0.0000
     34  C1D       26.7370    1.1220   44.7150 C.ar  1415  HEM1415     0.0000
     35  C2D       27.6720    1.2510   45.8280 C.ar  1415  HEM1415     0.0000
     36  C3D       26.8430    1.7530   47.0010 C.ar  1415  HEM1415     0.0000
     37  C4D       25.4930    1.8670   46.4990 C.ar  1415  HEM1415     0.0000
     38  CMD       29.1790    0.9280   45.8200 C.3   1415  HEM1415     0.0000
     39  CAD       27.3140    2.0180   48.4480 C.3   1415  HEM1415     0.0000
     40  CBD       27.6660    3.4590   48.7700 C.3   1415  HEM1415     0.0000
     41  CGD       28.0510    3.5310   50.2280 C.2   1415  HEM1415     0.0000
     42  O1D       28.7640    4.4760   50.5800 O.co2 1415  HEM1415     0.0000
     43  O2D       27.6690    2.6490   51.0350 O.co2 1415  HEM1415     0.0000
@<TRIPOS>BOND
     1    30    27    1
     2    24    23    2
     3    23    20    1
     4    27    28    2
     5    27    26    1
     6    31    28    1
     7    31    32    2
     8     4    26    2
     9     4    21    1
    10    28    29    1
    11    20    21   ar
    12    20    19   ar
    13    26    25    1
    14    21    17   ar
    15    19    22    1
    16    19    18   ar
    17    29    25    2
    18    29     5    1
    19    25     1    1
    20    17    18   ar
    21    17     1    1
    22    18     3    1
    23     5    34    2
    24     1    33    1
    25     1     6    1
    26     3    10    2
    27    34    33   ar
    28    34    35   ar
    29    33    37   ar
    30     6    10    1
    31     6     7    2
    32    10     9    1
    33    38    35    1
    34    35    36   ar
    35    37    36   ar
    36    37     2    2
    37     7     2    1
    38     7     8    1
    39    36    39    1
    40     9    11    1
    41     9     8    2
    42     8    12    1
    43    39    40    1
    44    40    41    1
    45    12    13    1
    46    13    14    1
    47    41    42   ar
    48    41    43   ar
    49    14    15   ar
    50    14    16   ar
