@<TRIPOS>MOLECULE
1uyx_BGC_A_1.pdb
 11 11 0 0 0
SMALL
GASTEIGER

@<TRIPOS>ATOM
      1  C2        19.5430  -13.4870   34.3490 C.3   1131  BGC1131     0.2141
      2  C3        20.7070  -13.3770   35.3270 C.3   1131  BGC1131     0.2173
      3  C4        21.8130  -12.5330   34.7140 C.3   1131  BGC1131     0.2142
      4  C5        21.2250  -11.1790   34.3280 C.3   1131  BGC1131     0.1810
      5  C6        22.2570  -10.1610   33.8380 C.3   1131  BGC1131     0.2141
      6  C1        19.1150  -12.1230   33.8140 C.3   1131  BGC1131     0.1777
      7  O2        18.4430  -14.1070   34.9820 O.3   1131  BGC1131    -0.2176
      8  O3        21.1970  -14.6590   35.6240 O.3   1131  BGC1131    -0.2175
      9  O4        22.8480  -12.3780   35.6600 O.3   1131  BGC1131    -0.2176
     10  O5        20.2250  -11.3810   33.3430 O.3   1131  BGC1131    -0.3481
     11  O6        22.8400  -10.5860   32.6250 O.3   1131  BGC1131    -0.2176
@<TRIPOS>BOND
     1    11     5    1
     2    10     6    1
     3    10     4    1
     4     6     1    1
     5     5     4    1
     6     4     3    1
     7     1     7    1
     8     1     2    1
     9     3     2    1
    10     3     9    1
    11     2     8    1
