@<TRIPOS>MOLECULE
1uyy_BGC_A_1.pdb
 11 11 0 0 0
SMALL
GASTEIGER

@<TRIPOS>ATOM
      1  C2        19.4960  -13.5150   34.3080 C.3   1134  BGC1134     0.2141
      2  C3        20.6550  -13.4460   35.2980 C.3   1134  BGC1134     0.2173
      3  C4        21.7790  -12.5860   34.7390 C.3   1134  BGC1134     0.2142
      4  C5        21.2050  -11.2180   34.3780 C.3   1134  BGC1134     0.1810
      5  C6        22.2580  -10.2100   33.9140 C.3   1134  BGC1134     0.2141
      6  C1        19.0930  -12.1350   33.7920 C.3   1134  BGC1134     0.1777
      7  O2        18.3870  -14.1250   34.9330 O.3   1134  BGC1134    -0.2176
      8  O3        21.1330  -14.7460   35.5610 O.3   1134  BGC1134    -0.2175
      9  O4        22.7860  -12.4600   35.7140 O.3   1134  BGC1134    -0.2176
     10  O5        20.2210  -11.3880   33.3790 O.3   1134  BGC1134    -0.3481
     11  O6        22.8430  -10.6280   32.7010 O.3   1134  BGC1134    -0.2176
@<TRIPOS>BOND
     1    11     5    1
     2    10     6    1
     3    10     4    1
     4     6     1    1
     5     5     4    1
     6     1     7    1
     7     1     2    1
     8     4     3    1
     9     3     2    1
    10     3     9    1
    11     2     8    1
