@<TRIPOS>MOLECULE
1uyz_XYP_A_1.pdb
 10 10 0 0 0
SMALL
GASTEIGER

@<TRIPOS>ATOM
      1  O4A       16.2990   -5.4050   23.3160 O.3   1137  XYP1137    -0.1869
      2  C1B       16.3550   -5.4550   21.9150 C.3   1137  XYP1137     0.3024
      3  C2B       15.0810   -6.1070   21.4390 C.3   1137  XYP1137     0.2434
      4  C3B       15.0660   -6.1230   19.9220 C.3   1137  XYP1137     0.2199
      5  C4B       15.2580   -4.7020   19.4070 C.3   1137  XYP1137     0.2143
      6  C5B       16.5070   -4.1010   20.0480 C.3   1137  XYP1137     0.1804
      7  O2B       14.9740   -7.4270   21.9460 O.3   1137  XYP1137    -0.2148
      8  O3B       13.8270   -6.6380   19.4820 O.3   1137  XYP1137    -0.2174
      9  O4B       15.4330   -4.7560   18.0040 O.3   1137  XYP1137    -0.2176
     10  O5B       16.4120   -4.1730   21.4590 O.3   1137  XYP1137    -0.3237
@<TRIPOS>BOND
     1     9     5    1
     2     5     4    1
     3     5     6    1
     4     8     4    1
     5     4     3    1
     6     6    10    1
     7     3     2    1
     8     3     7    1
     9    10     2    1
    10     2     1    1
