@<TRIPOS>MOLECULE
1uz0_BGC_A_1.pdb
 11 11 0 0 0
SMALL
GASTEIGER

@<TRIPOS>ATOM
      1  C2        11.4110   18.6160   22.5580 C.3   1134  BGC1134     0.2141
      2  C3        11.5050   19.9770   23.2440 C.3   1134  BGC1134     0.2173
      3  C4        10.7630   21.0420   22.4550 C.3   1134  BGC1134     0.2142
      4  C5         9.3280   20.5780   22.1880 C.3   1134  BGC1134     0.1810
      5  C6         8.5320   21.6130   21.4040 C.3   1134  BGC1134     0.2141
      6  C1         9.9480   18.2880   22.2250 C.3   1134  BGC1134     0.1777
      7  O2        11.9120   17.5700   23.3740 O.3   1134  BGC1134    -0.2176
      8  O3        12.8760   20.2720   23.5010 O.3   1134  BGC1134    -0.2175
      9  O4        10.6610   22.2780   23.1590 O.3   1134  BGC1134    -0.2176
     10  O5         9.3440   19.3490   21.5130 O.3   1134  BGC1134    -0.3481
     11  O6         9.1430   21.8470   20.1590 O.3   1134  BGC1134    -0.2176
@<TRIPOS>BOND
     1    11     5    1
     2     5     4    1
     3    10     4    1
     4    10     6    1
     5     4     3    1
     6     6     1    1
     7     3     9    1
     8     3     2    1
     9     1     2    1
    10     1     7    1
    11     2     8    1
