@<TRIPOS>MOLECULE
1uz1_IFL_A_1.pdb
 11 11 0 0 0
SMALL
GASTEIGER

@<TRIPOS>ATOM
      1  O4        -1.5610   10.6260    6.7960 O.3   1446  IFL1446    -0.2190
      2  C4        -1.1240   10.5480    8.1480 C.3   1446  IFL1446     0.2026
      3  C3        -0.4190   11.8890    8.4310 C.3   1446  IFL1446     0.2861
      4  O3         0.8280   12.0360    7.7460 O.3   1446  IFL1446    -0.2022
      5  C2        -0.1070   12.0550    9.9230 C.1   1446  IFL1446     0.1593
      6  N         -0.6710   11.2010   10.8100 N.2   1446  IFL1446    -0.2040
      7  C7        -1.5830   10.0950   10.5180 C.3   1446  IFL1446     0.1428
      8  C5        -2.2760   10.3720    9.1700 C.3   1446  IFL1446     0.0923
      9  C6        -3.2460    9.2490    8.8270 C.3   1446  IFL1446     0.1867
     10  O6        -2.5440    8.0100    8.9160 O.3   1446  IFL1446    -0.2203
     11  O2         0.6250   12.9670   10.2500 O.2   1446  IFL1446    -0.2244
@<TRIPOS>BOND
     1     1     2    1
     2     4     3    1
     3     2     3    1
     4     2     8    1
     5     3     5    1
     6     9    10    1
     7     9     8    1
     8     8     7    1
     9     5    11    2
    10     5     6    2
    11     7     6    1
