@<TRIPOS>MOLECULE
1uz4_IFL_A_1.pdb
 11 11 0 0 0
SMALL
GASTEIGER

@<TRIPOS>ATOM
      1  O4        73.7830   13.6110   34.8480 O.3   1432  IFL1432    -0.2190
      2  C4        74.1710   12.7470   33.8070 C.3   1432  IFL1432     0.2026
      3  C3        73.0980   12.9000   32.6800 C.3   1432  IFL1432     0.2861
      4  O3        72.1200   11.8380   32.7920 O.3   1432  IFL1432    -0.2022
      5  C2        73.6370   12.7820   31.2260 C.1   1432  IFL1432     0.1593
      6  N         74.8610   12.2400   31.0840 N.2   1432  IFL1432    -0.2040
      7  C7        75.8340   12.0650   32.1660 C.3   1432  IFL1432     0.1428
      8  C5        75.5890   13.0490   33.3080 C.3   1432  IFL1432     0.0923
      9  C6        76.7530   12.9580   34.3400 C.3   1432  IFL1432     0.1867
     10  O6        76.7790   11.6340   34.9250 O.3   1432  IFL1432    -0.2203
     11  O2        72.8590   12.9750   30.2750 O.2   1432  IFL1432    -0.2244
@<TRIPOS>BOND
     1    11     5    2
     2     6     5    2
     3     6     7    1
     4     5     3    1
     5     7     8    1
     6     3     4    1
     7     3     2    1
     8     8     2    1
     9     8     9    1
    10     2     1    1
    11     9    10    1
