@<TRIPOS>MOLECULE
1uz8_FUC_A_1.pdb
 10 10 0 0 0
SMALL
GASTEIGER

@<TRIPOS>ATOM
      1  C1        -0.8750   19.2240   19.6950 C.3   1215  FUC1215     0.1776
      2  C2        -1.8760   20.2430   20.2160 C.3   1215  FUC1215     0.2141
      3  C3        -2.3420   21.1100   19.0540 C.3   1215  FUC1215     0.2172
      4  C4        -2.9840   20.2340   17.9900 C.3   1215  FUC1215     0.2116
      5  C5        -2.0420   19.1000   17.5960 C.3   1215  FUC1215     0.1483
      6  C6        -2.7430   18.1080   16.6690 C.3   1215  FUC1215     0.0349
      7  O2        -1.2570   21.0010   21.2320 O.3   1215  FUC1215    -0.2176
      8  O3        -3.2630   22.0920   19.4740 O.3   1215  FUC1215    -0.2175
      9  O4        -4.2070   19.7070   18.4510 O.3   1215  FUC1215    -0.2177
     10  O5        -1.5300   18.4250   18.7300 O.3   1215  FUC1215    -0.3508
@<TRIPOS>BOND
     1     6     5    1
     2     5     4    1
     3     5    10    1
     4     4     9    1
     5     4     3    1
     6    10     1    1
     7     3     8    1
     8     3     2    1
     9     1     2    1
    10     2     7    1
