@<TRIPOS>MOLECULE
1uz8_GAL_A_1.pdb
 11 11 0 0 0
SMALL
GASTEIGER

@<TRIPOS>ATOM
      1  C1         1.3190   19.8570   15.8280 C.3   1214  GAL1214     0.1777
      2  C2         0.6340   19.2030   14.6300 C.3   1214  GAL1214     0.2141
      3  C3         0.3530   20.2150   13.5260 C.3   1214  GAL1214     0.2173
      4  C4        -0.3920   21.3930   14.1230 C.3   1214  GAL1214     0.2142
      5  C5         0.3980   21.9610   15.2940 C.3   1214  GAL1214     0.1810
      6  C6        -0.2990   23.1690   15.9060 C.3   1214  GAL1214     0.2141
      7  O2         1.4510   18.1910   14.1010 O.3   1214  GAL1214    -0.2176
      8  O3        -0.4270   19.6390   12.4980 O.3   1214  GAL1214    -0.2175
      9  O4        -1.6670   20.9540   14.5310 O.3   1214  GAL1214    -0.2176
     10  O5         0.5640   20.9600   16.2710 O.3   1214  GAL1214    -0.3481
     11  O6         0.4940   23.6320   16.9750 O.3   1214  GAL1214    -0.2176
@<TRIPOS>BOND
     1     8     3    1
     2     3     4    1
     3     3     2    1
     4     7     2    1
     5     4     9    1
     6     4     5    1
     7     2     1    1
     8     5     6    1
     9     5    10    1
    10     1    10    1
    11     6    11    1
