@<TRIPOS>MOLECULE
1uz8_MAG_A_1.pdb
 16 16 0 0 0
SMALL
GASTEIGER

@<TRIPOS>ATOM
      1  C1         3.7450   18.8730   20.3630 C.3   1213  MAG1213     0.2586
      2  C2         2.3090   19.3940   20.4620 C.3   1213  MAG1213     0.1842
      3  C3         1.4510   19.1240   19.2320 C.3   1213  MAG1213     0.2094
      4  C4         2.2380   19.3440   17.9460 C.3   1213  MAG1213     0.2136
      5  C5         3.5480   18.5690   18.0430 C.3   1213  MAG1213     0.1834
      6  C6         4.3490   18.6230   16.7480 C.3   1213  MAG1213     0.2142
      7  C7         1.7470   19.2360   22.8160 C.2   1213  MAG1213     0.2420
      8  C8         1.3500   18.3040   23.9220 C.3   1213  MAG1213     0.0964
      9  N2         1.6580   18.7490   21.5860 N.am  1213  MAG1213    -0.1992
     10  O1         4.5190   19.5360   21.3430 O.3   1213  MAG1213    -0.3265
     11  O3         0.2900   19.9270   19.2290 O.3   1213  MAG1213    -0.2183
     12  O4         1.4580   18.8710   16.8690 O.3   1213  MAG1213    -0.2176
     13  O5         4.3270   19.0990   19.0930 O.3   1213  MAG1213    -0.3262
     14  O6         4.7940   19.9420   16.5280 O.3   1213  MAG1213    -0.2176
     15  O7         2.1430   20.3750   23.0470 O.2   1213  MAG1213    -0.2733
     16  CM         5.8280   19.0590   21.6280 C.3   1213  MAG1213     0.1769
@<TRIPOS>BOND
     1    14     6    1
     2     6     5    1
     3    12     4    1
     4     4     5    1
     5     4     3    1
     6     5    13    1
     7    13     1    1
     8    11     3    1
     9     3     2    1
    10     1     2    1
    11     1    10    1
    12     2     9    1
    13    10    16    1
    14     9     7   am
    15     7    15    2
    16     7     8    1
