@<TRIPOS>MOLECULE
1uzd_CAP_A_1.pdb
 21 20 0 0 0
SMALL
GASTEIGER

@<TRIPOS>ATOM
      1  C1        27.4540   44.4990   47.1420 C.3   1477  CAP1477     0.1978
      2  C2        28.1640   44.9200   45.8500 C.3   1477  CAP1477     0.2763
      3  C3        28.5720   43.7350   44.9740 C.3   1477  CAP1477     0.2253
      4  C4        27.4030   43.1050   44.2180 C.3   1477  CAP1477     0.2152
      5  C5        27.8900   42.2230   43.0830 C.3   1477  CAP1477     0.1892
      6  C         27.3220   45.9030   45.0170 C.2   1477  CAP1477     0.3967
      7  O1        27.1440   45.6390   47.9130 O.3   1477  CAP1477    -0.2669
      8  O2        29.4190   45.5780   46.2120 O.3   1477  CAP1477    -0.2086
      9  O3        29.5640   44.2220   44.0720 O.3   1477  CAP1477    -0.2170
     10  O4        26.6670   42.2970   45.1060 O.3   1477  CAP1477    -0.2176
     11  O5        26.8160   41.4230   42.6900 O.3   1477  CAP1477    -0.2674
     12  O6        27.9510   46.6360   43.9980 O.co2 1477  CAP1477    -0.2428
     13  O7        26.0390   46.0840   45.2260 O.co2 1477  CAP1477    -0.2428
     14  P1        26.2150   45.5180   49.2200 P.3   1477  CAP1477     0.5327
     15  P2        26.9260   39.8210   42.5250 P.3   1477  CAP1477     0.5327
     16  O1P       26.1330   46.8070   49.9760 O.3   1477  CAP1477    -0.1145
     17  O2P       26.7990   44.4680   50.1390 O.3   1477  CAP1477    -0.1145
     18  O3P       24.8410   45.0750   48.7160 O.2   1477  CAP1477    -0.2224
     19  O4P       25.5510   39.3890   42.2610 O.3   1477  CAP1477    -0.1145
     20  O5P       27.5450   39.2550   43.8240 O.3   1477  CAP1477    -0.1145
     21  O6P       27.7410   39.4900   41.2870 O.2   1477  CAP1477    -0.2224
@<TRIPOS>BOND
     1    21    15    2
     2    19    15    1
     3    15    11    1
     4    15    20    1
     5    11     5    1
     6     5     4    1
     7    12     6   ar
     8     9     3    1
     9     4     3    1
    10     4    10    1
    11     3     2    1
    12     6    13   ar
    13     6     2    1
    14     2     8    1
    15     2     1    1
    16     1     7    1
    17     7    14    1
    18    18    14    2
    19    14    16    1
    20    14    17    1
