@<TRIPOS>MOLECULE
1uze_EAL_A_1.pdb
 25 26 0 0 0
SMALL
GASTEIGER

@<TRIPOS>ATOM
      1  O1        40.1920   34.0940   44.9270 O.2   3002  EAL3002    -0.2733
      2  O2        43.2850   36.5220   48.1860 O.co2 3002  EAL3002    -0.2437
      3  O3        41.9880   37.6940   46.9090 O.co2 3002  EAL3002    -0.2437
      4  O4        38.8040   33.6840   41.7050 O.co2 3002  EAL3002    -0.2434
      5  O5        40.6740   32.5860   42.1270 O.co2 3002  EAL3002    -0.2434
      6  N1        41.7710   34.4720   47.1180 N.3   3002  EAL3002    -0.1964
      7  N2        41.7570   34.8740   43.4350 N.am  3002  EAL3002    -0.2627
      8  C1        41.4150   34.3910   44.6760 C.2   3002  EAL3002     0.2423
      9  C2        42.4920   34.1960   45.8130 C.3   3002  EAL3002     0.1499
     10  C3        42.2070   36.6640   47.5300 C.2   3002  EAL3002     0.3844
     11  C4        41.1980   35.5090   47.4850 C.3   3002  EAL3002     0.1984
     12  C5        40.6840   35.0230   42.3630 C.3   3002  EAL3002     0.2018
     13  C6        41.5090   35.5880   41.1790 C.2   3002  EAL3002     0.0019
     14  C7        42.8210   35.7280   41.5570 C.2   3002  EAL3002    -0.0070
     15  C8        43.0940   35.3080   42.9330 C.3   3002  EAL3002     0.1204
     16  C9        40.0410   33.6030   42.0400 C.2   3002  EAL3002     0.3867
     17  C10       43.0740   32.7750   45.7120 C.3   3002  EAL3002     0.0287
     18  C14       40.5060   35.7720   48.7790 C.2   3002  EAL3002     0.0022
     19  C15       39.3030   36.6650   49.0290 C.2   3002  EAL3002    -0.0026
     20  C16       38.7470   36.7910   50.4110 C.ar  3002  EAL3002    -0.0003
     21  C17       38.5240   35.6000   51.2570 C.ar  3002  EAL3002    -0.0000
     22  C18       37.9710   35.7450   52.5950 C.ar  3002  EAL3002    -0.0000
     23  C19       37.6300   37.0810   53.1110 C.ar  3002  EAL3002    -0.0000
     24  C20       37.8500   38.2740   52.2740 C.ar  3002  EAL3002    -0.0000
     25  C21       38.4070   38.1300   50.9260 C.ar  3002  EAL3002    -0.0000
@<TRIPOS>BOND
     1    13    14    2
     2    13    12    1
     3    14    15    1
     4     4    16   ar
     5    16     5   ar
     6    16    12    1
     7    12     7    1
     8    15     7    1
     9     7     8   am
    10     8     1    2
    11     8     9    1
    12    17     9    1
    13     9     6    1
    14     3    10   ar
    15     6    11    1
    16    11    10    1
    17    11    18    1
    18    10     2   ar
    19    18    19    2
    20    19    20    1
    21    20    25   ar
    22    20    21   ar
    23    25    24   ar
    24    21    22   ar
    25    24    23   ar
    26    22    23   ar
