@<TRIPOS>MOLECULE
1uzf_MCO_A_1.pdb
 14 14 0 0 0
SMALL
GASTEIGER

@<TRIPOS>ATOM
      1  O2        38.6980   33.1690   41.8830 O.co2 702  MCO702     -0.2438
      2  C9        39.9160   33.4270   42.2730 C.2   702  MCO702      0.3825
      3  O3        40.4030   32.3520   42.7930 O.co2 702  MCO702     -0.2438
      4  C8        40.8480   34.3440   42.3470 C.3   702  MCO702      0.1790
      5  C7        41.4800   34.8300   41.0340 C.3   702  MCO702      0.0332
      6  C6        42.8290   35.1940   41.5080 C.3   702  MCO702      0.0238
      7  C5        42.3760   35.7750   42.8480 C.3   702  MCO702      0.0939
      8  N         41.3510   34.8870   43.4710 N.am  702  MCO702     -0.2713
      9  C4        41.0140   34.6870   44.7540 C.2   702  MCO702      0.2264
     10  O1        39.8720   34.4010   45.0870 O.2   702  MCO702     -0.2748
     11  C2        42.4780   34.9530   45.6170 C.3   702  MCO702      0.0883
     12  C3        42.9610   33.9310   45.8600 C.3   702  MCO702      0.0105
     13  C1        41.9940   35.7640   46.8270 C.3   702  MCO702      0.0777
     14  S         42.9730   36.4110   48.1790 S.3   702  MCO702     -0.0816
@<TRIPOS>BOND
     1     5     6    1
     2     5     4    1
     3     6     7    1
     4     1     2   ar
     5     2     4    1
     6     2     3   ar
     7     4     8    1
     8     7     8    1
     9     8     9   am
    10     9    10    2
    11     9    11    1
    12    11    12    1
    13    11    13    1
    14    13    14    1
