@<TRIPOS>MOLECULE
1uzh_CAP_A_1.pdb
 21 20 0 0 0
SMALL
GASTEIGER

@<TRIPOS>ATOM
      1  C1        27.4640   44.9350   47.0010 C.3   477  CAP477      0.1978
      2  C2        28.2590   45.3360   45.7650 C.3   477  CAP477      0.2763
      3  C3        28.7320   44.1060   44.9820 C.3   477  CAP477      0.2253
      4  C4        27.5630   43.2920   44.4110 C.3   477  CAP477      0.2152
      5  C5        27.8760   42.6430   43.0590 C.3   477  CAP477      0.1892
      6  C         27.4880   46.3280   44.8970 C.2   477  CAP477      0.3967
      7  O1        27.3130   46.0850   47.7970 O.3   477  CAP477     -0.2669
      8  O2        29.4330   46.0890   46.1840 O.3   477  CAP477     -0.2086
      9  O3        29.6530   44.5290   43.9820 O.3   477  CAP477     -0.2170
     10  O4        27.2720   42.3100   45.3820 O.3   477  CAP477     -0.2176
     11  O5        26.8020   41.7820   42.7040 O.3   477  CAP477     -0.2674
     12  O6        26.1870   46.4900   44.9790 O.co2 477  CAP477     -0.2428
     13  O7        28.1930   47.1280   43.9880 O.co2 477  CAP477     -0.2428
     14  P1        26.4550   45.9720   49.1320 P.3   477  CAP477      0.5327
     15  P2        26.9740   40.1800   42.5720 P.3   477  CAP477      0.5327
     16  O1P       26.3080   47.3380   49.6680 O.3   477  CAP477     -0.1145
     17  O2P       25.0820   45.3520   48.7560 O.2   477  CAP477     -0.2224
     18  O3P       27.2060   45.0780   50.1400 O.3   477  CAP477     -0.1145
     19  O4P       25.6310   39.5170   42.4160 O.3   477  CAP477     -0.1145
     20  O5P       27.6710   39.6600   43.7890 O.3   477  CAP477     -0.1145
     21  O6P       27.8420   39.8600   41.3420 O.2   477  CAP477     -0.2224
@<TRIPOS>BOND
     1    21    15    2
     2    19    15    1
     3    15    11    1
     4    15    20    1
     5    11     5    1
     6     5     4    1
     7     9     3    1
     8    13     6   ar
     9     4     3    1
    10     4    10    1
    11     6    12   ar
    12     6     2    1
    13     3     2    1
    14     2     8    1
    15     2     1    1
    16     1     7    1
    17     7    14    1
    18    17    14    2
    19    14    16    1
    20    14    18    1
