@<TRIPOS>MOLECULE
1uzi_V4O_A_1.pdb
 16 16 0 0 0
SMALL
GASTEIGER

@<TRIPOS>ATOM
      1  V1        58.2020   11.6720   30.6330 V     1001  V4O1001     0.0000
      2  O0        58.5010   10.1160   31.1490 O.3   1001  V4O1001     0.0000
      3  O1        56.6040   11.8430   30.2930 O.3   1001  V4O1001     0.0000
      4  V2        60.0170   13.4440   28.6450 V     1001  V4O1001     0.0000
      5  O2        58.9290   14.7030   28.8100 O.3   1001  V4O1001     0.0000
      6  O3        59.2400   11.9240   29.1910 O.3   1001  V4O1001     0.0000
      7  O4        60.5020   13.2260   27.0780 O.3   1001  V4O1001     0.0000
      8  V3        61.6390   15.1870   30.9520 V     1001  V4O1001     0.0000
      9  O5        63.1990   15.7110   31.0190 O.3   1001  V4O1001     0.0000
     10  O6        61.4260   13.8880   29.7070 O.3   1001  V4O1001     0.0000
     11  O7        60.6850   16.5140   30.6090 O.3   1001  V4O1001     0.0000
     12  V4        60.1200   13.0600   32.9220 V     1001  V4O1001     0.0000
     13  O8        61.1130   14.5040   32.5280 O.3   1001  V4O1001     0.0000
     14  O9        58.6620   12.9270   31.8580 O.3   1001  V4O1001     0.0000
     15  O10       59.7350   13.1130   34.5190 O.3   1001  V4O1001     0.0000
     16  O11       61.0180   11.6860   32.6220 O.3   1001  V4O1001     0.0000
@<TRIPOS>BOND
     1     7     4    1
     2     4     5    1
     3     4     6    1
     4     4    10    1
     5     6     1    1
     6    10     8    1
     7     3     1    1
     8    11     8    1
     9     1     2    1
    10     1    14    1
    11     8     9    1
    12     8    13    1
    13    14    12    1
    14    13    12    1
    15    16    12    1
    16    12    15    1
