@<TRIPOS>MOLECULE
1uzn_NAP_A_1.pdb
 30 32 0 0 0
SMALL
GASTEIGER

@<TRIPOS>ATOM
      1  PA         3.8410   17.5220   18.8990 P.3   1249  NAP1249     0.2204
      2  O1A        2.5230   17.8830   18.3310 O.2   1249  NAP1249    -0.5170
      3  O2A        3.7960   17.3820   20.4350 O.3   1249  NAP1249    -0.4371
      4  O5B        4.8870   18.6630   18.4800 O.3   1249  NAP1249    -0.3112
      5  C5B        5.0240   19.0570   17.1350 C.3   1249  NAP1249     0.1813
      6  C4B        6.4690   19.4650   16.8930 C.3   1249  NAP1249     0.1820
      7  O4B        6.6010   20.0160   15.6000 O.3   1249  NAP1249    -0.3136
      8  C3B        6.9020   20.5420   17.8730 C.3   1249  NAP1249     0.2157
      9  O3B        8.2220   20.3080   18.3130 O.3   1249  NAP1249    -0.2175
     10  C2B        6.7580   21.8220   17.0720 C.3   1249  NAP1249     0.2314
     11  O2B        7.6440   22.8480   17.4540 O.3   1249  NAP1249    -0.2630
     12  C1B        7.0360   21.3630   15.6560 C.3   1249  NAP1249     0.3158
     13  N9A        6.3380   22.2240   14.6840 N.pl3 1249  NAP1249    -0.1439
     14  C8A        4.9910   22.2480   14.3990 C.3   1249  NAP1249     0.3377
     15  N7A        4.7720   23.1830   13.4400 N.2   1249  NAP1249    -0.2095
     16  C5A        5.9530   23.7510   13.1190 C.2   1249  NAP1249     0.2526
     17  C6A        6.2930   24.7500   12.2140 C.2   1249  NAP1249     0.4393
     18  N6A        5.4940   24.9880   11.1790 N.pl3 1249  NAP1249     0.2180
     19  N1A        7.6180   25.1230   12.1280 N.2   1249  NAP1249     0.0021
     20  C2A        8.5960   24.5210   12.8870 C.3   1249  NAP1249     0.5254
     21  N3A        8.2460   23.5340   13.7840 N.2   1249  NAP1249    -0.0055
     22  C4A        6.9470   23.1580   13.8930 C.2   1249  NAP1249     0.3518
     23  O3         4.4190   16.1890   18.1850 O.3   1249  NAP1249    -0.2513
     24  PN         4.4240   14.7370   18.8960 P.3   1249  NAP1249     0.3991
     25  O1N        3.1780   14.0370   18.5010 O.3   1249  NAP1249    -0.1422
     26  O2N        4.7620   14.8770   20.3300 O.3   1249  NAP1249    -0.1422
     27  P2B        7.1310   24.1510   18.2590 P.3   1249  NAP1249     0.5328
     28  O1X        7.2380   25.3310   17.3840 O.2   1249  NAP1249    -0.2224
     29  O2X        8.0490   24.3360   19.4790 O.3   1249  NAP1249    -0.1145
     30  O3X        5.6540   24.0060   18.6810 O.3   1249  NAP1249    -0.1145
@<TRIPOS>BOND
     1    18    17    1
     2    19    17    2
     3    19    20    1
     4    17    16    1
     5    20    21    1
     6    16    15    2
     7    16    22    1
     8    15    14    1
     9    21    22    2
    10    22    13    1
    11    14    13    1
    12    13    12    1
    13     7    12    1
    14     7     6    1
    15    12    10    1
    16     6     5    1
    17     6     8    1
    18    10    11    1
    19    10     8    1
    20     5     4    1
    21    28    27    2
    22    11    27    1
    23     8     9    1
    24    23    24    1
    25    23     1    1
    26    27    30    1
    27    27    29    1
    28     2     1    2
    29     4     1    1
    30    25    24    1
    31    24    26    1
    32     1     3    1
