@<TRIPOS>MOLECULE
1uzu_PLP_A_1.pdb
 15 15 0 0 0
SMALL
GASTEIGER

@<TRIPOS>ATOM
      1  N1        24.6750   25.5890   30.3330 N.ar  999  PLP999     -0.2452
      2  C2        23.5670   24.8430   30.5700 C.ar  999  PLP999      0.0978
      3  C2A       22.6280   25.2780   31.7330 C.3   999  PLP999      0.0555
      4  C3        23.3460   23.6850   29.8410 C.ar  999  PLP999      0.2049
      5  O3        22.2690   22.8560   30.1490 O.3   999  PLP999     -0.2857
      6  C4        24.2620   23.3020   28.8710 C.ar  999  PLP999      0.0182
      7  C4A       24.0420   21.9380   28.0780 C.3   999  PLP999      0.0342
      8  C5        25.3990   24.1050   28.6580 C.ar  999  PLP999      0.0261
      9  C6        25.5750   25.2290   29.4010 C.ar  999  PLP999      0.0965
     10  C5A       26.4440   23.8330   27.5310 C.3   999  PLP999      0.1815
     11  O4P       26.0320   24.5210   26.3480 O.3   999  PLP999     -0.2653
     12  P         26.9920   24.7710   25.0910 P.3   999  PLP999      0.5329
     13  O1P       26.1860   25.5000   24.1080 O.2   999  PLP999     -0.2224
     14  O2P       28.1190   25.7410   25.6280 O.3   999  PLP999     -0.1145
     15  O3P       27.6640   23.4900   24.7170 O.3   999  PLP999     -0.1145
@<TRIPOS>BOND
     1    13    12    2
     2    15    12    1
     3    12    14    1
     4    12    11    1
     5    11    10    1
     6    10     8    1
     7     7     6    1
     8     8     6   ar
     9     8     9   ar
    10     6     4   ar
    11     9     1   ar
    12     4     5    1
    13     4     2   ar
    14     1     2   ar
    15     2     3    1
