@<TRIPOS>MOLECULE
1uzu_INR_A_1.pdb
 24 27 0 0 0
SMALL
GASTEIGER

@<TRIPOS>ATOM
      1  C1        38.3850   35.9040   29.5630 C.2   1000  INR1000     0.1341
      2  C2        39.3310   36.9690   29.6460 C.2   1000  INR1000     0.0672
      3  C6        38.1100   35.2970   28.3030 C.2   1000  INR1000     0.0279
      4  N7        37.8410   35.5920   30.7680 N.2   1000  INR1000    -0.3978
      5  C3        40.0610   37.5080   28.5310 C.2   1000  INR1000    -0.0156
      6  C8        39.2990   37.2800   31.0840 C.2   1000  INR1000     0.2278
      7  C4        39.7710   36.8830   27.2650 C.3   1000  INR1000     0.0523
      8  C5        38.8200   35.8100   27.1760 C.2   1000  INR1000    -0.0188
      9  O10       39.9560   38.1360   31.6260 O.2   1000  INR1000    -0.2837
     10  C9        38.3090   36.3430   31.7410 C.2   1000  INR1000     0.1820
     11  C11       37.9370   36.2500   33.0620 C.2   1000  INR1000     0.1298
     12  C12       36.8920   35.2170   33.5720 C.1   1000  INR1000     0.2074
     13  C15       38.3180   36.9730   34.3230 C.ar  1000  INR1000     0.0464
     14  O13       36.3770   34.4490   32.7460 O.2   1000  INR1000    -0.2092
     15  N14       36.7690   35.3870   34.8440 N.2   1000  INR1000    -0.3328
     16  C16       37.5390   36.3620   35.3580 C.ar  1000  INR1000     0.1452
     17  C20       39.2090   38.0390   34.6580 C.ar  1000  INR1000     0.0223
     18  C19       39.3060   38.4750   36.0230 C.ar  1000  INR1000     0.1125
     19  C18       38.5350   37.8790   37.0920 C.ar  1000  INR1000     0.0215
     20  S21       40.4790   39.8350   36.2920 S.3   1000  INR1000     0.0421
     21  C17       37.6410   36.7990   36.7130 C.ar  1000  INR1000     0.0344
     22  O24       40.2010   40.4900   37.6340 O.3   1000  INR1000    -0.0650
     23  O23       40.3070   40.8330   35.2290 O.3   1000  INR1000    -0.0650
     24  O22       41.8440   39.3210   36.2690 O.3   1000  INR1000    -0.0650
@<TRIPOS>BOND
     1     8     7    1
     2     8     3    2
     3     7     5    1
     4     3     1    1
     5     5     2    2
     6     1     2    1
     7     1     4    2
     8     2     6    1
     9     4    10    2
    10     6     9    2
    11     6    10    1
    12    10    11    1
    13    14    12    2
    14    11    12    1
    15    11    13    2
    16    12    15    2
    17    13    17   ar
    18    13    16   ar
    19    17    18   ar
    20    15    16    2
    21    23    20    1
    22    16    21   ar
    23    18    20    1
    24    18    19   ar
    25    24    20    1
    26    20    22    1
    27    21    19   ar
