@<TRIPOS>MOLECULE
1uzv_FUC_A_1.pdb
 11 11 0 0 0
SMALL
GASTEIGER

@<TRIPOS>ATOM
      1  C1        29.0340   17.3370   59.9440 C.3   999  FUC999      0.3023
      2  C2        28.1440   18.2060   59.0890 C.3   999  FUC999      0.2434
      3  C3        27.9610   19.5320   59.7740 C.3   999  FUC999      0.2198
      4  C4        29.2650   20.1980   60.1190 C.3   999  FUC999      0.2118
      5  C5        30.1450   19.2500   60.8970 C.3   999  FUC999      0.1509
      6  C6        31.5470   19.7870   61.1380 C.3   999  FUC999      0.0350
      7  O1        28.3300   17.0010   61.1220 O.3   999  FUC999     -0.1869
      8  O2        26.8610   17.6510   58.7960 O.3   999  FUC999     -0.2148
      9  O3        27.1620   20.3720   58.9140 O.3   999  FUC999     -0.2174
     10  O4        29.8440   20.5800   58.8430 O.3   999  FUC999     -0.2177
     11  O5        30.2740   17.9620   60.1780 O.3   999  FUC999     -0.3264
@<TRIPOS>BOND
     1     8     2    1
     2    10     4    1
     3     9     3    1
     4     2     3    1
     5     2     1    1
     6     3     4    1
     7     1    11    1
     8     1     7    1
     9     4     5    1
    10    11     5    1
    11     5     6    1
