@<TRIPOS>MOLECULE
1uzw_CDH_A_1.pdb
 24 23 0 0 0
SMALL
GASTEIGER

@<TRIPOS>ATOM
      1  O43        4.3640   36.1690    5.2170 O.co2 1333  CDH1333    -0.2434
      2  C31        5.2040   37.0740    5.3790 C.2   1333  CDH1333     0.3881
      3  O42        5.1190   37.9120    6.3000 O.co2 1333  CDH1333    -0.2434
      4  C30        6.3800   37.1310    4.3910 C.3   1333  CDH1333     0.2161
      5  C32        5.9150   36.6220    2.9320 C.2   1333  CDH1333    -0.0136
      6  C37        4.7920   36.4910    2.4930 C.2   1333  CDH1333    -0.0069
      7  C33        7.0410   36.2650    1.9730 C.3   1333  CDH1333     0.0287
      8  N29        7.0940   38.3830    4.6110 N.am  1333  CDH1333    -0.1899
      9  C13        8.0390   38.5820    5.5600 C.2   1333  CDH1333     0.2629
     10  O18        7.9570   38.0450    6.6420 O.2   1333  CDH1333    -0.2714
     11  C12        9.1680   39.5460    5.1750 C.3   1333  CDH1333     0.1843
     12  C16        8.8690   40.3080    3.8640 C.3   1333  CDH1333     0.0997
     13  S          8.6720   39.2880    2.3550 S.3   1333  CDH1333    -0.0797
     14  N30       10.4070   38.7590    5.0650 N.am  1333  CDH1333    -0.1968
     15  C25       11.5480   39.0310    5.6970 C.2   1333  CDH1333     0.2418
     16  O25       11.4330   39.5490    6.8010 O.2   1333  CDH1333    -0.2733
     17  C24       12.8740   38.7200    5.0110 C.3   1333  CDH1333     0.0869
     18  C23       13.5560   37.5420    5.7250 C.3   1333  CDH1333     0.0117
     19  C22       14.9980   37.3030    5.1700 C.3   1333  CDH1333     0.0311
     20  C21       15.5520   36.1190    5.9750 C.3   1333  CDH1333     0.1943
     21  N31       15.1060   36.2990    7.5120 N.3   1333  CDH1333    -0.1208
     22  C20       17.0370   35.9260    5.6680 C.2   1333  CDH1333     0.3819
     23  O20       17.9090   36.1100    6.5600 O.co2 1333  CDH1333    -0.2441
     24  O21       17.2520   35.6390    4.5000 O.co2 1333  CDH1333    -0.2441
@<TRIPOS>BOND
     1     7     5    1
     2    13    12    1
     3     6     5    2
     4     5     4    1
     5    12    11    1
     6     4     8    1
     7     4     2    1
     8    24    22   ar
     9     8     9   am
    10    17    15    1
    11    17    18    1
    12    14    11    1
    13    14    15   am
    14    19    18    1
    15    19    20    1
    16    11     9    1
    17     1     2   ar
    18     2     3   ar
    19     9    10    2
    20    22    20    1
    21    22    23   ar
    22    15    16    2
    23    20    21    1
