@<TRIPOS>MOLECULE
1uzy_BGC_A_1.pdb
 11 11 0 0 0
SMALL
GASTEIGER

@<TRIPOS>ATOM
      1  C2        94.5340   52.6000   49.0080 C.3   1246  BGC1246     0.2409
      2  C3        93.4690   53.4780   48.3480 C.3   1246  BGC1246     0.1899
      3  C4        92.5650   54.0670   49.4390 C.3   1246  BGC1246     0.0681
      4  C5        93.4400   54.8990   50.4270 C.3   1246  BGC1246     0.1534
      5  C6        92.6240   55.4780   51.5730 C.3   1246  BGC1246     0.2116
      6  C1        95.3570   53.4670   49.9830 C.3   1246  BGC1246     0.3022
      7  O1        96.3190   52.6910   50.6030 O.3   1246  BGC1246    -0.1869
      8  O2        95.3920   52.0570   48.0110 O.3   1246  BGC1246    -0.2149
      9  O3        92.6910   52.6860   47.4580 O.3   1246  BGC1246    -0.2201
     10  O5        94.4870   54.0510   51.0060 O.3   1246  BGC1246    -0.3263
     11  O6        93.4200   56.3100   52.4000 O.3   1246  BGC1246    -0.2177
@<TRIPOS>BOND
     1     9     2    1
     2     8     1    1
     3     2     1    1
     4     2     3    1
     5     1     6    1
     6     3     4    1
     7     6     7    1
     8     6    10    1
     9     4    10    1
    10     4     5    1
    11     5    11    1
