@<TRIPOS>MOLECULE
1uzy_NAG_A_1.pdb
 14 14 0 0 0
SMALL
GASTEIGER

@<TRIPOS>ATOM
      1  C1        86.3090   72.9780   47.0460 C.3   1242  NAG1242     0.1665
      2  C2        86.0190   74.2790   47.7860 C.3   1242  NAG1242     0.1576
      3  C3        86.0200   75.4420   46.7910 C.3   1242  NAG1242     0.2069
      4  C4        87.3440   75.4700   46.0080 C.3   1242  NAG1242     0.2134
      5  C5        87.6700   74.0850   45.4150 C.3   1242  NAG1242     0.1809
      6  C6        89.0690   74.0370   44.8310 C.3   1242  NAG1242     0.2141
      7  C7        84.6830   74.1490   49.7870 C.2   1242  NAG1242     0.2420
      8  C8        83.3540   74.4960   50.4380 C.3   1242  NAG1242     0.0964
      9  N2        84.7370   74.1860   48.4590 N.am  1242  NAG1242    -0.2019
     10  O3        85.8440   76.6810   47.5080 O.3   1242  NAG1242    -0.2184
     11  O4        87.2530   76.4340   44.9370 O.3   1242  NAG1242    -0.2176
     12  O5        87.6020   73.0570   46.4340 O.3   1242  NAG1242    -0.3489
     13  O6        90.0120   74.6250   45.7170 O.3   1242  NAG1242    -0.2176
     14  O7        85.6520   73.8540   50.4890 O.2   1242  NAG1242    -0.2733
@<TRIPOS>BOND
     1     6     5    1
     2     6    13    1
     3    11     4    1
     4     5     4    1
     5     5    12    1
     6     4     3    1
     7    12     1    1
     8     3    10    1
     9     3     2    1
    10     1     2    1
    11     2     9    1
    12     9     7   am
    13     7     8    1
    14     7    14    2
