@<TRIPOS>MOLECULE
1uzy_GAL_A_1.pdb
 12 12 0 0 0
SMALL
GASTEIGER

@<TRIPOS>ATOM
      1  C1        90.2450   54.4210   48.7280 C.3   1245  GAL1245     0.3024
      2  C2        89.2930   55.5950   48.4320 C.3   1245  GAL1245     0.2434
      3  C3        87.8440   55.0770   48.2980 C.3   1245  GAL1245     0.2199
      4  C4        87.7620   54.0390   47.1530 C.3   1245  GAL1245     0.2144
      5  C5        88.7770   52.9070   47.5140 C.3   1245  GAL1245     0.1836
      6  C6        88.8910   51.7800   46.5420 C.3   1245  GAL1245     0.2142
      7  O1        91.5540   54.9200   48.8360 O.3   1245  GAL1245    -0.1869
      8  O2        89.3830   56.5440   49.4870 O.3   1245  GAL1245    -0.2148
      9  O3        86.9660   56.1650   48.0260 O.3   1245  GAL1245    -0.2174
     10  O4        88.1200   54.6590   45.9190 O.3   1245  GAL1245    -0.2176
     11  O5        90.1230   53.4640   47.6670 O.3   1245  GAL1245    -0.3236
     12  O6        89.8580   50.8650   47.0070 O.3   1245  GAL1245    -0.2176
@<TRIPOS>BOND
     1    10     4    1
     2     6    12    1
     3     6     5    1
     4     4     5    1
     5     4     3    1
     6     5    11    1
     7    11     1    1
     8     9     3    1
     9     3     2    1
    10     2     1    1
    11     2     8    1
    12     1     7    1
