@<TRIPOS>MOLECULE
1v00_LAT_A_1.pdb
 23 24 0 0 0
SMALL
GASTEIGER

@<TRIPOS>ATOM
      1  C1        18.3620   11.1920   -2.2520 C.3   1240  LAT1240     0.2695
      2  C2        17.2700   10.1460   -2.1050 C.3   1240  LAT1240     0.2406
      3  C3        16.4610   10.4530   -0.8230 C.3   1240  LAT1240     0.2198
      4  C4        17.4500   10.4390    0.3650 C.3   1240  LAT1240     0.2144
      5  C5        18.5540   11.4920    0.1270 C.3   1240  LAT1240     0.1835
      6  C6        19.5770   11.5030    1.2460 C.3   1240  LAT1240     0.2142
      7  O1        19.1430   10.9150   -3.3970 O.3   1240  LAT1240    -0.3253
      8  O2        16.3900   10.1450   -3.2340 O.3   1240  LAT1240    -0.2149
      9  O3        15.4260    9.4860   -0.6600 O.3   1240  LAT1240    -0.2174
     10  O4        18.0810    9.1700    0.4890 O.3   1240  LAT1240    -0.2176
     11  O5        19.2550   11.2100   -1.1230 O.3   1240  LAT1240    -0.3256
     12  O6        20.6020   12.4210    0.9140 O.3   1240  LAT1240    -0.2176
     13  C1'       22.0960   12.8820   -5.6810 C.3   1240  LAT1240     0.3027
     14  C2'       22.3650   12.8420   -4.1580 C.3   1240  LAT1240     0.2434
     15  C3'       21.5040   11.7070   -3.5610 C.3   1240  LAT1240     0.2171
     16  C4'       20.0190   11.9830   -3.8790 C.3   1240  LAT1240     0.1854
     17  C5'       19.7900   12.0980   -5.3970 C.3   1240  LAT1240     0.2116
     18  C6'       18.3620   12.5130   -5.7510 C.2   1240  LAT1240     0.2393
     19  O1'       22.8450   13.9090   -6.2500 O.3   1240  LAT1240    -0.1869
     20  O2'       23.7210   12.5790   -3.8670 O.3   1240  LAT1240    -0.2148
     21  O3'       21.7520   11.6450   -2.1630 O.3   1240  LAT1240    -0.2175
     22  O5'       20.6800   13.1260   -5.9330 O.3   1240  LAT1240    -0.3184
     23  O6'       18.1360   13.6040   -6.3870 O.2   1240  LAT1240    -0.2855
@<TRIPOS>BOND
     1    23    18    2
     2    19    13    1
     3    22    13    1
     4    22    17    1
     5    18    17    1
     6    13    14    1
     7    17    16    1
     8    14    20    1
     9    14    15    1
    10    16    15    1
    11    16     7    1
    12    15    21    1
    13     7     1    1
    14     8     2    1
    15     1     2    1
    16     1    11    1
    17     2     3    1
    18    11     5    1
    19     3     9    1
    20     3     4    1
    21     5     4    1
    22     5     6    1
    23     4    10    1
    24    12     6    1
