@<TRIPOS>MOLECULE
1v03_BGC_A_1.pdb
 12 12 0 0 0
SMALL
GASTEIGER

@<TRIPOS>ATOM
      1  C2        45.5190   47.7840   86.8440 C.3   1498  BGC1498     0.2434
      2  C3        43.9860   47.9010   86.6230 C.3   1498  BGC1498     0.2199
      3  C4        43.3990   48.9510   87.5460 C.3   1498  BGC1498     0.2144
      4  C5        44.0200   50.2680   87.0560 C.3   1498  BGC1498     0.1836
      5  C6        43.5100   51.5320   87.7600 C.3   1498  BGC1498     0.2142
      6  C1        46.1450   49.0600   87.4020 C.3   1498  BGC1498     0.3024
      7  O1        46.1550   49.0130   88.8340 O.3   1498  BGC1498    -0.1869
      8  O2        46.0970   47.4020   85.6130 O.3   1498  BGC1498    -0.2148
      9  O3        43.4150   46.6420   86.8720 O.3   1498  BGC1498    -0.2174
     10  O4        41.9630   48.9500   87.3870 O.3   1498  BGC1498    -0.2176
     11  O5        45.4650   50.2510   87.0660 O.3   1498  BGC1498    -0.3236
     12  O6        43.8570   51.4930   89.1260 O.3   1498  BGC1498    -0.2176
@<TRIPOS>BOND
     1     8     1    1
     2     2     1    1
     3     2     9    1
     4     2     3    1
     5     1     6    1
     6     4    11    1
     7     4     3    1
     8     4     5    1
     9    11     6    1
    10    10     3    1
    11     6     7    1
    12     5    12    1
