@<TRIPOS>MOLECULE
1v07_HEM_A_1.pdb
 43 50 0 0 0
SMALL
GASTEIGER

@<TRIPOS>ATOM
      1 FE         28.1850   31.4180   10.1740 Fe    144  HEM144      0.0000
      2  CHA       25.0480   31.1130    8.8230 C.2   144  HEM144      0.0000
      3  CHB       27.0770   33.9670   12.1920 C.2   144  HEM144      0.0000
      4  CHC       31.3140   31.6810   11.5880 C.2   144  HEM144      0.0000
      5  CHD       29.3660   28.9020    8.1490 C.2   144  HEM144      0.0000
      6  NA        26.4260   32.3580   10.4620 N.2   144  HEM144      0.0000
      7  C1A       25.2490   32.0660    9.7990 C.2   144  HEM144      0.0000
      8  C2A       24.2130   32.9690   10.2990 C.2   144  HEM144      0.0000
      9  C3A       24.7810   33.7600   11.2070 C.2   144  HEM144      0.0000
     10  C4A       26.1800   33.3990   11.3180 C.2   144  HEM144      0.0000
     11  CMA       24.1250   34.8970   12.0320 C.3   144  HEM144      0.0000
     12  CAA       22.7450   32.9450    9.8330 C.3   144  HEM144      0.0000
     13  CBA       22.0040   31.9180   10.7230 C.3   144  HEM144      0.0000
     14  CGA       20.4960   31.9630   10.5330 C.2   144  HEM144      0.0000
     15  O1A       19.7700   31.5210   11.4570 O.co2 144  HEM144      0.0000
     16  O2A       19.9930   32.4440    9.4840 O.co2 144  HEM144      0.0000
     17  NB        29.0310   32.6260   11.5800 N.ar  144  HEM144      0.0000
     18  C1B       28.3790   33.5720   12.3630 C.ar  144  HEM144      0.0000
     19  C2B       29.3440   34.1640   13.2810 C.ar  144  HEM144      0.0000
     20  C3B       30.5070   33.5240   13.0900 C.ar  144  HEM144      0.0000
     21  C4B       30.3270   32.5320   12.0620 C.ar  144  HEM144      0.0000
     22  CMB       29.0080   35.3080   14.2670 C.3   144  HEM144      0.0000
     23  CAB       31.8690   33.6970   13.8090 C.2   144  HEM144      0.0000
     24  CBB       32.2960   34.9240   14.1010 C.2   144  HEM144      0.0000
     25  NC        29.9970   30.4650    9.9030 N.2   144  HEM144      0.0000
     26  C1C       31.1690   30.7350   10.5970 C.2   144  HEM144      0.0000
     27  C2C       32.2270   29.9000   10.0800 C.2   144  HEM144      0.0000
     28  C3C       31.6850   29.1400    9.1070 C.2   144  HEM144      0.0000
     29  C4C       30.2720   29.4690    8.9970 C.2   144  HEM144      0.0000
     30  CMC       33.7070   29.8930   10.5600 C.3   144  HEM144      0.0000
     31  CAC       32.4370   28.0950    8.2720 C.2   144  HEM144      0.0000
     32  CBC       32.0700   27.7700    7.0250 C.2   144  HEM144      0.0000
     33  ND        27.3680   30.2330    8.7640 N.ar  144  HEM144      0.0000
     34  C1D       28.0590   29.2720    8.0300 C.ar  144  HEM144      0.0000
     35  C2D       27.1880   28.6820    7.0350 C.ar  144  HEM144      0.0000
     36  C3D       25.8780   29.3750    7.2330 C.ar  144  HEM144      0.0000
     37  C4D       26.0630   30.3290    8.3060 C.ar  144  HEM144      0.0000
     38  CMD       27.5350   27.5980    5.9870 C.3   144  HEM144      0.0000
     39  CAD       24.6020   29.0900    6.4280 C.3   144  HEM144      0.0000
     40  CBD       24.6160   30.0850    5.2660 C.3   144  HEM144      0.0000
     41  CGD       23.4310   29.8510    4.3420 C.2   144  HEM144      0.0000
     42  O1D       23.5700   29.8770    3.0890 O.co2 144  HEM144      0.0000
     43  O2D       22.3050   29.7140    4.8610 O.co2 144  HEM144      0.0000
@<TRIPOS>BOND
     1    42    41   ar
     2    41    43   ar
     3    41    40    1
     4    40    39    1
     5    38    35    1
     6    39    36    1
     7    32    31    2
     8    35    36   ar
     9    35    34   ar
    10    36    37   ar
    11    34     5    2
    12    34    33   ar
    13     5    29    1
    14    31    28    1
    15    37    33   ar
    16    37     2    2
    17    33     1    1
    18     2     7    1
    19    29    28    1
    20    29    25    2
    21    28    27    2
    22    16    14   ar
    23     7     8    1
    24     7     6    2
    25    12     8    1
    26    12    13    1
    27    25     1    1
    28    25    26    1
    29    27    30    1
    30    27    26    1
    31     1     6    1
    32     1    17    1
    33     8     9    2
    34     6    10    1
    35    14    13    1
    36    14    15   ar
    37    26     4    2
    38     9    10    1
    39     9    11    1
    40    10     3    2
    41    17    21   ar
    42    17    18   ar
    43     4    21    1
    44    21    20   ar
    45     3    18    1
    46    18    19   ar
    47    20    19   ar
    48    20    23    1
    49    19    22    1
    50    23    24    2
