@<TRIPOS>MOLECULE
1v08_NTZ_A_1.pdb
 14 15 0 0 0
SMALL
GASTEIGER

@<TRIPOS>ATOM
      1  C1        21.3690   51.0520    3.7580 C.2   1502  NTZ1502     0.3786
      2  C2        22.4080   50.0860    4.0250 C.3   1502  NTZ1502     0.2928
      3  C3        23.4240   50.5710    5.0640 C.3   1502  NTZ1502     0.2286
      4  C4        23.8200   52.0330    4.8110 C.3   1502  NTZ1502     0.2320
      5  C5        22.5690   52.8540    5.0760 C.3   1502  NTZ1502     0.2480
      6  C6        22.7840   54.3500    4.8030 C.3   1502  NTZ1502     0.2330
      7  N1        21.6450   52.3830    4.1350 N.pl3 1502  NTZ1502    -0.0807
      8  N17       20.5600   53.1060    3.6370 N.3   1502  NTZ1502     0.1249
      9  N18       19.7420   52.1790    3.0090 N.pl3 1502  NTZ1502     0.1118
     10  N21       20.3680   51.1000    2.9210 N.2   1502  NTZ1502     0.0864
     11  O2        21.9270   48.7640    4.3340 O.3   1502  NTZ1502    -0.2070
     12  O3        24.5430   49.6830    4.8990 O.3   1502  NTZ1502    -0.2168
     13  O4        24.8440   52.4360    5.7250 O.3   1502  NTZ1502    -0.2158
     14  O6        23.2360   54.5640    3.4660 O.3   1502  NTZ1502    -0.2158
@<TRIPOS>BOND
     1    10     9    1
     2    10     1    2
     3     9     8    1
     4    14     6    1
     5     8     7    1
     6     1     2    1
     7     1     7    1
     8     2    11    1
     9     2     3    1
    10     7     5    1
    11     6     5    1
    12     4     3    1
    13     4     5    1
    14     4    13    1
    15    12     3    1
