@<TRIPOS>MOLECULE
1v0c_KNC_A_1.pdb
 33 35 0 0 0
SMALL
GASTEIGER

@<TRIPOS>ATOM
      1  C2        14.0280    8.5510   10.7570 C.3   1201  KNC1201     0.1807
      2  C3        12.4830    8.6120   10.5720 C.3   1201  KNC1201     0.2070
      3  C4        11.7840    7.9520   11.7650 C.3   1201  KNC1201     0.2133
      4  C5        12.3050    8.6170   13.0320 C.3   1201  KNC1201     0.1834
      5  C6        11.8830    7.7240   14.0920 C.3   1201  KNC1201     0.2142
      6  C7        15.8920   14.2300   13.4200 C.3   1201  KNC1201     0.1231
      7  C8        16.8150   13.2330   12.6990 C.3   1201  KNC1201     0.1680
      8  C9        16.0050   12.1250   11.9900 C.3   1201  KNC1201     0.2088
      9  C10       14.9580   11.4510   12.9200 C.3   1201  KNC1201     0.1680
     10  C11       14.0580   12.4820   13.7040 C.3   1201  KNC1201     0.1231
     11  C12       14.9560   13.5150   14.4320 C.3   1201  KNC1201     0.0432
     12  C13       18.8330   13.6820   11.3870 C.3   1201  KNC1201     0.2684
     13  C14       19.6460   14.9500   11.0410 C.3   1201  KNC1201     0.2279
     14  C15       19.1480   15.5790    9.7280 C.3   1201  KNC1201     0.1599
     15  C16       19.1610   14.5560    8.5750 C.3   1201  KNC1201     0.2017
     16  C17       18.3730   13.2830    8.9570 C.3   1201  KNC1201     0.1824
     17  C18       18.3530   12.2630    7.7650 C.3   1201  KNC1201     0.2142
     18  N2        13.0880   11.7930   14.6150 N.3   1201  KNC1201    -0.1302
     19  N3        16.6980   15.3560   14.0010 N.3   1201  KNC1201    -0.1302
     20  N4        19.9560   16.7410    9.3460 N.3   1201  KNC1201    -0.1272
     21  C1        14.4770    9.1920   12.1050 C.3   1201  KNC1201     0.2561
     22  O5        13.7560    8.6150   13.1760 O.3   1201  KNC1201    -0.3264
     23  O7        12.0210    8.0490    9.3220 O.3   1201  KNC1201    -0.2186
     24  O8        10.3570    8.1310   11.7170 O.3   1201  KNC1201    -0.2176
     25  O9        14.1820   10.6020   12.0990 O.3   1201  KNC1201    -0.3277
     26  O1        12.1230    8.4270   15.3090 O.3   1201  KNC1201    -0.2176
     27  O10       16.8910   11.1220   11.4470 O.3   1201  KNC1201    -0.2178
     28  O11       17.4490   14.0390   11.7180 O.3   1201  KNC1201    -0.3269
     29  O12       18.8820   12.7290   10.2550 O.3   1201  KNC1201    -0.3257
     30  O13       19.5560   15.8930   12.1060 O.3   1201  KNC1201    -0.2161
     31  O14       18.5730   15.1790    7.4240 O.3   1201  KNC1201    -0.2188
     32  O15       18.8270   10.9660    8.1840 O.3   1201  KNC1201    -0.2176
     33  N6        14.6900    9.2820    9.6850 N.3   1201  KNC1201    -0.1248
@<TRIPOS>BOND
     1    31    15    1
     2    17    32    1
     3    17    16    1
     4    15    16    1
     5    15    14    1
     6    16    29    1
     7    23     2    1
     8    20    14    1
     9    33     1    1
    10    14    13    1
    11    29    12    1
    12     2     1    1
    13     2     3    1
    14     1    21    1
    15    13    12    1
    16    13    30    1
    17    12    28    1
    18    27     8    1
    19    24     3    1
    20    28     7    1
    21     3     4    1
    22     8     7    1
    23     8     9    1
    24    25    21    1
    25    25     9    1
    26    21    22    1
    27     7     6    1
    28     9    10    1
    29     4    22    1
    30     4     5    1
    31     6    19    1
    32     6    11    1
    33    10    11    1
    34    10    18    1
    35     5    26    1
