@<TRIPOS>MOLECULE
1v0f_SIA_C_1.pdb
 20 20 0 0 0
SMALL
GASTEIGER

@<TRIPOS>ATOM
      1  C1        14.8060   41.3200   73.9160 C.2   1688  SIA1688     0.3914
      2  C2        15.9680   40.3070   73.9940 C.3   1688  SIA1688     0.2203
      3  C3        16.1170   39.4680   72.7160 C.3   1688  SIA1688     0.0760
      4  C4        16.8230   40.2740   71.6220 C.3   1688  SIA1688     0.1773
      5  C5        18.1450   40.9520   72.1070 C.3   1688  SIA1688     0.1552
      6  C6        17.9420   41.8080   73.3830 C.3   1688  SIA1688     0.1710
      7  C7        19.1820   42.4600   74.0620 C.3   1688  SIA1688     0.2134
      8  C8        18.7540   43.2340   75.3270 C.3   1688  SIA1688     0.2173
      9  C9        19.9210   44.0360   75.9660 C.3   1688  SIA1688     0.2175
     10  C10       19.7420   41.6630   70.4040 C.2   1688  SIA1688     0.2420
     11  C11       20.0330   42.7270   69.3280 C.3   1688  SIA1688     0.0964
     12  N5        18.6040   41.8440   71.0530 N.am  1688  SIA1688    -0.2020
     13  O1A       13.6540   40.8840   73.7110 O.co2 1688  SIA1688    -0.2430
     14  O1B       15.0320   42.5330   74.1130 O.co2 1688  SIA1688    -0.2430
     15  O4        17.0390   39.4250   70.4610 O.3   1688  SIA1688    -0.2211
     16  O6        17.2370   40.9970   74.4130 O.3   1688  SIA1688    -0.3429
     17  O7        20.1370   41.4730   74.4870 O.3   1688  SIA1688    -0.2176
     18  O8        17.6170   44.0750   75.0400 O.3   1688  SIA1688    -0.2175
     19  O9        20.5500   44.8600   74.9610 O.3   1688  SIA1688    -0.2175
     20  O10       20.5300   40.7440   70.6270 O.2   1688  SIA1688    -0.2733
@<TRIPOS>BOND
     1    11    10    1
     2    10    20    2
     3    10    12   am
     4    15     4    1
     5    12     5    1
     6     4     5    1
     7     4     3    1
     8     5     6    1
     9     3     2    1
    10     6     7    1
    11     6    16    1
    12    13     1   ar
    13     1     2    1
    14     1    14   ar
    15     2    16    1
    16     7    17    1
    17     7     8    1
    18    19     9    1
    19    18     8    1
    20     8     9    1
