@<TRIPOS>MOLECULE
1v0f_SLB_A_1.pdb
 21 21 0 0 0
SMALL
GASTEIGER

@<TRIPOS>ATOM
      1  C1        30.4960    2.8490   81.3090 C.2   1685  SLB1685     0.4179
      2  C2        30.6000    4.1730   80.4540 C.3   1685  SLB1685     0.3155
      3  C3        31.8420    4.1250   79.5150 C.3   1685  SLB1685     0.1056
      4  C4        31.9450    5.4880   78.7530 C.3   1685  SLB1685     0.1798
      5  C5        32.3050    6.6100   79.7550 C.3   1685  SLB1685     0.1554
      6  C6        31.1690    6.6590   80.8040 C.3   1685  SLB1685     0.1734
      7  C7        31.4660    7.6310   81.9630 C.3   1685  SLB1685     0.2135
      8  C8        30.2890    7.5470   82.9470 C.3   1685  SLB1685     0.2173
      9  C9        30.6550    7.9440   84.3910 C.3   1685  SLB1685     0.2175
     10  C10       33.5470    8.6870   79.0190 C.2   1685  SLB1685     0.2420
     11  C11       33.3550   10.0490   78.3190 C.3   1685  SLB1685     0.0964
     12  N5        32.4200    7.9450   79.1150 N.am  1685  SLB1685    -0.2020
     13  O1A       31.3540    2.5580   82.1630 O.co2 1685  SLB1685    -0.2401
     14  O1B       29.5370    2.0750   81.1710 O.co2 1685  SLB1685    -0.2401
     15  O2        29.3990    4.4020   79.6730 O.3   1685  SLB1685    -0.1830
     16  O4        32.8680    5.4330   77.6590 O.3   1685  SLB1685    -0.2210
     17  O6        30.7270    5.3210   81.3800 O.3   1685  SLB1685    -0.3220
     18  O7        32.7340    7.3200   82.5730 O.3   1685  SLB1685    -0.2176
     19  O8        29.2030    8.3570   82.4240 O.3   1685  SLB1685    -0.2175
     20  O9        29.4410    8.2690   85.1090 O.3   1685  SLB1685    -0.2175
     21  O10       34.6650    8.3550   79.4170 O.2   1685  SLB1685    -0.2733
@<TRIPOS>BOND
     1    16     4    1
     2    11    10    1
     3     4     3    1
     4     4     5    1
     5    10    12   am
     6    10    21    2
     7    12     5    1
     8     3     2    1
     9    15     2    1
    10     5     6    1
    11     2     1    1
    12     2    17    1
    13     6    17    1
    14     6     7    1
    15    14     1   ar
    16     1    13   ar
    17     7    18    1
    18     7     8    1
    19    19     8    1
    20     8     9    1
    21     9    20    1
