@<TRIPOS>MOLECULE
1v0h_HEM_X_1.pdb
 43 50 0 0 0
SMALL
GASTEIGER

@<TRIPOS>ATOM
      1 FE         14.4470   55.2450   18.8900 Fe    251  HEM251      0.0000
      2  CHA       13.2770   58.1800   20.1750 C.2   251  HEM251      0.0000
      3  CHB       12.2270   55.4710   16.3130 C.2   251  HEM251      0.0000
      4  CHC       15.5720   52.2950   17.6760 C.2   251  HEM251      0.0000
      5  CHD       16.7700   55.0610   21.3880 C.2   251  HEM251      0.0000
      6  NA        13.0330   56.5540   18.3580 N.ar  251  HEM251      0.0000
      7  C1A       12.7230   57.7300   18.9980 C.ar  251  HEM251      0.0000
      8  C2A       11.6990   58.4160   18.2540 C.ar  251  HEM251      0.0000
      9  C3A       11.3940   57.6730   17.1900 C.ar  251  HEM251      0.0000
     10  C4A       12.2110   56.4830   17.2420 C.ar  251  HEM251      0.0000
     11  CMA       10.3700   57.9950   16.0760 C.3   251  HEM251      0.0000
     12  CAA       11.1280   59.7680   18.6720 C.3   251  HEM251      0.0000
     13  CBA       12.0390   60.9290   18.2910 C.3   251  HEM251      0.0000
     14  CGA       11.3980   62.2040   18.7690 C.2   251  HEM251      0.0000
     15  O1A       10.2980   62.5310   18.2590 O.co2 251  HEM251      0.0000
     16  O2A       11.9470   62.8580   19.7000 O.co2 251  HEM251      0.0000
     17  NB        13.9870   54.1070   17.2750 N.2   251  HEM251      0.0000
     18  C1B       12.9800   54.3290   16.3670 C.2   251  HEM251      0.0000
     19  C2B       12.8550   53.1590   15.5200 C.2   251  HEM251      0.0000
     20  C3B       13.7600   52.2710   15.9220 C.2   251  HEM251      0.0000
     21  C4B       14.5050   52.8620   17.0280 C.2   251  HEM251      0.0000
     22  CMB       11.8340   53.0090   14.3770 C.3   251  HEM251      0.0000
     23  CAB       13.9950   50.8640   15.3780 C.2   251  HEM251      0.0000
     24  CBB       14.0830   49.8620   16.2490 C.2   251  HEM251      0.0000
     25  NC        15.8940   53.9520   19.4340 N.ar  251  HEM251      0.0000
     26  C1C       16.2590   52.8270   18.7260 C.ar  251  HEM251      0.0000
     27  C2C       17.4630   52.2680   19.2880 C.ar  251  HEM251      0.0000
     28  C3C       17.7780   53.0230   20.3320 C.ar  251  HEM251      0.0000
     29  C4C       16.8080   54.0840   20.4400 C.ar  251  HEM251      0.0000
     30  CMC       18.1620   51.0300   18.7410 C.3   251  HEM251      0.0000
     31  CAC       18.9460   52.9280   21.2980 C.2   251  HEM251      0.0000
     32  CBC       19.3720   51.7600   21.7880 C.2   251  HEM251      0.0000
     33  ND        14.9680   56.4170   20.4580 N.2   251  HEM251      0.0000
     34  C1D       15.8690   56.0810   21.4530 C.2   251  HEM251      0.0000
     35  C2D       15.7170   56.9610   22.5710 C.2   251  HEM251      0.0000
     36  C3D       14.6360   57.9130   22.2200 C.2   251  HEM251      0.0000
     37  C4D       14.2320   57.5320   20.8890 C.2   251  HEM251      0.0000
     38  CMD       16.4560   56.8980   23.8980 C.3   251  HEM251      0.0000
     39  CAD       14.0920   59.0240   23.1040 C.3   251  HEM251      0.0000
     40  CBD       14.7140   60.3760   22.8220 C.3   251  HEM251      0.0000
     41  CGD       14.2500   61.4510   23.7920 C.2   251  HEM251      0.0000
     42  O1D       14.4750   62.6320   23.4150 O.co2 251  HEM251      0.0000
     43  O2D       13.7110   61.1520   24.8980 O.co2 251  HEM251      0.0000
@<TRIPOS>BOND
     1    22    19    1
     2    23    20    1
     3    23    24    2
     4    19    20    2
     5    19    18    1
     6    20    21    1
     7    11     9    1
     8     3    18    1
     9     3    10    2
    10    18    17    2
    11    21    17    1
    12    21     4    2
    13     9    10   ar
    14     9     8   ar
    15    10     6   ar
    16    17     1    1
    17     4    26    1
    18     8    12    1
    19     8     7   ar
    20    15    14   ar
    21    13    12    1
    22    13    14    1
    23     6     1    1
    24     6     7   ar
    25    26    27   ar
    26    26    25   ar
    27    30    27    1
    28    14    16   ar
    29     1    25    1
    30     1    33    1
    31     7     2    2
    32    27    28   ar
    33    25    29   ar
    34     2    37    1
    35    28    29   ar
    36    28    31    1
    37    29     5    1
    38    33    37    2
    39    33    34    1
    40    37    36    1
    41    31    32    2
    42     5    34    2
    43    34    35    1
    44    36    35    2
    45    36    39    1
    46    35    38    1
    47    40    39    1
    48    40    41    1
    49    42    41   ar
    50    41    43   ar
