@<TRIPOS>MOLECULE
1v0h_SHA_X_1.pdb
 11 11 0 0 0
SMALL
GASTEIGER

@<TRIPOS>ATOM
      1  C1        14.0580   58.2030   14.9490 C.ar  253  SHA253      0.0616
      2  C2        13.4680   59.4610   14.8620 C.ar  253  SHA253      0.0051
      3  C3        12.7630   59.8600   13.7420 C.ar  253  SHA253      0.0003
      4  C4        12.6160   58.9710   12.6690 C.ar  253  SHA253      0.0033
      5  C5        13.1930   57.7050   12.6980 C.ar  253  SHA253      0.0421
      6  C6        13.9030   57.2750   13.8050 C.ar  253  SHA253      0.1975
      7  O6        14.4590   56.0620   13.8210 O.3   253  SHA253     -0.2865
      8  C7        14.8100   57.8490   16.2060 C.2   253  SHA253      0.1132
      9  O7        15.0150   58.7780   16.9930 O.2   253  SHA253     -0.5359
     10  N8        15.2110   56.6060   16.4880 N.am  253  SHA253     -0.1983
     11  O9        15.7280   56.3130   17.6320 O.3   253  SHA253     -0.4024
@<TRIPOS>BOND
     1     4     5   ar
     2     4     3   ar
     3     5     6   ar
     4     3     2   ar
     5     6     7    1
     6     6     1   ar
     7     2     1   ar
     8     1     8    1
     9     8    10   am
    10     8     9    2
    11    10    11    1
