@<TRIPOS>MOLECULE
1v0o_INR_A_1.pdb
 24 27 0 0 0
SMALL
GASTEIGER

@<TRIPOS>ATOM
      1  C1        24.5200    3.0550   37.4810 C.2   2638  INR2638     0.1337
      2  C2        24.7150    3.9990   36.5040 C.2   2638  INR2638     0.0668
      3  C6        25.6460    2.5550   38.1180 C.2   2638  INR2638     0.0279
      4  N7        23.1810    2.7430   37.6870 N.2   2638  INR2638    -0.4014
      5  C3        25.9590    4.4770   36.1080 C.2   2638  INR2638    -0.0156
      6  C8        23.3610    4.3460   36.0350 C.2   2638  INR2638     0.2243
      7  C4        27.0780    3.9640   36.7600 C.3   2638  INR2638     0.0523
      8  C5        26.9210    3.0010   37.7650 C.2   2638  INR2638    -0.0188
      9  O10       23.0550    5.1830   35.1180 O.2   2638  INR2638    -0.2841
     10  C9        22.4480    3.4940   36.8400 C.2   2638  INR2638     0.1681
     11  C11       21.0570    3.4010   36.8100 C.3   2638  INR2638     0.1977
     12  C12       20.2650    2.4990   37.6880 C.1   2638  INR2638     0.1904
     13  C15       20.0040    4.0580   36.0100 C.2   2638  INR2638     0.0290
     14  O13       20.7540    1.7050   38.5860 O.2   2638  INR2638    -0.2134
     15  N14       18.9500    2.6010   37.4510 N.2   2638  INR2638    -0.3361
     16  C16       18.8260    3.5160   36.4740 C.2   2638  INR2638     0.1410
     17  C20       20.0000    5.0530   34.9640 C.2   2638  INR2638     0.0017
     18  C19       18.7640    5.4550   34.4190 C.3   2638  INR2638     0.1796
     19  C18       17.5690    4.8890   34.8970 C.2   2638  INR2638     0.0046
     20  S21       18.7130    6.5590   33.2370 S.3   2638  INR2638     0.0287
     21  C17       17.5760    3.9310   35.9120 C.2   2638  INR2638     0.0302
     22  O24       18.9740    7.9090   33.8110 O.3   2638  INR2638    -0.0689
     23  O23       17.3720    6.6050   32.6280 O.3   2638  INR2638    -0.0689
     24  O22       19.7360    6.3050   32.2200 O.3   2638  INR2638    -0.0689
@<TRIPOS>BOND
     1    24    20    1
     2    23    20    1
     3    20    22    1
     4    20    18    1
     5    18    19    1
     6    18    17    1
     7    19    21    2
     8    17    13    2
     9     9     6    2
    10    21    16    1
    11    13    16    1
    12    13    11    1
    13     6     2    1
    14     6    10    1
    15     5     2    2
    16     5     7    1
    17    16    15    2
    18     2     1    1
    19     7     8    1
    20    11    10    1
    21    11    12    1
    22    10     4    2
    23    15    12    2
    24     1     4    2
    25     1     3    1
    26    12    14    2
    27     8     3    2
