@<TRIPOS>MOLECULE
1v0p_PVB_A_1.pdb
 30 32 0 0 0
SMALL
GASTEIGER

@<TRIPOS>ATOM
      1  N1        25.2760   -1.1690   35.1390 N.2   1287  PVB1287    -0.3081
      2  C9        22.6470    1.7330   38.7140 C.3   1287  PVB1287     0.0770
      3  N9        23.4030    0.4990   38.3800 N.pl3 1287  PVB1287    -0.2624
      4  C4        23.9850    0.0940   37.2170 C.2   1287  PVB1287     0.2197
      5  N3        23.9440    0.6800   35.8860 N.2   1287  PVB1287    -0.3099
      6  C2        24.6310    0.0420   34.8920 C.1   1287  PVB1287     0.2227
      7  C6        25.3300   -1.7820   36.3630 C.2   1287  PVB1287     0.2383
      8  C5        24.7030   -1.1680   37.4670 C.2   1287  PVB1287     0.1693
      9  N7        24.5060   -1.4480   38.7840 N.2   1287  PVB1287    -0.2402
     10  C8        23.7470   -0.4480   39.3040 C.3   1287  PVB1287     0.2220
     11  N6        25.9890   -2.9740   36.5700 N.pl3 1287  PVB1287    -0.1814
     12  C1A       26.8160   -3.5670   35.6610 C.ar  1287  PVB1287     0.0740
     13  C2A       28.1070   -3.9710   36.0580 C.ar  1287  PVB1287     0.0169
     14  C3A       28.9820   -4.5320   35.1390 C.ar  1287  PVB1287     0.0088
     15  C4A       28.5780   -4.6840   33.7990 C.ar  1287  PVB1287     0.0904
     16  C5A       27.2240   -4.2230   33.3810 C.ar  1287  PVB1287     0.0653
     17 CL1        26.7410   -4.3360   31.9420 Cl    1287  PVB1287    -0.0820
     18  C6A       26.3940   -3.6880   34.3530 C.ar  1287  PVB1287     0.0282
     19  CX        29.5100   -5.2780   32.7970 C.2   1287  PVB1287     0.3886
     20  OX1       30.1350   -6.3150   33.0750 O.co2 1287  PVB1287    -0.2405
     21  OX2       29.6670   -4.7350   31.6930 O.co2 1287  PVB1287    -0.2405
     22  N2        24.6340    0.5440   33.6180 N.pl3 1287  PVB1287    -0.1508
     23  C12       25.3470   -0.2440   32.6130 C.3   1287  PVB1287     0.1384
     24  C13       26.2920    0.5610   31.6970 C.3   1287  PVB1287     0.0234
     25  C16       26.4770    2.0350   32.1370 C.3   1287  PVB1287     0.0019
     26  C14       26.0990    0.3400   30.2020 C.3   1287  PVB1287     0.0019
     27  C15       24.5370   -1.3740   31.9510 C.3   1287  PVB1287     0.2044
     28  O1        23.2040   -0.9450   31.8650 O.3   1287  PVB1287    -0.2185
     29  C11       23.4690    2.8820   38.1590 C.3   1287  PVB1287     0.0216
     30  C10       21.2420    1.8350   38.1350 C.3   1287  PVB1287     0.0216
@<TRIPOS>BOND
     1    26    24    1
     2    21    19   ar
     3    24    25    1
     4    24    23    1
     5    28    27    1
     6    17    16    1
     7    27    23    1
     8    23    22    1
     9    19    20   ar
    10    19    15    1
    11    16    15   ar
    12    16    18   ar
    13    22     6    1
    14    15    14   ar
    15    18    12   ar
    16     6     1    2
    17     6     5    2
    18     1     7    2
    19    14    13   ar
    20    12    13   ar
    21    12    11    1
    22     5     4    2
    23     7    11    1
    24     7     8    1
    25     4     8    1
    26     4     3    1
    27     8     9    2
    28    30     2    1
    29    29     2    1
    30     3     2    1
    31     3    10    1
    32     9    10    1
