@<TRIPOS>MOLECULE
1v0y_HI5_A_1.pdb
 20 19 0 0 0
SMALL
GASTEIGER

@<TRIPOS>ATOM
      1  P         11.5910   28.6750   10.2690 P.3   1515  HI51515     0.5327
      2  O1P       11.7660   30.3000   10.2320 O.3   1515  HI51515    -0.1145
      3  O2P       10.5060   27.9300   11.2690 O.3   1515  HI51515    -0.1145
      4  O3P       12.2890   27.8170    8.9640 O.3   1515  HI51515    -0.2662
      5  O4P       10.1890   29.0820    8.9570 O.2   1515  HI51515    -0.2224
      6  C1        12.1590   26.3980    8.7810 C.3   1515  HI51515     0.2010
      7  C2        11.7800   25.9530    7.3950 C.3   1515  HI51515     0.2422
      8  C3        12.4140   26.9050    6.3480 C.3   1515  HI51515     0.2543
      9  O3        13.8500   27.0580    6.3900 O.3   1515  HI51515    -0.4444
     10  C11       14.5160   27.8020    5.3110 C.2   1515  HI51515     0.3171
     11  O11       15.6830   28.1370    5.4310 O.2   1515  HI51515    -0.2501
     12  C12       13.7710   28.1730    4.0470 C.3   1515  HI51515     0.1096
     13  C13       14.6850   28.8650    3.0230 C.3   1515  HI51515     0.0116
     14  C14       15.0140   30.3080    3.3970 C.3   1515  HI51515     0.0006
     15  O2        12.0760   24.5430    7.2760 O.3   1515  HI51515    -0.4457
     16  C31       13.2820   24.1430    6.5570 C.2   1515  HI51515     0.3171
     17  C32       13.1840   23.8720    5.0670 C.3   1515  HI51515     0.1096
     18  C33       14.4360   24.3160    4.3130 C.3   1515  HI51515     0.0116
     19  C34       14.1390   24.6460    2.8580 C.3   1515  HI51515     0.0006
     20  O31       14.3200   24.0070    7.1800 O.2   1515  HI51515    -0.2501
@<TRIPOS>BOND
     1    19    18    1
     2    13    14    1
     3    13    12    1
     4    12    10    1
     5    18    17    1
     6    17    16    1
     7    10    11    2
     8    10     9    1
     9     8     9    1
    10     8     7    1
    11    16    20    2
    12    16    15    1
    13    15     7    1
    14     7     6    1
    15     6     4    1
    16     5     1    2
    17     4     1    1
    18     2     1    1
    19     1     3    1
