@<TRIPOS>MOLECULE
1v0z_MAN_A_1.pdb
 11 11 0 0 0
SMALL
GASTEIGER

@<TRIPOS>ATOM
      1  C1         9.9170    2.6390   39.8130 C.3   1483  MAN1483     0.1777
      2  C2         9.8500    3.9650   40.5820 C.3   1483  MAN1483     0.2141
      3  C3         9.1290    5.0600   39.7740 C.3   1483  MAN1483     0.2173
      4  C4         9.6970    5.1890   38.3790 C.3   1483  MAN1483     0.2142
      5  C5         9.6820    3.7980   37.7390 C.3   1483  MAN1483     0.1810
      6  C6        10.2690    3.8470   36.3520 C.3   1483  MAN1483     0.2141
      7  O2        11.1660    4.4060   40.9380 O.3   1483  MAN1483    -0.2176
      8  O3         9.2410    6.3580   40.3670 O.3   1483  MAN1483    -0.2175
      9  O4         8.9240    6.1660   37.6560 O.3   1483  MAN1483    -0.2176
     10  O5        10.4980    2.9180   38.5350 O.3   1483  MAN1483    -0.3481
     11  O6        11.5210    4.4800   36.6040 O.3   1483  MAN1483    -0.2176
@<TRIPOS>BOND
     1     6    11    1
     2     6     5    1
     3     9     4    1
     4     5     4    1
     5     5    10    1
     6     4     3    1
     7    10     1    1
     8     3     8    1
     9     3     2    1
    10     1     2    1
    11     2     7    1
