@<TRIPOS>MOLECULE
1v0z_BMA_A_1.pdb
 11 11 0 0 0
SMALL
GASTEIGER

@<TRIPOS>ATOM
      1  C1         5.3140    0.1720   40.7950 C.3   1486  BMA1486     0.1777
      2  C2         4.3760    0.6840   39.7100 C.3   1486  BMA1486     0.2141
      3  C3         4.9040    0.3910   38.3060 C.3   1486  BMA1486     0.2173
      4  C4         6.3350    0.8840   38.1540 C.3   1486  BMA1486     0.2142
      5  C5         7.1910    0.2480   39.2410 C.3   1486  BMA1486     0.1810
      6  C6         8.6210    0.7600   39.1650 C.3   1486  BMA1486     0.2141
      7  O2         4.2370    2.0930   39.8910 O.3   1486  BMA1486    -0.2176
      8  O3         4.0970    1.0540   37.3240 O.3   1486  BMA1486    -0.2175
      9  O4         6.8320    0.5290   36.8630 O.3   1486  BMA1486    -0.2176
     10  O5         6.6630    0.5660   40.5290 O.3   1486  BMA1486    -0.3481
     11  O6         8.6950    2.1030   39.6660 O.3   1486  BMA1486    -0.2176
@<TRIPOS>BOND
     1     9     4    1
     2     8     3    1
     3     4     3    1
     4     4     5    1
     5     3     2    1
     6     6     5    1
     7     6    11    1
     8     5    10    1
     9     2     7    1
    10     2     1    1
    11    10     1    1
