@<TRIPOS>MOLECULE
1v1a_KDG_A_1.pdb
 12 11 0 0 0
SMALL
GASTEIGER

@<TRIPOS>ATOM
      1  O1B       28.2860   42.7670   26.3890 O.3   1302  KDG1302    -0.2175
      2  C1        28.6640   41.9590   27.5060 C.3   1302  KDG1302     0.2174
      3  C2        27.5250   41.9820   28.4940 C.3   1302  KDG1302     0.2153
      4  O2        26.4550   41.2750   27.9310 O.3   1302  KDG1302    -0.2176
      5  C3        27.9120   41.3830   29.8710 C.3   1302  KDG1302     0.1927
      6  O3        29.0770   42.0190   30.4100 O.3   1302  KDG1302    -0.2198
      7  C4        26.7650   41.5270   30.8780 C.3   1302  KDG1302     0.1118
      8  O5        26.1220   43.8210   30.4720 O.2   1302  KDG1302    -0.2842
      9  C5        25.7580   42.6450   30.5640 C.2   1302  KDG1302     0.2546
     10  C6        24.2890   42.2930   30.3420 C.2   1302  KDG1302     0.4219
     11  O6A       23.9890   41.2730   29.6910 O.co2 1302  KDG1302    -0.2373
     12  O6B       23.4280   43.0500   30.8270 O.co2 1302  KDG1302    -0.2373
@<TRIPOS>BOND
     1     1     2    1
     2     2     3    1
     3     4     3    1
     4     3     5    1
     5    11    10   ar
     6     5     6    1
     7     5     7    1
     8    10     9    1
     9    10    12   ar
    10     8     9    2
    11     9     7    1
