@<TRIPOS>MOLECULE
1v1a_ADP_A_1.pdb
 27 29 0 0 0
SMALL
GASTEIGER

@<TRIPOS>ATOM
      1  PB        28.9830   40.1490   20.4410 P.3   1303  ADP1303     0.5373
      2  O1B       28.3870   38.9020   20.0810 O.2   1303  ADP1303    -0.2221
      3  O2B       27.9060   41.1220   20.5390 O.3   1303  ADP1303    -0.1143
      4  O3B       29.7180   40.0180   21.8570 O.3   1303  ADP1303    -0.1143
      5  PA        30.3920   39.5490   18.1930 P.3   1303  ADP1303     0.2231
      6  O1A       29.3880   39.5670   17.1590 O.2   1303  ADP1303    -0.5169
      7  O2A       30.4680   38.2000   18.7380 O.3   1303  ADP1303    -0.4370
      8  O3A       30.0170   40.6260   19.3390 O.3   1303  ADP1303    -0.2261
      9  O5'       31.7260   39.8660   17.5810 O.3   1303  ADP1303    -0.3111
     10  C5'       31.9770   41.1080   17.6490 C.3   1303  ADP1303     0.1813
     11  C4'       33.4180   41.4900   17.4800 C.3   1303  ADP1303     0.1821
     12  O4'       34.1230   40.6870   18.4670 O.3   1303  ADP1303    -0.3135
     13  C3'       33.6580   40.9870   16.1180 C.3   1303  ADP1303     0.2184
     14  O3'       33.4020   41.8930   15.0520 O.3   1303  ADP1303    -0.2174
     15  C2'       35.1110   40.4710   16.2710 C.3   1303  ADP1303     0.2570
     16  O2'       36.0280   41.5000   15.9540 O.3   1303  ADP1303    -0.2130
     17  C1'       35.2420   40.0210   17.7770 C.3   1303  ADP1303     0.3186
     18  N9        35.1400   38.5350   17.9830 N.pl3 1303  ADP1303    -0.1439
     19  C8        34.1210   37.7500   18.5640 C.3   1303  ADP1303     0.3377
     20  N7        34.3710   36.4670   18.5780 N.2   1303  ADP1303    -0.2095
     21  C5        35.6250   36.4020   17.9710 C.2   1303  ADP1303     0.2526
     22  C6        36.5130   35.2980   17.6550 C.2   1303  ADP1303     0.4393
     23  N6        36.2010   34.0500   17.9340 N.pl3 1303  ADP1303     0.2180
     24  N1        37.7300   35.5800   17.0280 N.2   1303  ADP1303     0.0021
     25  C2        38.0700   36.8460   16.7270 C.3   1303  ADP1303     0.5254
     26  N3        37.3290   37.9570   16.9700 N.2   1303  ADP1303    -0.0055
     27  C4        36.0960   37.6510   17.6120 C.2   1303  ADP1303     0.3518
@<TRIPOS>BOND
     1    14    13    1
     2    16    15    1
     3    13    15    1
     4    13    11    1
     5    15    17    1
     6    25    26    1
     7    25    24    1
     8    26    27    2
     9    24    22    2
    10     6     5    2
    11    11    10    1
    12    11    12    1
    13     9    10    1
    14     9     5    1
    15    27    21    1
    16    27    18    1
    17    22    23    1
    18    22    21    1
    19    17    18    1
    20    17    12    1
    21    21    20    2
    22    18    19    1
    23     5     7    1
    24     5     8    1
    25    19    20    1
    26     8     1    1
    27     2     1    2
    28     1     3    1
    29     1     4    1
