@<TRIPOS>MOLECULE
1v1b_ATP_A_1.pdb
 31 33 0 0 0
SMALL
GASTEIGER

@<TRIPOS>ATOM
      1  PG        29.7840   41.7620   22.2830 P.3   1301  ATP1301     0.5373
      2  O1G       29.4040   40.3710   22.6790 O.3   1301  ATP1301    -0.1143
      3  O2G       29.0300   42.7340   23.1160 O.3   1301  ATP1301    -0.1143
      4  O3G       31.2230   41.9630   22.5040 O.2   1301  ATP1301    -0.2221
      5  PB        30.1000   40.9430   19.7280 P.3   1301  ATP1301     0.2277
      6  O1B       31.4470   40.6700   20.1140 O.3   1301  ATP1301    -0.4368
      7  O2B       29.3390   39.7060   19.7490 O.2   1301  ATP1301    -0.5168
      8  O3B       29.4260   42.0170   20.7290 O.3   1301  ATP1301    -0.2258
      9  PA        30.9730   40.8070   17.1850 P.3   1301  ATP1301     0.2189
     10  O1A       30.3970   41.0160   15.8670 O.2   1301  ATP1301    -0.5170
     11  O2A       31.0080   39.3580   17.4480 O.3   1301  ATP1301    -0.4371
     12  O3A       30.0680   41.5640   18.2560 O.3   1301  ATP1301    -0.2700
     13  O5'       32.3580   41.3540   17.2550 O.3   1301  ATP1301    -0.3112
     14  C5'       32.9500   41.3710   16.1260 C.3   1301  ATP1301     0.1813
     15  C4'       34.1460   42.2500   16.1670 C.3   1301  ATP1301     0.1821
     16  O4'       35.0230   41.5260   17.0750 O.3   1301  ATP1301    -0.3135
     17  C3'       34.5190   42.0380   14.7560 C.3   1301  ATP1301     0.2184
     18  O3'       34.2130   43.0930   13.8610 O.3   1301  ATP1301    -0.2174
     19  C2'       36.0140   41.6350   14.8730 C.3   1301  ATP1301     0.2570
     20  O2'       36.8480   42.7380   14.5820 O.3   1301  ATP1301    -0.2130
     21  C1'       36.2300   41.1220   16.3360 C.3   1301  ATP1301     0.3186
     22  N9        36.3710   39.6410   16.4330 N.pl3 1301  ATP1301    -0.1439
     23  C8        35.5040   38.6660   16.9630 C.3   1301  ATP1301     0.3377
     24  N7        35.9490   37.4450   16.8820 N.2   1301  ATP1301    -0.2095
     25  C5        37.1850   37.6200   16.2650 C.2   1301  ATP1301     0.2526
     26  C6        38.2200   36.6990   15.8570 C.2   1301  ATP1301     0.4393
     27  N6        38.1160   35.3940   16.0570 N.pl3 1301  ATP1301     0.2180
     28  N1        39.3610   37.2050   15.2470 N.2   1301  ATP1301     0.0021
     29  C2        39.4970   38.5320   15.0300 C.3   1301  ATP1301     0.5254
     30  N3        38.6060   39.4930   15.3600 N.2   1301  ATP1301    -0.0055
     31  C4        37.4430   38.9460   15.9840 C.2   1301  ATP1301     0.3518
@<TRIPOS>BOND
     1    18    17    1
     2    20    19    1
     3    17    19    1
     4    17    15    1
     5    19    21    1
     6    29    28    1
     7    29    30    1
     8    28    26    2
     9    30    31    2
    10    26    27    1
    11    26    25    1
    12    10     9    2
    13    31    25    1
    14    31    22    1
    15    14    15    1
    16    14    13    1
    17    15    16    1
    18    25    24    2
    19    21    22    1
    20    21    16    1
    21    22    23    1
    22    24    23    1
    23     9    13    1
    24     9    11    1
    25     9    12    1
    26    12     5    1
    27     5     7    2
    28     5     6    1
    29     5     8    1
    30     8     1    1
    31     1     4    2
    32     1     2    1
    33     1     3    1
