@<TRIPOS>MOLECULE
1v1j_FA3_A_1.pdb
 13 13 0 0 0
SMALL
GASTEIGER

@<TRIPOS>ATOM
      1  C2        29.3690   51.4460   57.9320 C.3   201  FA3201      0.0819
      2  F1        27.7450   50.3240   61.4390 F     201  FA3201     -0.2064
      3  C3        28.5440   50.1920   57.8800 C.3   201  FA3201      0.1920
      4  O3        29.2350   49.2520   57.0620 O.3   201  FA3201     -0.2198
      5  C4        28.4350   49.6720   59.2920 C.3   201  FA3201      0.2312
      6  O4        27.4760   48.6360   59.3540 O.3   201  FA3201     -0.2131
      7  C5        28.1230   50.7020   60.2090 C.2   201  FA3201      0.1491
      8  C6        28.1960   52.0540   59.9400 C.2   201  FA3201      0.0422
      9  C         29.4380   53.6990   58.8660 C.2   201  FA3201      0.3957
     10  O1        30.7350   53.7170   58.5840 O.co2 201  FA3201     -0.2426
     11  O30       27.5280   52.9540   57.8730 O.3   201  FA3201     -0.2094
     12  O2        28.8810   54.7930   59.2600 O.co2 201  FA3201     -0.2426
     13  C1        28.5950   52.5100   58.6870 C.3   201  FA3201      0.2418
@<TRIPOS>BOND
     1     4     3    1
     2    11    13    1
     3     3     1    1
     4     3     5    1
     5     1    13    1
     6    10     9   ar
     7    13     9    1
     8    13     8    1
     9     9    12   ar
    10     5     6    1
    11     5     7    1
    12     8     7    2
    13     7     2    1
