@<TRIPOS>MOLECULE
1v1k_3FP_A_1.pdb
 33 35 0 0 0
SMALL
GASTEIGER

@<TRIPOS>ATOM
      1  C1        13.6820   -8.5830   13.3310 C.2   299  3FP299      0.3542
      2  N1        11.9190  -10.3240   14.4390 N.2   299  3FP299     -0.0073
      3  C2        12.6230   -9.1040   12.5640 C.3   299  3FP299      0.2416
      4  C7        14.2580   -5.4090    9.3020 C.ar  299  3FP299      0.0064
      5  C6        13.2990   -5.2970   10.3030 C.ar  299  3FP299      0.0333
      6  C5        13.4090   -6.0450   11.4740 C.ar  299  3FP299      0.1808
      7  C4        14.4870   -6.9260   11.6460 C.ar  299  3FP299      0.2101
      8  C3        11.7200  -10.0030   13.1650 C.2   299  3FP299      0.3541
      9  C11        9.5630  -11.5030   10.5110 C.ar  299  3FP299      0.0475
     10  C10       10.1720  -10.4300   11.1890 C.ar  299  3FP299      0.1833
     11  C9        15.4470   -7.0190   10.6380 C.ar  299  3FP299      0.0506
     12  C8        15.3400   -6.2760    9.4650 C.ar  299  3FP299      0.0751
     13  C12        9.1030  -11.3750    9.1970 C.ar  299  3FP299      0.0405
     14  C16        9.2860  -10.5320    6.1020 C.3   299  3FP299      0.2394
     15  C14        9.8250   -9.0790    9.2400 C.ar  299  3FP299      0.0405
     16  C13        9.2580  -10.1480    8.5420 C.ar  299  3FP299      0.1389
     17  C15       10.2890   -9.2010   10.5380 C.ar  299  3FP299      0.0475
     18  C         12.9250   -9.8250   15.1460 C.3   299  3FP299      0.5247
     19  N         13.7980   -8.9810   14.6210 N.2   299  3FP299     -0.0073
     20  N2        14.6340   -7.6940   12.8110 N.pl3 299  3FP299     -0.0071
     21  F1        12.4700   -5.9310   12.4440 F     299  3FP299     -0.2004
     22  N3        10.6150  -10.5950   12.5240 N.pl3 299  3FP299     -0.0094
     23  O          8.7970   -9.8710    7.2750 O.3   299  3FP299     -0.4727
     24  C21       16.4170   -6.4150    8.3870 C.3   299  3FP299      0.4187
     25  F2        16.7700   -5.1930    7.7780 F     299  3FP299     -0.1659
     26  F3        17.5840   -6.8690    9.0030 F     299  3FP299     -0.1659
     27  F4        16.0260   -7.3450    7.3990 F     299  3FP299     -0.1659
     28  C17        8.5310   -9.8690    4.9180 C.3   299  3FP299      0.2112
     29  C18        7.8630  -10.8470    3.9230 C.3   299  3FP299      0.1094
     30  C19        5.8170  -11.4900    5.0570 C.3   299  3FP299      0.0897
     31  C20        6.6690  -12.7830    3.3390 C.3   299  3FP299      0.0897
     32  N4         7.0890  -11.9730    4.4970 N.3   299  3FP299     -0.2681
     33  O1         7.5400   -8.9230    5.3700 O.3   299  3FP299     -0.2176
@<TRIPOS>BOND
     1    31    32    1
     2    29    32    1
     3    29    28    1
     4    32    30    1
     5    28    33    1
     6    28    14    1
     7    14    23    1
     8    23    16    1
     9    27    24    1
    10    25    24    1
    11    24    26    1
    12    24    12    1
    13    16    13   ar
    14    16    15   ar
    15    13     9   ar
    16    15    17   ar
    17     4    12   ar
    18     4     5   ar
    19    12    11   ar
    20     5     6   ar
    21     9    10   ar
    22    17    10   ar
    23    11     7   ar
    24    10    22    1
    25     6     7   ar
    26     6    21    1
    27     7    20    1
    28    22     8    1
    29     3     8    1
    30     3     1    1
    31    20     1    1
    32     8     2    2
    33     1    19    2
    34     2    18    1
    35    19    18    1
