@<TRIPOS>MOLECULE
1v1m_TDP_A_1.pdb
 26 27 0 0 0
SMALL
GASTEIGER

@<TRIPOS>ATOM
      1  N1'       77.0360    0.6090   11.1920 N.2   1401  TDP1401    -0.1861
      2  C2'       77.2770    1.7880   11.7620 C.1   1401  TDP1401     0.0663
      3  C2A       77.4390    1.9590   13.2600 C.3   1401  TDP1401     0.1291
      4  N3'       77.3610    2.8970   10.9710 N.2   1401  TDP1401    -0.3368
      5  C4'       77.2890    2.8230    9.6240 C.2   1401  TDP1401     0.2292
      6  N4'       77.4370    3.9870    8.9510 N.pl3 1401  TDP1401    -0.0925
      7  C5'       77.0120    1.5830    9.0030 C.2   1401  TDP1401     0.0654
      8  C6'       76.9010    0.4930    9.8570 C.2   1401  TDP1401     0.1115
      9  C35       76.8960    1.3740    7.4660 C.3   1401  TDP1401     0.1237
     10  N3        75.6220    1.9350    7.0040 N.pl3 1401  TDP1401    -0.2970
     11  C2        75.7320    3.2610    6.3570 C.3   1401  TDP1401     0.1543
     12  S1        73.9910    3.5920    5.9110 S.3   1401  TDP1401    -0.0951
     13  C5        73.3250    2.1140    6.5260 C.2   1401  TDP1401     0.0164
     14  C4        74.3850    1.3610    7.0790 C.2   1401  TDP1401     0.0279
     15  C4A       74.1640   -0.0290    7.6780 C.3   1401  TDP1401     0.0473
     16  C5A       71.8700    1.8700    6.4450 C.3   1401  TDP1401     0.0661
     17  C5B       71.0800    2.9800    7.2100 C.3   1401  TDP1401     0.1544
     18  O5G       69.6840    2.6740    7.1470 O.3   1401  TDP1401    -0.3134
     19  P1        68.6020    3.7010    7.6550 P.3   1401  TDP1401     0.2230
     20  O11       68.7530    5.0260    6.7070 O.3   1401  TDP1401    -0.2261
     21  O12       69.0390    4.1450    9.0110 O.3   1401  TDP1401    -0.4370
     22  O13       67.2820    3.0810    7.5180 O.2   1401  TDP1401    -0.5169
     23  P2        68.4430    5.1190    5.0550 P.3   1401  TDP1401     0.5373
     24  O21       69.8320    4.8360    4.3350 O.2   1401  TDP1401    -0.2221
     25  O22       67.3170    4.0740    4.7440 O.3   1401  TDP1401    -0.1143
     26  O23       67.9690    6.5360    4.8620 O.3   1401  TDP1401    -0.1143
@<TRIPOS>BOND
     1    24    23    2
     2    25    23    1
     3    26    23    1
     4    23    20    1
     5    12    11    1
     6    12    13    1
     7    11    10    1
     8    16    13    1
     9    16    17    1
    10    13    14    2
    11    20    19    1
    12    10    14    1
    13    10     9    1
    14    14    15    1
    15    18    17    1
    16    18    19    1
    17     9     7    1
    18    22    19    2
    19    19    21    1
    20     6     5    1
    21     7     5    1
    22     7     8    2
    23     5     4    2
    24     8     1    1
    25     4     2    2
    26     1     2    2
    27     2     3    1
