@<TRIPOS>MOLECULE
1v1t_III_S_1.pdb
 46 46 0 0 0
SMALL
GASTEIGER

@<TRIPOS>ATOM
      1  N          9.7830  -19.4920   33.2330 N.3     2  ASN2       -0.1225
      2  CA         9.3680  -20.0150   34.5760 C.3     2  ASN2        0.1785
      3  C          8.9710  -18.8780   35.5250 C.2     2  ASN2        0.2597
      4  O          9.6540  -17.8690   35.6160 O.2     2  ASN2       -0.2718
      5  CB        10.4920  -20.8270   35.2480 C.3     2  ASN2        0.1169
      6  CG        10.9950  -21.9840   34.3810 C.2     2  ASN2        0.2627
      7  OD1       10.2010  -22.7490   33.8280 O.2     2  ASN2       -0.2716
      8  ND2       12.3210  -22.1000   34.2510 N.am    2  ASN2       -0.0877
      9  N          7.8750  -19.0610   36.2340 N.am    3  GLU3       -0.1965
     10  CA         7.5080  -18.1170   37.3020 C.3     3  GLU3        0.1733
     11  C          7.9290  -18.6810   38.6450 C.2     3  GLU3        0.2616
     12  O          8.0990  -19.8940   38.8050 O.2     3  GLU3       -0.2715
     13  CB         6.0170  -17.7970   37.2710 C.3     3  GLU3        0.0429
     14  CG         5.0660  -18.9540   37.5660 C.3     3  GLU3        0.1163
     15  CD         3.6070  -18.6330   37.2470 C.2     3  GLU3        0.3649
     16  OE1        2.7280  -19.3070   37.8300 O.co2   3  GLU3       -0.2457
     17  OE2        3.3310  -17.7060   36.4260 O.co2   3  GLU3       -0.2457
     18  N          8.1030  -17.7870   39.6080 N.am    4  TYR4       -0.1960
     19  CA         8.5920  -18.1250   40.9320 C.3     4  TYR4        0.1771
     20  C          7.4990  -17.8200   41.9450 C.2     4  TYR4        0.2619
     21  O          6.9470  -16.7210   41.9620 O.2     4  TYR4       -0.2715
     22  CB         9.8570  -17.3330   41.2030 C.3     4  TYR4        0.0574
     23  CG        11.0630  -17.9040   40.5170 C.ar    4  TYR4       -0.0198
     24  CD1       11.9960  -18.6340   41.2310 C.ar    4  TYR4       -0.0009
     25  CD2       11.2710  -17.7280   39.1400 C.ar    4  TYR4       -0.0009
     26  CE1       13.1080  -19.1840   40.6220 C.ar    4  TYR4        0.0417
     27  CE2       12.4070  -18.2890   38.5160 C.ar    4  TYR4        0.0417
     28  CZ        13.3170  -19.0090   39.2830 C.ar    4  TYR4        0.1957
     29  OH        14.4310  -19.6170   38.7350 O.3     4  TYR4       -0.2866
     30  N          7.1350  -18.8240   42.7300 N.am    5  LYS5       -0.1963
     31  CA         6.1090  -18.7090   43.7630 C.3     5  LYS5        0.1728
     32  C          6.8240  -18.6220   45.1010 C.2     5  LYS5        0.2617
     33  O          7.5550  -19.5240   45.4880 O.2     5  LYS5       -0.2715
     34  CB         5.1530  -19.9120   43.7170 C.3     5  LYS5        0.0311
     35  CG         4.1270  -19.9900   44.8620 C.3     5  LYS5        0.0038
     36  CD         2.9790  -20.9360   44.5480 C.3     5  LYS5        0.0206
     37  CE         1.9400  -20.9010   45.6730 C.3     5  LYS5        0.1093
     38  NZ         2.5520  -21.2430   46.9830 N.3     5  LYS5       -0.1314
     39  N          6.6230  -17.5240   45.8100 N.am    6  VAL6       -0.1942
     40  CA         7.3610  -17.2320   47.0160 C.3     6  VAL6        0.1977
     41  C          6.4640  -16.6990   48.1440 C.2     6  VAL6        0.3842
     42  O          5.2250  -16.6130   48.0590 O.co2   6  VAL6       -0.2437
     43  CB         8.5210  -16.2440   46.7410 C.3     6  VAL6        0.0311
     44  CG1        9.4730  -16.8060   45.6950 C.3     6  VAL6        0.0023
     45  CG2        7.9920  -14.8700   46.2910 C.3     6  VAL6        0.0023
     46  OXT        7.0590  -16.3860   49.1750 O.co2   6  VAL6       -0.2437
@<TRIPOS>BOND
     1     1     2    1
     2     7     6    2
     3     8     6   am
     4     6     5    1
     5     2     5    1
     6     2     3    1
     7     3     4    2
     8     3     9   am
     9     9    10    1
    10    17    15   ar
    11    15    14    1
    12    15    16   ar
    13    13    10    1
    14    13    14    1
    15    10    11    1
    16    27    25   ar
    17    27    28   ar
    18    11    12    2
    19    11    18   am
    20    29    28    1
    21    25    23   ar
    22    28    26   ar
    23    18    19    1
    24    23    22    1
    25    23    24   ar
    26    26    24   ar
    27    19    22    1
    28    19    20    1
    29    20    21    2
    30    20    30   am
    31    30    31    1
    32    34    31    1
    33    34    35    1
    34    31    32    1
    35    36    35    1
    36    36    37    1
    37    32    33    2
    38    32    39   am
    39    37    38    1
    40    44    43    1
    41    39    40    1
    42    45    43    1
    43    43    40    1
    44    40    41    1
    45    42    41   ar
    46    41    46   ar
