@<TRIPOS>MOLECULE
1v25_ANP_A_1.pdb
 31 33 0 0 0
SMALL
GASTEIGER

@<TRIPOS>ATOM
      1  PG         8.2260   57.7330  160.1510 P.3   666  ANP666      0.4884
      2  O1G        9.7080   58.0320  160.0990 O.2   666  ANP666     -0.2331
      3  O2G        8.0170   56.3400  160.7040 O.3   666  ANP666     -0.1240
      4  O3G        7.5850   58.7150  161.1020 O.3   666  ANP666     -0.1240
      5  PB         6.1460   56.9150  158.3480 P.3   666  ANP666      0.4669
      6  O1B        5.1330   57.7440  157.6060 O.3   666  ANP666     -0.1253
      7  O2B        6.5340   55.6460  157.5000 O.2   666  ANP666     -0.2351
      8  N3B        7.5080   57.8210  158.6510 N.3   666  ANP666     -0.0163
      9  PA         4.5960   57.3070  160.6440 P.3   666  ANP666      0.2220
     10  O1A        5.0490   58.7450  160.6090 O.2   666  ANP666     -0.5170
     11  O2A        4.6730   56.7480  162.1210 O.3   666  ANP666     -0.4370
     12  O3A        5.4900   56.4010  159.6980 O.3   666  ANP666     -0.2360
     13  O5'        3.0890   57.2670  160.1610 O.3   666  ANP666     -0.3111
     14  C5'        2.2710   56.1220  160.3780 C.3   666  ANP666      0.1813
     15  C4'        0.8530   56.5000  160.0320 C.3   666  ANP666      0.1821
     16  O4'        0.7190   56.7730  158.6320 O.3   666  ANP666     -0.3135
     17  C3'       -0.1030   55.3380  160.3190 C.3   666  ANP666      0.2184
     18  O3'       -0.5530   55.3870  161.6690 O.3   666  ANP666     -0.2174
     19  C2'       -1.2450   55.5760  159.3250 C.3   666  ANP666      0.2570
     20  O2'       -2.1580   56.5270  159.8670 O.3   666  ANP666     -0.2130
     21  C1'       -0.5450   56.2470  158.1400 C.3   666  ANP666      0.3186
     22  N9        -0.2810   55.2380  157.1120 N.pl3 666  ANP666     -0.1439
     23  C8         0.8950   54.6220  156.9280 C.3   666  ANP666      0.3377
     24  N7         0.7520   53.7650  155.8910 N.2   666  ANP666     -0.2095
     25  C5        -0.5390   53.8720  155.4400 C.2   666  ANP666      0.2526
     26  C6        -1.2640   53.2560  154.4130 C.2   666  ANP666      0.4393
     27  N6        -0.6760   52.3360  153.6180 N.pl3 666  ANP666      0.2180
     28  N1        -2.5520   53.5820  154.2320 N.2   666  ANP666      0.0021
     29  C2        -3.1460   54.5040  155.0160 C.3   666  ANP666      0.5254
     30  N3        -2.4720   55.1210  156.0050 N.2   666  ANP666     -0.0055
     31  C4        -1.1850   54.8160  156.2340 C.2   666  ANP666      0.3518
@<TRIPOS>BOND
     1    27    26    1
     2    28    26    2
     3    28    29    1
     4    26    25    1
     5    29    30    1
     6    25    24    2
     7    25    31    1
     8    24    23    1
     9    30    31    2
    10    31    22    1
    11    23    22    1
    12    22    21    1
    13     7     5    2
    14     6     5    1
    15    21    16    1
    16    21    19    1
    17     5     8    1
    18     5    12    1
    19    16    15    1
    20     8     1    1
    21    19    20    1
    22    19    17    1
    23    12     9    1
    24    15    17    1
    25    15    14    1
    26     2     1    2
    27     1     3    1
    28     1     4    1
    29    13    14    1
    30    13     9    1
    31    17    18    1
    32    10     9    2
    33     9    11    1
