@<TRIPOS>MOLECULE
1v26_AMP_A_1.pdb
 23 25 0 0 0
SMALL
GASTEIGER

@<TRIPOS>ATOM
      1  P         27.7600   -6.1650   72.4130 P.3   1002  AMP1002     0.5327
      2  O1P       27.3270   -4.8350   71.6630 O.2   1002  AMP1002    -0.2224
      3  O2P       27.0360   -7.4060   71.7570 O.3   1002  AMP1002    -0.1145
      4  O3P       27.4670   -6.0660   73.8940 O.3   1002  AMP1002    -0.1145
      5  O5'       29.3140   -6.3250   72.1690 O.3   1002  AMP1002    -0.2675
      6  C5'       30.2150   -5.2450   72.3810 C.3   1002  AMP1002     0.1860
      7  C4'       31.5970   -5.6930   71.9750 C.3   1002  AMP1002     0.1823
      8  O4'       31.6600   -5.9530   70.5680 O.3   1002  AMP1002    -0.3135
      9  C3'       32.6050   -4.5750   72.2540 C.3   1002  AMP1002     0.2184
     10  O3'       33.1270   -4.7250   73.5710 O.3   1002  AMP1002    -0.2174
     11  C2'       33.6770   -4.7990   71.1830 C.3   1002  AMP1002     0.2570
     12  O2'       34.6250   -5.7660   71.6330 O.3   1002  AMP1002    -0.2130
     13  C1'       32.9080   -5.4310   70.0200 C.3   1002  AMP1002     0.3186
     14  N9        32.6350   -4.4230   68.9870 N.pl3 1002  AMP1002    -0.1439
     15  C8        31.4640   -3.8000   68.8050 C.3   1002  AMP1002     0.3377
     16  N7        31.5990   -2.9530   67.7540 N.2   1002  AMP1002    -0.2095
     17  C5        32.8820   -3.0670   67.2900 C.2   1002  AMP1002     0.2526
     18  C6        33.5980   -2.4610   66.2530 C.2   1002  AMP1002     0.4393
     19  N6        33.0130   -1.5390   65.4540 N.pl3 1002  AMP1002     0.2180
     20  N1        34.8790   -2.8010   66.0560 N.2   1002  AMP1002     0.0021
     21  C2        35.4720   -3.7150   66.8420 C.3   1002  AMP1002     0.5254
     22  N3        34.8100   -4.3200   67.8450 N.2   1002  AMP1002    -0.0055
     23  C4        33.5280   -4.0100   68.0860 C.2   1002  AMP1002     0.3518
@<TRIPOS>BOND
     1    19    18    1
     2    20    18    2
     3    20    21    1
     4    18    17    1
     5    21    22    1
     6    17    16    2
     7    17    23    1
     8    16    15    1
     9    22    23    2
    10    23    14    1
    11    15    14    1
    12    14    13    1
    13    13     8    1
    14    13    11    1
    15     8     7    1
    16    11    12    1
    17    11     9    1
    18     2     1    2
    19     3     1    1
    20     7     9    1
    21     7     6    1
    22     5     6    1
    23     5     1    1
    24     9    10    1
    25     1     4    1
