@<TRIPOS>MOLECULE
1v2a_GTS_A_1.pdb
 23 22 0 0 0
SMALL
GASTEIGER

@<TRIPOS>ATOM
      1  N1       -38.2730  -12.7050   45.8090 N.3   1001  GTS1001    -0.1208
      2  CA1      -39.0810  -12.1110   44.7680 C.3   1001  GTS1001     0.1948
      3  C1       -39.5370  -13.2870   43.9070 C.2   1001  GTS1001     0.3819
      4  O11      -40.6360  -13.2310   43.3880 O.co2 1001  GTS1001    -0.2441
      5  O12      -38.8000  -14.2610   43.7710 O.co2 1001  GTS1001    -0.2441
      6  CB1      -38.2150  -11.1060   44.0140 C.3   1001  GTS1001     0.0402
      7  CG1      -38.9920  -10.3810   42.8940 C.3   1001  GTS1001     0.0889
      8  CD1      -38.4490   -8.9870   42.5970 C.2   1001  GTS1001     0.2419
      9  OE1      -37.4900   -8.5050   43.1980 O.2   1001  GTS1001    -0.2733
     10  N2       -39.1140   -8.3630   41.6350 N.am  1001  GTS1001    -0.1961
     11  CA2      -38.7700   -7.0130   41.1850 C.3   1001  GTS1001     0.1924
     12  C2       -39.9510   -6.1300   41.4380 C.2   1001  GTS1001     0.2634
     13  O2       -41.0960   -6.5930   41.3300 O.2   1001  GTS1001    -0.2714
     14  CB2      -38.5160   -6.9280   39.6950 C.3   1001  GTS1001     0.1362
     15  SG2      -37.0970   -7.8500   39.0670 S.3   1001  GTS1001    -0.1938
     16  O1S      -37.2000   -9.2550   39.3690 O.3   1001  GTS1001    -0.3074
     17  O2S      -37.0840   -7.6390   37.6540 O.3   1001  GTS1001    -0.3074
     18  O3S      -35.8710   -7.3520   39.6460 O.3   1001  GTS1001    -0.3074
     19  N3       -39.6730   -4.8660   41.7650 N.am  1001  GTS1001    -0.1917
     20  CA3      -40.7540   -3.9460   42.0130 C.3   1001  GTS1001     0.2285
     21  C3       -40.9170   -3.6290   43.4530 C.2   1001  GTS1001     0.3865
     22  O31      -41.8300   -2.8510   43.7330 O.co2 1001  GTS1001    -0.2437
     23  O32      -40.1440   -4.1590   44.2630 O.co2 1001  GTS1001    -0.2437
@<TRIPOS>BOND
     1    17    15    1
     2    15    16    1
     3    15    18    1
     4    15    14    1
     5    14    11    1
     6    11    12    1
     7    11    10    1
     8    13    12    2
     9    12    19   am
    10    10     8   am
    11    19    20    1
    12    20    21    1
    13     8     7    1
    14     8     9    2
    15     7     6    1
    16     4     3   ar
    17    21    22   ar
    18    21    23   ar
    19     5     3   ar
    20     3     2    1
    21     6     2    1
    22     2     1    1
