@<TRIPOS>MOLECULE
1v2b_GLC_A_1.pdb
 12 12 0 0 0
SMALL
GASTEIGER

@<TRIPOS>ATOM
      1  C1        55.1530   29.0990   44.1150 C.3   1203  GLC1203     0.3024
      2  C2        56.4790   28.3290   44.2300 C.3   1203  GLC1203     0.2434
      3  C3        57.4940   29.1250   45.0490 C.3   1203  GLC1203     0.2199
      4  C4        57.6260   30.5430   44.4980 C.3   1203  GLC1203     0.2144
      5  C5        56.2560   31.2140   44.4430 C.3   1203  GLC1203     0.1836
      6  C6        56.3790   32.6130   43.8540 C.3   1203  GLC1203     0.2142
      7  O1        54.4880   29.1170   45.3570 O.3   1203  GLC1203    -0.1869
      8  O2        56.2820   27.0550   44.8070 O.3   1203  GLC1203    -0.2148
      9  O3        58.7450   28.4780   45.0450 O.3   1203  GLC1203    -0.2174
     10  O4        58.4980   31.3040   45.3000 O.3   1203  GLC1203    -0.2176
     11  O5        55.3660   30.4310   43.6620 O.3   1203  GLC1203    -0.3236
     12  O6        55.0950   33.1630   43.6800 O.3   1203  GLC1203    -0.2176
@<TRIPOS>BOND
     1    11     1    1
     2    11     5    1
     3    12     6    1
     4     6     5    1
     5     1     2    1
     6     1     7    1
     7     2     8    1
     8     2     3    1
     9     5     4    1
    10     4     3    1
    11     4    10    1
    12     9     3    1
