@<TRIPOS>MOLECULE
1v2d_PLP_A_1.pdb
 15 15 0 0 0
SMALL
GASTEIGER

@<TRIPOS>ATOM
      1  N1        29.9200   17.4540   15.9480 N.ar  510  PLP510     -0.2452
      2  C2        28.8140   16.8070   15.5020 C.ar  510  PLP510      0.0978
      3  C2A       28.0490   17.3750   14.2500 C.3   510  PLP510      0.0555
      4  C3        28.3900   15.6580   16.1480 C.ar  510  PLP510      0.2049
      5  O3        27.2710   15.0030   15.7280 O.3   510  PLP510     -0.2857
      6  C4        29.0830   15.1740   17.2360 C.ar  510  PLP510      0.0182
      7  C4A       28.6040   13.8650   17.9000 C.3   510  PLP510      0.0342
      8  C5        30.2290   15.8650   17.6740 C.ar  510  PLP510      0.0261
      9  C6        30.6290   16.9960   17.0250 C.ar  510  PLP510      0.0965
     10  C5A       31.0500   15.4220   18.8990 C.3   510  PLP510      0.1815
     11  O4P       31.8340   14.2690   18.6620 O.3   510  PLP510     -0.2653
     12  P         32.5270   13.5390   19.9160 P.3   510  PLP510      0.5329
     13  O1P       33.5910   12.7040   19.3120 O.2   510  PLP510     -0.2224
     14  O2P       31.4560   12.5990   20.6180 O.3   510  PLP510     -0.1145
     15  O3P       32.9310   14.5830   20.9160 O.3   510  PLP510     -0.1145
@<TRIPOS>BOND
     1     3     2    1
     2     2     1   ar
     3     2     4   ar
     4     5     4    1
     5     1     9   ar
     6     4     6   ar
     7     9     8   ar
     8     6     8   ar
     9     6     7    1
    10     8    10    1
    11    11    10    1
    12    11    12    1
    13    13    12    2
    14    12    14    1
    15    12    15    1
