@<TRIPOS>MOLECULE
1v2e_PLP_A_1.pdb
 15 15 0 0 0
SMALL
GASTEIGER

@<TRIPOS>ATOM
      1  N1        62.5890   58.9950    9.7230 N.ar  510  PLP510     -0.2452
      2  C2        63.8730   58.6180    9.5880 C.ar  510  PLP510      0.0978
      3  C2A       64.1950   57.5690    8.5600 C.3   510  PLP510      0.0555
      4  C3        64.8370   59.1890   10.3830 C.ar  510  PLP510      0.2049
      5  O3        66.1640   58.8070   10.2590 O.3   510  PLP510     -0.2857
      6  C4        64.4680   60.1590   11.3230 C.ar  510  PLP510      0.0182
      7  C4A       65.5540   60.8420   12.1890 C.3   510  PLP510      0.0342
      8  C5        63.1190   60.5240   11.4310 C.ar  510  PLP510      0.0261
      9  C6        62.2090   59.9320   10.6290 C.ar  510  PLP510      0.0965
     10  C5A       62.5940   61.5620   12.4510 C.3   510  PLP510      0.1815
     11  O4P       62.9740   62.9290   12.2090 O.3   510  PLP510     -0.2653
     12  P         62.5550   63.9750   13.2530 P.3   510  PLP510      0.5329
     13  O1P       62.5120   65.2370   12.5150 O.2   510  PLP510     -0.2224
     14  O2P       63.7440   63.9780   14.2890 O.3   510  PLP510     -0.1145
     15  O3P       61.3680   63.6130   14.0680 O.3   510  PLP510     -0.1145
@<TRIPOS>BOND
     1     3     2    1
     2     2     1   ar
     3     2     4   ar
     4     1     9   ar
     5     5     4    1
     6     4     6   ar
     7     9     8   ar
     8     6     8   ar
     9     6     7    1
    10     8    10    1
    11    11    10    1
    12    11    12    1
    13    13    12    2
    14    12    15    1
    15    12    14    1
