@<TRIPOS>MOLECULE
1v2f_HCI_A_1.pdb
 11 11 0 0 0
SMALL
GASTEIGER

@<TRIPOS>ATOM
      1  C1        83.6650   30.8060   26.7980 C.2   520  HCI520      0.3652
      2  O1        82.8100   31.0010   27.6840 O.co2 520  HCI520     -0.2456
      3  O2        83.9860   31.7080   25.9920 O.co2 520  HCI520     -0.2456
      4  C2        84.6910   29.7190   27.0670 C.3   520  HCI520      0.1187
      5  C3        85.0360   28.9170   25.8250 C.3   520  HCI520      0.0382
      6  C1'       83.9090   28.0310   25.3330 C.ar  520  HCI520     -0.0216
      7  C2'       82.7620   28.5850   24.7710 C.ar  520  HCI520     -0.0043
      8  C3'       81.7300   27.7620   24.2870 C.ar  520  HCI520     -0.0003
      9  C4'       81.8470   26.3710   24.3700 C.ar  520  HCI520     -0.0000
     10  C5'       82.9850   25.8090   24.9340 C.ar  520  HCI520     -0.0003
     11  C6'       84.0110   26.6410   25.4130 C.ar  520  HCI520     -0.0043
@<TRIPOS>BOND
     1     8     9   ar
     2     8     7   ar
     3     9    10   ar
     4     7     6   ar
     5    10    11   ar
     6     6    11   ar
     7     6     5    1
     8     5     4    1
     9     3     1   ar
    10     1     4    1
    11     1     2   ar
