@<TRIPOS>MOLECULE
1v2f_PLP_A_1.pdb
 15 15 0 0 0
SMALL
GASTEIGER

@<TRIPOS>ATOM
      1  N1        83.0080   25.0570   31.4520 N.ar  510  PLP510     -0.2452
      2  C2        83.3400   26.3680   31.5580 C.ar  510  PLP510      0.0978
      3  C2A       82.6090   27.2320   32.6210 C.3   510  PLP510      0.0555
      4  C3        84.3080   26.9110   30.7190 C.ar  510  PLP510      0.2049
      5  O3        84.6490   28.2760   30.8290 O.3   510  PLP510     -0.2857
      6  C4        84.9270   26.1010   29.7760 C.ar  510  PLP510      0.0182
      7  C4A       86.0300   26.7080   28.8730 C.3   510  PLP510      0.0342
      8  C5        84.5550   24.7330   29.6960 C.ar  510  PLP510      0.0261
      9  C6        83.5940   24.2340   30.5430 C.ar  510  PLP510      0.0965
     10  C5A       85.1250   23.7420   28.6820 C.3   510  PLP510      0.1815
     11  O4P       86.4890   23.3880   28.8270 O.3   510  PLP510     -0.2653
     12  P         87.1890   22.4560   27.7660 P.3   510  PLP510      0.5329
     13  O1P       88.2590   21.8050   28.5340 O.3   510  PLP510     -0.1145
     14  O2P       87.6760   23.5570   26.7660 O.2   510  PLP510     -0.2224
     15  O3P       86.2520   21.5670   27.0150 O.3   510  PLP510     -0.1145
@<TRIPOS>BOND
     1    14    12    2
     2    15    12    1
     3    12    13    1
     4    12    11    1
     5    10    11    1
     6    10     8    1
     7     7     6    1
     8     8     6   ar
     9     8     9   ar
    10     6     4   ar
    11     9     1   ar
    12     4     5    1
    13     4     2   ar
    14     1     2   ar
    15     2     3    1
