@<TRIPOS>MOLECULE
1v2g_OCA_A_1.pdb
 10 9 0 0 0
SMALL
GASTEIGER

@<TRIPOS>ATOM
      1  C1         6.6090   34.6810   50.4470 C.2   201  OCA201      0.3649
      2  C2         5.8040   34.1300   51.6330 C.3   201  OCA201      0.1141
      3  C3         6.3560   34.2590   53.0540 C.3   201  OCA201      0.0118
      4  C4         5.4950   33.3880   53.9650 C.3   201  OCA201      0.0006
      5  C5         4.9600   34.1950   55.1310 C.3   201  OCA201      0.0000
      6  C6         4.0860   33.4260   56.1270 C.3   201  OCA201      0.0000
      7  C7         4.6610   33.5130   57.5310 C.3   201  OCA201      0.0000
      8  C8         4.1780   34.6560   58.4500 C.3   201  OCA201      0.0000
      9  O1         7.1090   35.8210   50.3950 O.co2 201  OCA201     -0.2457
     10  O2         7.0250   34.3570   49.2290 O.co2 201  OCA201     -0.2457
@<TRIPOS>BOND
     1    10     1   ar
     2     9     1   ar
     3     1     2    1
     4     2     3    1
     5     3     4    1
     6     4     5    1
     7     5     6    1
     8     6     7    1
     9     7     8    1
