@<TRIPOS>MOLECULE
1v2h_GUN_E_1.pdb
 11 12 0 0 0
SMALL
GASTEIGER

@<TRIPOS>ATOM
      1  N9       -17.3600   87.9730    0.7640 N.2   290  GUN290     -0.1802
      2  C8       -18.3040   88.5950   -0.0880 C.3   290  GUN290      0.2633
      3  N7       -17.7240   89.3310   -1.0610 N.2   290  GUN290     -0.2212
      4  C5       -16.3410   89.1570   -0.7950 C.2   290  GUN290      0.2482
      5  C6       -15.2470   89.6920   -1.4920 C.1   290  GUN290      0.2442
      6  O6       -15.2720   90.4290   -2.4800 O.2   290  GUN290     -0.2063
      7  N1       -14.0330   89.3030   -0.9420 N.2   290  GUN290     -0.2474
      8  C2       -13.9210   88.5050    0.1330 C.1   290  GUN290      0.2608
      9  N2       -12.6910   88.2190    0.5450 N.pl3 290  GUN290     -0.0220
     10  N3       -14.9370   88.0070    0.7780 N.2   290  GUN290     -0.2682
     11  C4       -16.1150   88.3580    0.2780 C.1   290  GUN290      0.1289
@<TRIPOS>BOND
     1     6     5    2
     2     5     7    2
     3     5     4    1
     4     3     4    2
     5     3     2    1
     6     7     8    2
     7     4    11    1
     8     2     1    1
     9     8     9    1
    10     8    10    2
    11    11     1    2
    12    11    10    2
