@<TRIPOS>MOLECULE
1v2k_ZEN_T_1.pdb
 34 38 0 0 0
SMALL
GASTEIGER

@<TRIPOS>ATOM
      1  N1        43.1280   73.1170  -26.4980 N.ar    1  ZEN1       -0.2422
      2  C2        43.5910   74.3980  -26.2910 C.ar    1  ZEN1        0.1002
      3  C3        44.8300   74.8050  -26.8640 C.ar    1  ZEN1        0.0352
      4  C5        45.0600   72.5410  -27.8450 C.ar    1  ZEN1        0.0352
      5  C6        43.8210   72.1970  -27.2470 C.ar    1  ZEN1        0.1002
      6  C4        45.5820   73.8620  -27.6580 C.ar    1  ZEN1        0.0510
      7  N7        46.8470   74.2480  -28.2620 N.pl3   1  ZEN1       -0.3074
      8  C8        47.5370   75.5460  -27.9140 C.3     1  ZEN1        0.0913
      9  C9        49.0340   75.3080  -27.5470 C.3     1  ZEN1        0.0305
     10  C11       49.0580   73.2220  -28.9890 C.3     1  ZEN1        0.0305
     11  C12       47.5430   73.3730  -29.2840 C.3     1  ZEN1        0.0913
     12  C10       49.7580   74.6160  -28.7490 C.3     1  ZEN1        0.0801
     13  C13       51.2490   74.3430  -28.4810 C.2     1  ZEN1        0.2253
     14  O23       51.5450   74.1550  -27.2790 O.2     1  ZEN1       -0.2749
     15  N14       52.1920   74.2970  -29.4460 N.am    1  ZEN1       -0.2766
     16  C15       51.9140   74.5270  -30.9120 C.3     1  ZEN1        0.1126
     17  C16       52.5270   73.3440  -31.7140 C.3     1  ZEN1        0.1173
     18  C18       54.1010   72.7510  -29.8730 C.3     1  ZEN1        0.1173
     19  C19       53.6210   74.0120  -29.0850 C.3     1  ZEN1        0.1126
     20  N17       53.9560   73.0930  -31.3260 N.3     1  ZEN1       -0.1520
     21  S20       54.6690   71.9940  -32.3400 S.O2    1  ZEN1        0.0634
     22  O21       56.0380   71.7780  -31.9090 O.2     1  ZEN1       -0.1528
     23  O22       54.5250   72.5550  -33.6590 O.2     1  ZEN1       -0.1528
     24  C24       53.8130   70.4190  -32.3510 C.ar    1  ZEN1        0.1222
     25  C25       54.0640   69.4100  -31.3460 C.ar    1  ZEN1        0.0199
     26  C33       52.8090   70.1820  -33.3520 C.ar    1  ZEN1        0.0199
     27  C34       52.0750   68.9710  -33.3810 C.ar    1  ZEN1        0.0014
     28  C26       53.3290   68.1800  -31.3660 C.ar    1  ZEN1        0.0014
     29  C27       52.3210   67.9720  -32.4030 C.ar    1  ZEN1        0.0009
     30  C28       51.5920   66.7890  -32.4310 C.ar    1  ZEN1        0.0114
     31  C30       52.8000   65.9530  -30.4350 C.ar    1  ZEN1        0.0114
     32  C31       53.5580   67.1580  -30.3880 C.ar    1  ZEN1        0.0009
     33  C29       51.8150   65.7820  -31.4640 C.ar    1  ZEN1        0.0577
     34 CL32       50.8670   64.3550  -31.5640 Cl      1  ZEN1       -0.0822
@<TRIPOS>BOND
     1    23    21    2
     2    27    26   ar
     3    27    29   ar
     4    26    24   ar
     5    30    29   ar
     6    30    33   ar
     7    29    28   ar
     8    24    21    1
     9    24    25   ar
    10    21    22    2
    11    21    20    1
    12    17    20    1
    13    17    16    1
    14    34    33    1
    15    33    31   ar
    16    28    25   ar
    17    28    32   ar
    18    20    18    1
    19    16    15    1
    20    31    32   ar
    21    18    19    1
    22    15    19    1
    23    15    13   am
    24    11    10    1
    25    11     7    1
    26    10    12    1
    27    12    13    1
    28    12     9    1
    29    13    14    2
    30     7     8    1
    31     7     6    1
    32     8     9    1
    33     4     6   ar
    34     4     5   ar
    35     6     3   ar
    36     5     1   ar
    37     3     2   ar
    38     1     2   ar
