@<TRIPOS>MOLECULE
1v2n_BBA_T_1.pdb
 28 30 0 0 0
SMALL
GASTEIGER

@<TRIPOS>ATOM
      1  C8        43.6060   22.6170   51.1030 C.2     1  BBA1       -0.0011
      2  C9        44.1480   21.4790   51.9700 C.ar    1  BBA1       -0.0002
      3  C14       44.9630   21.7290   53.1220 C.ar    1  BBA1        0.0002
      4  C13       45.4370   20.6620   53.9120 C.ar    1  BBA1        0.0080
      5  C10       43.8520   20.1330   51.6060 C.ar    1  BBA1        0.0002
      6  C11       44.3330   19.0570   52.4030 C.ar    1  BBA1        0.0080
      7  C12       45.1400   19.3200   53.5490 C.ar    1  BBA1        0.0975
      8  C15       45.6570   18.1900   54.4070 C.2     1  BBA1        0.4766
      9  N16       45.1280   16.9340   54.2960 N.pl3   1  BBA1        0.2047
     10  N17       46.6630   18.4220   55.3090 N.pl3   1  BBA1        0.2047
     11  C18       42.1130   26.2480   54.3230 C.2     1  BBA1       -0.0011
     12  C19       40.8730   25.7440   55.0500 C.ar    1  BBA1       -0.0002
     13  C20       40.8900   25.6100   56.4690 C.ar    1  BBA1        0.0002
     14  C21       39.7270   25.1470   57.1580 C.ar    1  BBA1        0.0080
     15  C24       39.6900   25.4080   54.3320 C.ar    1  BBA1        0.0002
     16  C23       38.5350   24.9480   55.0130 C.ar    1  BBA1        0.0080
     17  C22       38.5420   24.8140   56.4250 C.ar    1  BBA1        0.0975
     18  C25       37.2940   24.3240   57.1370 C.2     1  BBA1        0.4766
     19  N26       36.5080   23.3580   56.5620 N.pl3   1  BBA1        0.2047
     20  N27       36.9320   24.8480   58.3480 N.pl3   1  BBA1        0.2047
     21  C1        43.0560   23.7970   51.5100 C.2     1  BBA1        0.0164
     22  C2        42.6450   24.7630   50.4190 C.3     1  BBA1        0.0296
     23  C3        43.7200   25.8790   50.2600 C.3     1  BBA1        0.0051
     24  C         43.5940   26.9650   51.3760 C.3     1  BBA1        0.0051
     25  C4        43.9970   26.4030   52.7760 C.3     1  BBA1        0.0296
     26  C5        42.8480   25.6160   53.3680 C.2     1  BBA1        0.0164
     27  C6        42.7070   24.1870   52.9230 C.2     1  BBA1        0.1877
     28  O7        42.3200   23.3360   53.7180 O.2     1  BBA1       -0.2872
@<TRIPOS>BOND
     1    23    22    1
     2    23    24    1
     3    22    21    1
     4     1    21    2
     5     1     2    1
     6    24    25    1
     7    21    27    1
     8     5     2   ar
     9     5     6   ar
    10     2     3   ar
    11     6     7   ar
    12    25    26    1
    13    27    26    1
    14    27    28    2
    15     3     4   ar
    16    26    11    2
    17     7     4   ar
    18     7     8    1
    19     9     8    2
    20    11    12    1
    21    15    16   ar
    22    15    12   ar
    23     8    10    1
    24    16    17   ar
    25    12    13   ar
    26    17    18    1
    27    17    14   ar
    28    13    14   ar
    29    19    18    2
    30    18    20    1
