@<TRIPOS>MOLECULE
1v2o_ANH_T_1.pdb
 30 31 0 0 0
SMALL
GASTEIGER

@<TRIPOS>ATOM
      1  N12       -2.1790   19.1130   17.6980 N.am  800  ANH800     -0.1941
      2  C13       -3.3420   18.3880   18.2850 C.3   800  ANH800      0.1978
      3  C30       -2.8130   17.4120   19.3340 C.3   800  ANH800      0.0595
      4  C14       -4.5090   19.2760   18.9340 C.2   800  ANH800      0.3374
      5  O17       -5.6930   19.0020   18.6310 O.2   800  ANH800     -0.2482
      6  O15       -4.1720   20.3490   19.8350 O.3   800  ANH800     -0.4432
      7  C16       -2.8160   20.7550   20.2600 C.3   800  ANH800      0.2557
      8  C21       -1.9910   16.2300   18.8300 C.ar  800  ANH800     -0.0196
      9  C22       -0.8850   15.8000   19.6050 C.ar  800  ANH800     -0.0042
     10  C23       -0.0860   14.7030   19.1910 C.ar  800  ANH800     -0.0001
     11  C24       -0.3960   14.0230   17.9840 C.ar  800  ANH800      0.0080
     12  C25       -1.5210   14.4150   17.1370 C.ar  800  ANH800      0.0972
     13  C26       -2.3140   15.5400   17.5950 C.ar  800  ANH800      0.0038
     14  C27       -1.8010   13.7190   15.9460 C.2   800  ANH800      0.4766
     15  N28       -2.3870   14.2310   14.8820 N.pl3 800  ANH800      0.2047
     16  N29       -1.5040   12.4400   15.7460 N.pl3 800  ANH800      0.2047
     17  C11       -2.2490   20.0390   16.7340 C.2   800  ANH800      0.2616
     18  C10       -0.9820   20.8100   16.4300 C.3   800  ANH800      0.2017
     19  N9        -0.9290   21.3530   15.0530 N.3   800  ANH800     -0.0678
     20  O20       -3.2690   20.2760   16.0910 O.2   800  ANH800     -0.2717
     21  C1         3.1150   25.4620   18.6410 C.3   800  ANH800      0.0310
     22  C2         2.1860   24.8390   17.6670 C.ar  800  ANH800     -0.0218
     23  C3         2.6600   24.0330   16.5760 C.ar  800  ANH800     -0.0029
     24  C4         1.7200   23.4480   15.6620 C.ar  800  ANH800      0.0196
     25  C5         0.3170   23.6990   15.8760 C.ar  800  ANH800      0.1235
     26  C6        -0.1430   24.5010   16.9570 C.ar  800  ANH800      0.0196
     27  C7         0.7910   25.0640   17.8440 C.ar  800  ANH800     -0.0029
     28  S8        -0.8880   23.0200   14.8220 S.O2  800  ANH800      0.0773
     29  O18       -0.5890   23.2410   13.2730 O.2   800  ANH800     -0.1516
     30  O19       -2.3170   23.4660   15.2990 O.2   800  ANH800     -0.1516
@<TRIPOS>BOND
     1    29    28    2
     2    28    19    1
     3    28    30    2
     4    28    25    1
     5    15    14    2
     6    19    18    1
     7    24    25   ar
     8    24    23   ar
     9    16    14    1
    10    25    26   ar
    11    14    12    1
    12    20    17    2
    13    18    17    1
    14    23    22   ar
    15    17     1   am
    16    26    27   ar
    17    12    13   ar
    18    12    11   ar
    19    13     8   ar
    20    22    27   ar
    21    22    21    1
    22     1     2    1
    23    11    10   ar
    24     2     4    1
    25     2     3    1
    26     5     4    2
    27     8     3    1
    28     8     9   ar
    29     4     6    1
    30    10     9   ar
    31     6     7    1
