@<TRIPOS>MOLECULE
1v2p_ANH_T_1.pdb
 30 31 0 0 0
SMALL
GASTEIGER

@<TRIPOS>ATOM
      1  N12       44.8690   24.1710   52.5180 N.am  800  ANH800     -0.1941
      2  C13       46.1270   23.9440   53.2980 C.3   800  ANH800      0.1978
      3  C30       46.9490   22.8700   52.5580 C.3   800  ANH800      0.0595
      4  C14       47.0480   25.2090   53.5330 C.2   800  ANH800      0.3374
      5  O17       47.5050   25.8310   52.5430 O.2   800  ANH800     -0.2482
      6  O15       47.3130   25.5760   54.8850 O.3   800  ANH800     -0.4432
      7  C16       46.7880   24.8640   56.0630 C.3   800  ANH800      0.2557
      8  C21       46.2880   21.5170   52.4030 C.ar  800  ANH800     -0.0196
      9  C22       45.4260   21.2770   51.2950 C.ar  800  ANH800     -0.0042
     10  C23       44.7810   20.0240   51.1240 C.ar  800  ANH800     -0.0001
     11  C24       45.0000   18.9950   52.0710 C.ar  800  ANH800      0.0080
     12  C25       45.8790   19.1940   53.2250 C.ar  800  ANH800      0.0972
     13  C26       46.5110   20.4880   53.3570 C.ar  800  ANH800      0.0038
     14  C27       46.0950   18.1850   54.1550 C.2   800  ANH800      0.4766
     15  N28       46.8000   18.3360   55.2620 N.pl3 800  ANH800      0.2047
     16  N29       45.6340   16.9460   54.0410 N.pl3 800  ANH800      0.2047
     17  C11       43.6320   23.8630   52.9600 C.2   800  ANH800      0.2616
     18  C10       42.4450   24.3460   52.1360 C.3   800  ANH800      0.2017
     19  N9        42.1970   25.8070   52.1270 N.3   800  ANH800     -0.0678
     20  O20       43.4350   23.2060   53.9820 O.2   800  ANH800     -0.2717
     21  C1        37.1300   24.9640   56.7690 C.3   800  ANH800      0.0310
     22  C2        38.3670   25.3410   56.0110 C.ar  800  ANH800     -0.0218
     23  C3        39.6070   24.6230   56.1710 C.ar  800  ANH800     -0.0029
     24  C4        40.7710   25.0110   55.4270 C.ar  800  ANH800      0.0196
     25  C5        40.6610   26.1310   54.5250 C.ar  800  ANH800      0.1235
     26  C6        39.4330   26.8430   54.3690 C.ar  800  ANH800      0.0196
     27  C7        38.2970   26.4460   55.1100 C.ar  800  ANH800     -0.0029
     28  S8        42.0230   26.6880   53.5760 S.O2  800  ANH800      0.0773
     29  O18       43.4310   26.5710   54.3470 O.2   800  ANH800     -0.1516
     30  O19       41.7000   28.1440   53.0380 O.2   800  ANH800     -0.1516
@<TRIPOS>BOND
     1    10     9   ar
     2    10    11   ar
     3     9     8   ar
     4    11    12   ar
     5    19    18    1
     6    19    28    1
     7    18    17    1
     8     8     3    1
     9     8    13   ar
    10     1    17   am
    11     1     2    1
    12     5     4    2
    13     3     2    1
    14    17    20    2
    15    30    28    2
    16    12    13   ar
    17    12    14    1
    18     2     4    1
    19     4     6    1
    20    28    29    2
    21    28    25    1
    22    16    14    2
    23    14    15    1
    24    26    25   ar
    25    26    27   ar
    26    25    24   ar
    27     6     7    1
    28    27    22   ar
    29    24    23   ar
    30    22    23   ar
    31    22    21    1
