@<TRIPOS>MOLECULE
1v2q_ANH_T_1.pdb
 30 31 0 0 0
SMALL
GASTEIGER

@<TRIPOS>ATOM
      1  N12       -2.2800   18.9300   17.9170 N.am  800  ANH800     -0.1941
      2  C13       -3.4640   18.2170   18.4920 C.3   800  ANH800      0.1978
      3  C30       -2.9710   17.2080   19.5280 C.3   800  ANH800      0.0595
      4  C14       -4.6140   19.1340   19.1410 C.2   800  ANH800      0.3374
      5  O17       -5.7990   18.9310   18.7760 O.2   800  ANH800     -0.2482
      6  O15       -4.2630   20.1560   20.1100 O.3   800  ANH800     -0.4432
      7  C16       -2.9090   20.4780   20.6100 C.3   800  ANH800      0.2557
      8  C21       -2.1670   16.0220   19.0020 C.ar  800  ANH800     -0.0196
      9  C22       -1.0870   15.5360   19.7790 C.ar  800  ANH800     -0.0042
     10  C23       -0.3060   14.4310   19.3350 C.ar  800  ANH800     -0.0001
     11  C24       -0.6080   13.8010   18.0980 C.ar  800  ANH800      0.0080
     12  C25       -1.7090   14.2500   17.2450 C.ar  800  ANH800      0.0972
     13  C26       -2.4810   15.3820   17.7350 C.ar  800  ANH800      0.0038
     14  C27       -1.9920   13.6130   16.0220 C.2   800  ANH800      0.4766
     15  N28       -2.6100   14.1680   15.0120 N.pl3 800  ANH800      0.2047
     16  N29       -1.6720   12.3600   15.7290 N.pl3 800  ANH800      0.2047
     17  C11       -2.3410   19.8660   16.9590 C.2   800  ANH800      0.2616
     18  C10       -1.0710   20.6410   16.6560 C.3   800  ANH800      0.2017
     19  N9        -0.9820   21.2180   15.2790 N.3   800  ANH800     -0.0678
     20  O20       -3.3590   20.1090   16.3220 O.2   800  ANH800     -0.2717
     21  C1         2.8230   25.1510   19.2420 C.3   800  ANH800      0.0310
     22  C2         1.9690   24.5760   18.1720 C.ar  800  ANH800     -0.0218
     23  C3         2.5140   23.8190   17.0730 C.ar  800  ANH800     -0.0029
     24  C4         1.6330   23.2820   16.0740 C.ar  800  ANH800      0.0196
     25  C5         0.2180   23.5290   16.2140 C.ar  800  ANH800      0.1235
     26  C6        -0.3070   24.2810   17.2990 C.ar  800  ANH800      0.0196
     27  C7         0.5700   24.7960   18.2670 C.ar  800  ANH800     -0.0029
     28  S8        -0.9330   22.9050   15.0710 S.O2  800  ANH800      0.0773
     29  O18       -0.5630   23.1630   13.5340 O.2   800  ANH800     -0.1516
     30  O19       -2.3840   23.3400   15.4840 O.2   800  ANH800     -0.1516
@<TRIPOS>BOND
     1    29    28    2
     2    15    14    2
     3    28    19    1
     4    28    30    2
     5    28    25    1
     6    19    18    1
     7    16    14    1
     8    14    12    1
     9    24    25   ar
    10    24    23   ar
    11    25    26   ar
    12    20    17    2
    13    18    17    1
    14    17     1   am
    15    23    22   ar
    16    12    13   ar
    17    12    11   ar
    18    26    27   ar
    19    13     8   ar
    20     1     2    1
    21    11    10   ar
    22    22    27   ar
    23    22    21    1
    24     2     4    1
    25     2     3    1
    26     5     4    2
    27     8     3    1
    28     8     9   ar
    29     4     6    1
    30    10     9   ar
    31     6     7    1
