@<TRIPOS>MOLECULE
1v2r_ANH_T_1.pdb
 30 31 0 0 0
SMALL
GASTEIGER

@<TRIPOS>ATOM
      1  N12       -2.2590   17.7940   16.8290 N.am  800  ANH800     -0.1941
      2  C13       -3.5220   17.1800   17.3670 C.3   800  ANH800      0.1978
      3  C30       -3.1670   16.2540   18.5350 C.3   800  ANH800      0.0595
      4  C14       -4.6950   18.1800   17.8190 C.2   800  ANH800      0.3374
      5  O17       -5.8440   17.9850   17.3540 O.2   800  ANH800     -0.2482
      6  O15       -4.4060   19.2580   18.7270 O.3   800  ANH800     -0.4432
      7  C16       -3.0960   19.5770   19.3330 C.3   800  ANH800      0.2557
      8  C21       -2.3960   14.9840   18.1870 C.ar  800  ANH800     -0.0196
      9  C22       -1.3750   14.5490   19.0660 C.ar  800  ANH800     -0.0042
     10  C23       -0.6240   13.3730   18.7900 C.ar  800  ANH800     -0.0001
     11  C24       -0.9000   12.6210   17.6180 C.ar  800  ANH800      0.0080
     12  C25       -1.9400   13.0130   16.6660 C.ar  800  ANH800      0.0972
     13  C26       -2.6840   14.2220   16.9880 C.ar  800  ANH800      0.0038
     14  C27       -2.1940   12.2450   15.5100 C.2   800  ANH800      0.4766
     15  N28       -2.8020   12.6830   14.4240 N.pl3 800  ANH800      0.2047
     16  N29       -1.8550   10.9670   15.3660 N.pl3 800  ANH800      0.2047
     17  C11       -2.2090   18.6440   15.7890 C.2   800  ANH800      0.2616
     18  C10       -0.8900   19.3420   15.4820 C.3   800  ANH800      0.2017
     19  N9        -0.8170   19.7340   14.0540 N.3   800  ANH800     -0.0678
     20  O20       -3.1750   18.8670   15.0580 O.2   800  ANH800     -0.2717
     21  C1         3.5270   24.1330   16.8910 C.3   800  ANH800      0.0310
     22  C2         2.5500   23.4060   16.0500 C.ar  800  ANH800     -0.0218
     23  C3         2.9560   22.4740   15.0330 C.ar  800  ANH800     -0.0029
     24  C4         1.9540   21.8030   14.2500 C.ar  800  ANH800      0.0196
     25  C5         0.5710   22.1060   14.5200 C.ar  800  ANH800      0.1235
     26  C6         0.1870   23.0270   15.5260 C.ar  800  ANH800      0.0196
     27  C7         1.1760   23.6660   16.2780 C.ar  800  ANH800     -0.0029
     28  S8        -0.7070   21.3550   13.6280 S.O2  800  ANH800      0.0773
     29  O18       -0.4570   21.3940   12.0590 O.2   800  ANH800     -0.1516
     30  O19       -2.0790   21.9120   14.1430 O.2   800  ANH800     -0.1516
@<TRIPOS>BOND
     1    29    28    2
     2    28    19    1
     3    28    30    2
     4    28    25    1
     5    19    18    1
     6    24    25   ar
     7    24    23   ar
     8    15    14    2
     9    25    26   ar
    10    23    22   ar
    11    20    17    2
    12    16    14    1
    13    18    17    1
    14    14    12    1
    15    26    27   ar
    16    17     1   am
    17    22    27   ar
    18    22    21    1
    19    12    13   ar
    20    12    11   ar
    21     1     2    1
    22    13     8   ar
    23     5     4    2
    24     2     4    1
    25     2     3    1
    26    11    10   ar
    27     4     6    1
    28     8     3    1
    29     8     9   ar
    30     6     7    1
    31    10     9   ar
