@<TRIPOS>MOLECULE
1v2t_ANH_T_1.pdb
 30 31 0 0 0
SMALL
GASTEIGER

@<TRIPOS>ATOM
      1  N12       -2.2950   17.9690   16.9110 N.am  800  ANH800     -0.1941
      2  C13       -3.5390   17.3060   17.3910 C.3   800  ANH800      0.1978
      3  C30       -3.1940   16.3550   18.5510 C.3   800  ANH800      0.0595
      4  C14       -4.7250   18.2880   17.8240 C.2   800  ANH800      0.3374
      5  O17       -5.8640   18.0820   17.3530 O.2   800  ANH800     -0.2482
      6  O15       -4.4480   19.3740   18.7300 O.3   800  ANH800     -0.4432
      7  C16       -3.1410   19.7050   19.3430 C.3   800  ANH800      0.2557
      8  C21       -2.4180   15.0850   18.2160 C.ar  800  ANH800     -0.0196
      9  C22       -1.3990   14.6560   19.1030 C.ar  800  ANH800     -0.0042
     10  C23       -0.6460   13.4820   18.8380 C.ar  800  ANH800     -0.0001
     11  C24       -0.9150   12.7250   17.6680 C.ar  800  ANH800      0.0080
     12  C25       -1.9500   13.1110   16.7150 C.ar  800  ANH800      0.0972
     13  C26       -2.6950   14.3160   17.0230 C.ar  800  ANH800      0.0038
     14  C27       -2.2030   12.3380   15.5590 C.2   800  ANH800      0.4766
     15  N28       -2.6820   12.8080   14.4160 N.pl3 800  ANH800      0.2047
     16  N29       -2.0000   11.0200   15.4740 N.pl3 800  ANH800      0.2047
     17  C11       -2.2320   18.7750   15.8390 C.2   800  ANH800      0.2616
     18  C10       -0.9450   19.5430   15.6260 C.3   800  ANH800      0.2017
     19  N9        -0.6660   19.8780   14.2110 N.3   800  ANH800     -0.0678
     20  O20       -3.1560   18.9130   15.0350 O.2   800  ANH800     -0.2717
     21  C1         3.8860   24.4330   16.2500 C.3   800  ANH800      0.0310
     22  C2         2.8060   23.6850   15.5830 C.ar  800  ANH800     -0.0218
     23  C3         3.0340   22.9510   14.3640 C.ar  800  ANH800     -0.0029
     24  C4         1.9500   22.2470   13.7500 C.ar  800  ANH800      0.0196
     25  C5         0.6590   22.3060   14.3810 C.ar  800  ANH800      0.1235
     26  C6         0.4430   23.0360   15.5930 C.ar  800  ANH800      0.0196
     27  C7         1.5160   23.7200   16.1840 C.ar  800  ANH800     -0.0029
     28  S8        -0.7030   21.4820   13.7020 S.O2  800  ANH800      0.0773
     29  O18       -0.7080   21.4480   12.1190 O.2   800  ANH800     -0.1516
     30  O19       -2.0190   22.0410   14.3330 O.2   800  ANH800     -0.1516
@<TRIPOS>BOND
     1    29    28    2
     2    28    19    1
     3    28    30    2
     4    28    25    1
     5    24    23   ar
     6    24    25   ar
     7    19    18    1
     8    23    22   ar
     9    25    26   ar
    10    15    14    2
    11    20    17    2
    12    16    14    1
    13    14    12    1
    14    22    27   ar
    15    22    21    1
    16    26    27   ar
    17    18    17    1
    18    17     1   am
    19    12    13   ar
    20    12    11   ar
    21     1     2    1
    22    13     8   ar
    23     5     4    2
    24     2     4    1
    25     2     3    1
    26    11    10   ar
    27     4     6    1
    28     8     3    1
    29     8     9   ar
    30     6     7    1
    31    10     9   ar
