@<TRIPOS>MOLECULE
1v2w_ANH_T_1.pdb
 30 31 0 0 0
SMALL
GASTEIGER

@<TRIPOS>ATOM
      1  N12       -2.2300   19.0600   17.5820 N.am  800  ANH800     -0.1941
      2  C13       -3.4070   18.3790   18.1940 C.3   800  ANH800      0.1978
      3  C30       -2.9030   17.3950   19.2540 C.3   800  ANH800      0.0595
      4  C14       -4.5280   19.3290   18.8380 C.2   800  ANH800      0.3374
      5  O17       -5.7260   19.1350   18.5120 O.2   800  ANH800     -0.2482
      6  O15       -4.1320   20.3700   19.7610 O.3   800  ANH800     -0.4432
      7  C16       -2.7570   20.6800   20.2080 C.3   800  ANH800      0.2557
      8  C21       -2.1280   16.1710   18.7720 C.ar  800  ANH800     -0.0196
      9  C22       -1.0760   15.6750   19.5830 C.ar  800  ANH800     -0.0042
     10  C23       -0.3200   14.5390   19.1890 C.ar  800  ANH800     -0.0001
     11  C24       -0.6200   13.8860   17.9650 C.ar  800  ANH800      0.0080
     12  C25       -1.6940   14.3480   17.0800 C.ar  800  ANH800      0.0972
     13  C26       -2.4400   15.5120   17.5220 C.ar  800  ANH800      0.0038
     14  C27       -1.9750   13.6840   15.8740 C.2   800  ANH800      0.4766
     15  N28       -2.6570   14.1910   14.8700 N.pl3 800  ANH800      0.2047
     16  N29       -1.5940   12.4440   15.5960 N.pl3 800  ANH800      0.2047
     17  C11       -2.2880   19.9770   16.6060 C.2   800  ANH800      0.2616
     18  C10       -1.0030   20.7140   16.2760 C.3   800  ANH800      0.2017
     19  N9        -0.9320   21.2560   14.8920 N.3   800  ANH800     -0.0678
     20  O20       -3.3110   20.2340   15.9770 O.2   800  ANH800     -0.2717
     21  C1         2.9430   25.4260   18.6360 C.3   800  ANH800      0.0310
     22  C2         2.0660   24.7860   17.6200 C.ar  800  ANH800     -0.0218
     23  C3         2.5960   23.9820   16.5510 C.ar  800  ANH800     -0.0029
     24  C4         1.7010   23.3830   15.5960 C.ar  800  ANH800      0.0196
     25  C5         0.2840   23.6190   15.7510 C.ar  800  ANH800      0.1235
     26  C6        -0.2270   24.4190   16.8130 C.ar  800  ANH800      0.0196
     27  C7         0.6630   24.9930   17.7360 C.ar  800  ANH800     -0.0029
     28  S8        -0.8860   22.9300   14.6560 S.O2  800  ANH800      0.0773
     29  O18       -0.5540   23.1530   13.1090 O.2   800  ANH800     -0.1516
     30  O19       -2.3250   23.3780   15.1000 O.2   800  ANH800     -0.1516
@<TRIPOS>BOND
     1    29    28    2
     2    28    19    1
     3    28    30    2
     4    28    25    1
     5    15    14    2
     6    19    18    1
     7    16    14    1
     8    24    25   ar
     9    24    23   ar
    10    25    26   ar
    11    14    12    1
    12    20    17    2
    13    18    17    1
    14    23    22   ar
    15    17     1   am
    16    26    27   ar
    17    12    13   ar
    18    12    11   ar
    19    13     8   ar
    20     1     2    1
    21    22    27   ar
    22    22    21    1
    23    11    10   ar
    24     2     4    1
    25     2     3    1
    26     5     4    2
    27     8     3    1
    28     8     9   ar
    29     4     6    1
    30    10     9   ar
    31     6     7    1
