@<TRIPOS>MOLECULE
1v2x_SAM_A_1.pdb
 27 29 0 0 0
SMALL
GASTEIGER

@<TRIPOS>ATOM
      1  N        -14.5080   -8.3170    6.4880 N.3   400  SAM400     -0.1208
      2  CA       -14.0100   -6.9160    6.9120 C.3   400  SAM400      0.1952
      3  C        -14.9880   -5.9450    6.4300 C.2   400  SAM400      0.3819
      4  O        -15.6130   -6.2930    5.3630 O.co2 400  SAM400     -0.2441
      5  OXT      -15.1410   -4.8640    7.1100 O.co2 400  SAM400     -0.2441
      6  CB       -12.6930   -6.7160    6.2900 C.3   400  SAM400      0.0414
      7  CG       -11.7600   -5.5840    6.3890 C.3   400  SAM400      0.0503
      8  SD       -10.2600   -5.8010    5.3940 S.3   400  SAM400     -0.1761
      9  CE       -10.3960   -7.3530    4.5070 C.3   400  SAM400      0.0590
     10  C5'       -8.6830   -6.0220    6.6770 C.3   400  SAM400      0.0806
     11  C4'       -8.5990   -5.2510    7.1140 C.3   400  SAM400      0.1622
     12  O4'       -8.6410   -4.1840    6.1350 O.3   400  SAM400     -0.3153
     13  C3'       -8.3600   -4.5850    8.4570 C.3   400  SAM400      0.2168
     14  O3'       -7.0280   -4.9060    8.9520 O.3   400  SAM400     -0.2175
     15  C2'       -8.5660   -3.1260    8.1430 C.3   400  SAM400      0.2569
     16  O2'       -7.6860   -2.4410    8.9500 O.3   400  SAM400     -0.2130
     17  C1'       -8.5640   -2.9090    6.6200 C.3   400  SAM400      0.3185
     18  N9        -8.8330   -1.8910    5.7510 N.pl3 400  SAM400     -0.1439
     19  C8        -9.1960   -2.3820    4.4700 C.3   400  SAM400      0.3377
     20  N7        -9.5650   -1.4920    3.6540 N.2   400  SAM400     -0.2095
     21  C5        -9.4640   -0.3620    4.3880 C.2   400  SAM400      0.2526
     22  C6        -9.8220    1.0160    4.0120 C.2   400  SAM400      0.4393
     23  N6       -10.3290    1.3110    2.8380 N.pl3 400  SAM400      0.2180
     24  N1        -9.6030    1.9340    4.9930 N.2   400  SAM400      0.0021
     25  C2        -9.0890    1.6240    6.2580 C.3   400  SAM400      0.5254
     26  N3        -8.7660    0.3580    6.6740 N.2   400  SAM400     -0.0055
     27  C4        -8.9650   -0.5690    5.7160 C.2   400  SAM400      0.3518
@<TRIPOS>BOND
     1    23    22    1
     2    20    21    2
     3    20    19    1
     4    22    21    1
     5    22    24    2
     6    21    27    1
     7    19    18    1
     8     9     8    1
     9    24    25    1
    10     4     3   ar
    11     8     7    1
    12     8    10    1
    13    27    18    1
    14    27    26    2
    15    18    17    1
    16    12    17    1
    17    12    11    1
    18    25    26    1
    19     6     7    1
    20     6     2    1
    21     3     2    1
    22     3     5   ar
    23     1     2    1
    24    17    15    1
    25    10    11    1
    26    11    13    1
    27    15    13    1
    28    15    16    1
    29    13    14    1
