@<TRIPOS>MOLECULE
1v35_NAI_A_1.pdb
 44 48 0 0 0
SMALL
GASTEIGER

@<TRIPOS>ATOM
      1  PA        51.7980   89.4220   40.7940 P.3   501  NAI501      0.2189
      2  O1A       52.9870   89.6210   39.9310 O.2   501  NAI501     -0.5170
      3  O2A       51.1370   90.3100   41.7890 O.3   501  NAI501     -0.4371
      4  O5B       50.8170   88.3100   40.1420 O.3   501  NAI501     -0.3112
      5  C5B       51.1730   87.4670   38.9770 C.3   501  NAI501      0.1813
      6  C4B       51.3290   86.0550   39.4830 C.3   501  NAI501      0.1821
      7  O4B       51.6600   85.2110   38.3100 O.3   501  NAI501     -0.3135
      8  C3B       52.5260   85.7970   40.4780 C.3   501  NAI501      0.2184
      9  O3B       52.0160   85.3160   41.7560 O.3   501  NAI501     -0.2174
     10  C2B       53.4400   84.8030   39.7630 C.3   501  NAI501      0.2570
     11  O2B       54.2230   83.9430   40.5290 O.3   501  NAI501     -0.2130
     12  C1B       52.4080   84.1400   38.8380 C.3   501  NAI501      0.3186
     13  N9A       53.0200   83.4400   37.7140 N.pl3 501  NAI501     -0.1439
     14  C8A       53.9330   83.8110   36.7240 C.3   501  NAI501      0.3377
     15  N7A       54.2210   82.8310   35.8760 N.2   501  NAI501     -0.2095
     16  C5A       53.5110   81.7510   36.2570 C.2   501  NAI501      0.2526
     17  C6A       53.3930   80.3730   35.7320 C.2   501  NAI501      0.4393
     18  N6A       54.0550   79.9530   34.6780 N.pl3 501  NAI501      0.2180
     19  N1A       52.5240   79.5500   36.4430 N.2   501  NAI501      0.0021
     20  C2A       51.8150   79.9080   37.5290 C.3   501  NAI501      0.5254
     21  N3A       51.8880   81.2000   38.0700 N.2   501  NAI501     -0.0055
     22  C4A       52.7490   82.0940   37.4030 C.2   501  NAI501      0.3518
     23  O3        51.0740   90.4190   39.7290 O.3   501  NAI501     -0.2703
     24  PN        49.7640   91.4440   39.6790 P.3   501  NAI501      0.2189
     25  O1N       50.2730   92.8120   39.4760 O.2   501  NAI501     -0.5170
     26  O2N       48.9110   91.1480   40.8780 O.3   501  NAI501     -0.4371
     27  O5D       49.0700   90.9790   38.2900 O.3   501  NAI501     -0.3112
     28  C5D       48.4420   89.6620   38.1720 C.3   501  NAI501      0.1813
     29  C4D       47.4720   89.6650   37.0490 C.3   501  NAI501      0.1799
     30  O4D       46.6090   90.8810   37.1360 O.3   501  NAI501     -0.3327
     31  C3D       48.1200   89.7400   35.6270 C.3   501  NAI501      0.2158
     32  O3D       47.3960   88.9140   34.6910 O.3   501  NAI501     -0.2175
     33  C2D       48.0260   91.2310   35.2480 C.3   501  NAI501      0.2309
     34  O2D       48.1240   91.4470   33.8670 O.3   501  NAI501     -0.2158
     35  C1D       46.6400   91.6360   35.8950 C.3   501  NAI501      0.2263
     36  N1N       46.4380   93.0970   36.2530 N.pl3 501  NAI501     -0.2787
     37  C2N       47.5840   93.7620   36.8510 C.3   501  NAI501      0.1244
     38  C3N       48.0290   94.9830   36.5250 C.2   501  NAI501      0.0544
     39  C7N       49.2300   95.5740   37.2390 C.2   501  NAI501      0.2818
     40  O7N       49.1140   96.7180   37.7310 O.2   501  NAI501     -0.2670
     41  N7N       50.3670   94.8640   37.3320 N.am  501  NAI501     -0.0839
     42  C4N       47.3720   95.8410   35.4460 C.2   501  NAI501      0.0033
     43  C5N       46.1810   95.1620   34.7970 C.2   501  NAI501      0.0157
     44  C6N       45.7690   93.8540   35.2090 C.2   501  NAI501      0.0633
@<TRIPOS>BOND
     1    34    33    1
     2    18    17    1
     3    32    31    1
     4    43    44    2
     5    43    42    1
     6    44    36    1
     7    33    31    1
     8    33    35    1
     9    42    38    2
    10    31    29    1
    11    17    16    1
    12    17    19    2
    13    15    16    2
    14    15    14    1
    15    35    36    1
    16    35    30    1
    17    36    37    1
    18    16    22    1
    19    19    20    1
    20    38    37    1
    21    38    39    1
    22    14    13    1
    23    29    30    1
    24    29    28    1
    25    39    41   am
    26    39    40    2
    27    22    13    1
    28    22    21    2
    29    20    21    1
    30    13    12    1
    31    28    27    1
    32    27    24    1
    33     7    12    1
    34     7     6    1
    35    12    10    1
    36     5     6    1
    37     5     4    1
    38    25    24    2
    39     6     8    1
    40    24    23    1
    41    24    26    1
    42    23     1    1
    43    10     8    1
    44    10    11    1
    45     2     1    2
    46     4     1    1
    47     8     9    1
    48     1     3    1
