@<TRIPOS>MOLECULE
1v39_M7G_A_1.pdb
 29 31 0 0 0
SMALL
GASTEIGER

@<TRIPOS>ATOM
      1  PA        12.5890   11.6810   23.7510 P.3   401  M7G401      0.2231
      2  O1A       13.2440   12.1970   22.5190 O.2   401  M7G401     -0.5169
      3  O2A       12.2210   12.6710   24.7950 O.3   401  M7G401     -0.4370
      4  O3A       11.2590   10.8490   23.3640 O.3   401  M7G401     -0.2261
      5  O5'       13.5510   10.5880   24.4290 O.3   401  M7G401     -0.3111
      6  PB        10.0370   11.4060   22.4660 P.3   401  M7G401      0.5373
      7  O1B        8.8460   11.8620   23.4570 O.3   401  M7G401     -0.1143
      8  O2B        9.5260   10.2340   21.7060 O.3   401  M7G401     -0.1143
      9  O3B       10.5190   12.5830   21.7050 O.2   401  M7G401     -0.2221
     10  C5'       13.8570    9.3220   23.8140 C.3   401  M7G401      0.1813
     11  C4'       15.2290    9.2940   23.1370 C.3   401  M7G401      0.1799
     12  O4'       15.3220   10.3340   22.1680 O.3   401  M7G401     -0.3326
     13  C3'       16.3420    9.5940   24.1220 C.3   401  M7G401      0.2158
     14  O3'       16.7370    8.4050   24.8240 O.3   401  M7G401     -0.2175
     15  C2'       17.4730   10.0860   23.2360 C.3   401  M7G401      0.2310
     16  O2'       18.3130    9.0250   22.7710 O.3   401  M7G401     -0.2158
     17  C1'       16.7230   10.6190   22.0130 C.3   401  M7G401      0.2287
     18  N9        16.8320   12.0780   21.8210 N.pl3 401  M7G401     -0.2454
     19  C8        16.1550   13.0790   22.4690 C.3   401  M7G401      0.1735
     20  N7        16.3810   14.2590   21.9950 N.3   401  M7G401     -0.2343
     21  CM7       15.7420   15.4640   22.4640 C.3   401  M7G401      0.0924
     22  C5        17.2790   14.0380   20.9600 C.3   401  M7G401      0.2475
     23  C6        17.8870   14.9550   20.0770 C.1   401  M7G401      0.2145
     24  O6        17.7430   16.1650   20.0260 O.2   401  M7G401     -0.2115
     25  N1        18.7290   14.3360   19.1790 N.2   401  M7G401     -0.2526
     26  C2        18.9840   12.9820   19.1140 C.1   401  M7G401      0.2525
     27  N2        19.8260   12.5540   18.1720 N.pl3 401  M7G401     -0.0226
     28  N3        18.4070   12.1100   19.9540 N.2   401  M7G401     -0.3118
     29  C4        17.5700   12.7050   20.8440 C.2   401  M7G401      0.2086
@<TRIPOS>BOND
     1    27    26    1
     2    26    25    2
     3    26    28    2
     4    25    23    2
     5    28    29    2
     6    24    23    2
     7    23    22    1
     8    29    22    1
     9    29    18    1
    10    22    20    1
    11     9     6    2
    12     8     6    1
    13    18    17    1
    14    18    19    1
    15    20    21    1
    16    20    19    1
    17    17    12    1
    18    17    15    1
    19    12    11    1
    20     6     4    1
    21     6     7    1
    22     2     1    2
    23    16    15    1
    24    11    10    1
    25    11    13    1
    26    15    13    1
    27     4     1    1
    28     1     5    1
    29     1     3    1
    30    10     5    1
    31    13    14    1
