@<TRIPOS>MOLECULE
1v39_SAH_A_1.pdb
 26 28 0 0 0
SMALL
GASTEIGER

@<TRIPOS>ATOM
      1  N         -4.1100   12.7770   23.8810 N.3   400  SAH400     -0.1208
      2  CA        -4.1290   11.8360   25.0000 C.3   400  SAH400      0.1952
      3  CB        -2.7790   11.1030   25.0980 C.3   400  SAH400      0.0422
      4  CG        -2.4320   10.3840   23.7830 C.3   400  SAH400      0.0597
      5  SD        -1.1270    9.1520   23.8530 S.3   400  SAH400     -0.1375
      6  C         -4.4920   12.5320   26.3170 C.2   400  SAH400      0.3819
      7  O         -5.2260   13.5420   26.2300 O.co2 400  SAH400     -0.2441
      8  OXT       -4.3610   11.8830   27.3810 O.co2 400  SAH400     -0.2441
      9  C5'       -1.1670    8.6270   22.1390 C.3   400  SAH400      0.0899
     10  C4'       -2.4240    7.9240   21.8010 C.3   400  SAH400      0.1630
     11  O4'       -2.4430    7.7230   20.3780 O.3   400  SAH400     -0.3153
     12  C3'       -2.6770    6.5120   22.5220 C.3   400  SAH400      0.2168
     13  O3'       -3.8450    6.4510   23.4260 O.3   400  SAH400     -0.2175
     14  C2'       -2.8880    5.6380   21.2640 C.3   400  SAH400      0.2569
     15  O2'       -3.7680    4.5080   21.4440 O.3   400  SAH400     -0.2130
     16  C1'       -3.3700    6.6700   20.2530 C.3   400  SAH400      0.3185
     17  N9        -3.3710    6.2700   18.8670 N.pl3 400  SAH400     -0.1439
     18  C8        -2.3750    5.5890   18.1410 C.3   400  SAH400      0.3377
     19  N7        -2.7860    5.3550   16.9250 N.2   400  SAH400     -0.2095
     20  C5        -4.1200    5.8340   16.8590 C.2   400  SAH400      0.2526
     21  C6        -5.1350    5.7820   15.8710 C.2   400  SAH400      0.4393
     22  N6        -4.9340    5.2360   14.6690 N.pl3 400  SAH400      0.2180
     23  N1        -6.3790    6.2090   16.1710 N.2   400  SAH400      0.0021
     24  C2        -6.6060    6.5600   17.4210 C.3   400  SAH400      0.5254
     25  N3        -5.7510    6.7200   18.4090 N.2   400  SAH400     -0.0055
     26  C4        -4.4950    6.3660   18.0540 C.2   400  SAH400      0.3518
@<TRIPOS>BOND
     1    22    21    1
     2    21    23    2
     3    21    20    1
     4    23    24    1
     5    20    19    2
     6    20    26    1
     7    19    18    1
     8    24    25    1
     9    26    25    2
    10    26    17    1
    11    18    17    1
    12    17    16    1
    13    16    11    1
    14    16    14    1
    15    11    10    1
    16    14    15    1
    17    14    12    1
    18    10     9    1
    19    10    12    1
    20     9     5    1
    21    12    13    1
    22     4     5    1
    23     4     3    1
    24     1     2    1
    25     2     3    1
    26     2     6    1
    27     7     6   ar
    28     6     8   ar
