@<TRIPOS>MOLECULE
1v3h_GLC_A_1.pdb
 11 11 0 0 0
SMALL
GASTEIGER

@<TRIPOS>ATOM
      1  C1         1.1160   29.2400   22.0070 C.3   496  GLC496      0.1777
      2  C2         1.8820   27.9550   21.6930 C.3   496  GLC496      0.2141
      3  C3         3.2690   28.3210   21.1640 C.3   496  GLC496      0.2173
      4  C4         3.1300   29.2090   19.9200 C.3   496  GLC496      0.2142
      5  C5         2.2530   30.4310   20.2300 C.3   496  GLC496      0.1810
      6  C6         1.9240   31.2360   18.9860 C.3   496  GLC496      0.2141
      7  O2         2.0050   27.1630   22.8670 O.3   496  GLC496     -0.2176
      8  O3         3.9870   27.1370   20.8420 O.3   496  GLC496     -0.2175
      9  O4         4.4170   29.6430   19.4950 O.3   496  GLC496     -0.2176
     10  O5         0.9920   30.0220   20.8170 O.3   496  GLC496     -0.3481
     11  O6         1.2370   30.4420   18.0290 O.3   496  GLC496     -0.2176
@<TRIPOS>BOND
     1    11     6    1
     2     6     5    1
     3     9     4    1
     4     4     5    1
     5     4     3    1
     6     5    10    1
     7    10     1    1
     8     8     3    1
     9     3     2    1
    10     2     1    1
    11     2     7    1
