@<TRIPOS>MOLECULE
1v3i_GLC_A_1.pdb
 11 11 0 0 0
SMALL
GASTEIGER

@<TRIPOS>ATOM
      1  C1         1.1870   29.6940   22.0340 C.3   496  GLC496      0.1777
      2  C2         1.8860   28.3620   21.7580 C.3   496  GLC496      0.2141
      3  C3         3.2790   28.6300   21.1870 C.3   496  GLC496      0.2173
      4  C4         3.1560   29.4790   19.9150 C.3   496  GLC496      0.2142
      5  C5         2.3590   30.7620   20.1980 C.3   496  GLC496      0.1810
      6  C6         2.0440   31.5260   18.9280 C.3   496  GLC496      0.2141
      7  O2         1.9810   27.5920   22.9520 O.3   496  GLC496     -0.2176
      8  O3         3.9130   27.3960   20.8850 O.3   496  GLC496     -0.2175
      9  O4         4.4500   29.8180   19.4290 O.3   496  GLC496     -0.2176
     10  O5         1.0930   30.4500   20.8240 O.3   496  GLC496     -0.3481
     11  O6         1.2720   30.7350   18.0340 O.3   496  GLC496     -0.2176
@<TRIPOS>BOND
     1    11     6    1
     2     6     5    1
     3     9     4    1
     4     4     5    1
     5     4     3    1
     6     5    10    1
     7    10     1    1
     8     8     3    1
     9     3     2    1
    10     2     1    1
    11     2     7    1
