@<TRIPOS>MOLECULE
1v3i_BGC_A_1.pdb
 12 12 0 0 0
SMALL
GASTEIGER

@<TRIPOS>ATOM
      1  C2        -7.3710   27.8230   34.2150 C.3   499  BGC499      0.2434
      2  C3        -6.4290   28.9680   33.8470 C.3   499  BGC499      0.2199
      3  C4        -5.1000   28.4110   33.3520 C.3   499  BGC499      0.2144
      4  C5        -5.3520   27.4560   32.1830 C.3   499  BGC499      0.1836
      5  C6        -4.0880   26.8110   31.6350 C.3   499  BGC499      0.2142
      6  C1        -7.5190   26.8690   33.0260 C.3   499  BGC499      0.3024
      7  O1        -8.2820   25.7760   33.4010 O.3   499  BGC499     -0.1869
      8  O2        -8.6420   28.3470   34.5720 O.3   499  BGC499     -0.2148
      9  O3        -6.2070   29.7940   34.9800 O.3   499  BGC499     -0.2174
     10  O4        -4.2600   29.4980   32.9360 O.3   499  BGC499     -0.2176
     11  O5        -6.2300   26.3880   32.6090 O.3   499  BGC499     -0.3236
     12  O6        -3.2350   26.3700   32.6800 O.3   499  BGC499     -0.2176
@<TRIPOS>BOND
     1     5     4    1
     2     5    12    1
     3     4    11    1
     4     4     3    1
     5    11     6    1
     6    10     3    1
     7     6     7    1
     8     6     1    1
     9     3     2    1
    10     2     1    1
    11     2     9    1
    12     1     8    1
