@<TRIPOS>MOLECULE
1v3l_GLC_A_1.pdb
 11 11 0 0 0
SMALL
GASTEIGER

@<TRIPOS>ATOM
      1  C1        48.6520   52.0110   21.7730 C.3   701  GLC701      0.1777
      2  C2        49.6140   50.8300   22.2480 C.3   701  GLC701      0.2141
      3  C3        49.6470   50.6270   23.7830 C.3   701  GLC701      0.2173
      4  C4        49.8180   52.0510   24.4300 C.3   701  GLC701      0.2142
      5  C5        48.4600   52.7940   24.0860 C.3   701  GLC701      0.1810
      6  C6        48.1930   54.0650   24.9400 C.3   701  GLC701      0.2141
      7  O2        49.1900   49.5690   21.7060 O.3   701  GLC701     -0.2176
      8  O3        50.6990   49.7280   24.0700 O.3   701  GLC701     -0.2175
      9  O4        50.1450   52.0450   25.8110 O.3   701  GLC701     -0.2176
     10  O5        48.5550   53.1440   22.6840 O.3   701  GLC701     -0.3481
     11  O6        49.1510   55.0160   24.5110 O.3   701  GLC701     -0.2176
@<TRIPOS>BOND
     1     7     2    1
     2     1     2    1
     3     1    10    1
     4     2     3    1
     5    10     5    1
     6     3     8    1
     7     3     4    1
     8     5     4    1
     9     5     6    1
    10     4     9    1
    11    11     6    1
