@<TRIPOS>MOLECULE
1v3l_ACI_A_1.pdb
 12 12 0 0 0
SMALL
GASTEIGER

@<TRIPOS>ATOM
      1  C1        44.9080   50.8350   18.0110 C.3   702  ACI702      0.1249
      2  C2        46.0060   49.7790   18.3030 C.3   702  ACI702      0.2020
      3  C3        46.3840   49.7960   19.8200 C.3   702  ACI702      0.2137
      4  C4        47.0180   51.2390   20.0760 C.3   702  ACI702      0.1872
      5  C5        46.0770   52.3970   19.6640 C.3   702  ACI702      0.0676
      6  C6        46.6730   53.7940   19.4940 C.3   702  ACI702      0.1847
      7  C7        45.0010   52.1470   18.7930 C.3   702  ACI702      0.0270
      8  N1        43.6280   50.1500   17.9720 N.3   702  ACI702     -0.1301
      9  O2        45.5640   48.4610   17.9520 O.3   702  ACI702     -0.2188
     10  O3        47.2630   48.6720   20.0860 O.3   702  ACI702     -0.2176
     11  O4        47.3450   51.4460   21.4860 O.3   702  ACI702     -0.2202
     12  O6        47.3570   54.2010   20.6520 O.3   702  ACI702     -0.2203
@<TRIPOS>BOND
     1     9     2    1
     2     8     1    1
     3     1     2    1
     4     1     7    1
     5     2     3    1
     6     7     5    1
     7     6     5    1
     8     6    12    1
     9     5     4    1
    10     3     4    1
    11     3    10    1
    12     4    11    1
