@<TRIPOS>MOLECULE
1v3l_GAL_A_1.pdb
 12 12 0 0 0
SMALL
GASTEIGER

@<TRIPOS>ATOM
      1  C1        40.9400   45.2890   22.4140 C.3   704  GAL704      0.3024
      2  C2        39.9080   46.3110   22.8990 C.3   704  GAL704      0.2434
      3  C3        39.5820   47.2980   21.7260 C.3   704  GAL704      0.2199
      4  C4        40.8360   47.9750   21.0720 C.3   704  GAL704      0.2144
      5  C5        42.0940   46.9880   20.9900 C.3   704  GAL704      0.1836
      6  C6        43.4080   47.8170   21.1470 C.3   704  GAL704      0.2142
      7  O1        41.0820   44.3490   23.4850 O.3   704  GAL704     -0.1869
      8  O2        38.7050   45.6580   23.3770 O.3   704  GAL704     -0.2148
      9  O3        38.7800   48.3490   22.2800 O.3   704  GAL704     -0.2174
     10  O4        40.5110   48.4250   19.7160 O.3   704  GAL704     -0.2176
     11  O5        42.1730   45.9890   22.0850 O.3   704  GAL704     -0.3236
     12  O6        43.3540   48.6850   22.2970 O.3   704  GAL704     -0.2176
@<TRIPOS>BOND
     1    10     4    1
     2     5     4    1
     3     5     6    1
     4     5    11    1
     5     4     3    1
     6     6    12    1
     7     3     9    1
     8     3     2    1
     9    11     1    1
    10     1     2    1
    11     1     7    1
    12     2     8    1
