@<TRIPOS>MOLECULE
1v3m_GAL_A_1.pdb
 12 12 0 0 0
SMALL
GASTEIGER

@<TRIPOS>ATOM
      1  C1        40.8240   45.9140   22.1520 C.3   704  GAL704      0.3024
      2  C2        39.7700   47.0550   22.3070 C.3   704  GAL704      0.2434
      3  C3        39.6890   47.8400   21.0030 C.3   704  GAL704      0.2199
      4  C4        41.1040   48.3810   20.6920 C.3   704  GAL704      0.2144
      5  C5        42.2900   47.3570   20.8380 C.3   704  GAL704      0.1836
      6  C6        43.6610   48.0360   21.0410 C.3   704  GAL704      0.2142
      7  O1        40.8040   45.0520   23.2810 O.3   704  GAL704     -0.1869
      8  O2        38.4530   46.6320   22.6500 O.3   704  GAL704     -0.2148
      9  O3        38.7140   48.8680   21.1370 O.3   704  GAL704     -0.2174
     10  O4        41.1520   48.7820   19.3310 O.3   704  GAL704     -0.2176
     11  O5        42.1330   46.4890   21.9850 O.3   704  GAL704     -0.3236
     12  O6        43.7120   48.8900   22.1770 O.3   704  GAL704     -0.2176
@<TRIPOS>BOND
     1    10     4    1
     2     4     5    1
     3     4     3    1
     4     5     6    1
     5     5    11    1
     6     3     9    1
     7     3     2    1
     8     6    12    1
     9    11     1    1
    10     1     2    1
    11     1     7    1
    12     2     8    1
