@<TRIPOS>MOLECULE
1v3m_ACI_A_1.pdb
 12 12 0 0 0
SMALL
GASTEIGER

@<TRIPOS>ATOM
      1  C1        45.5130   50.9100   17.8620 C.3   702  ACI702      0.1462
      2  C2        46.6800   49.9570   18.1050 C.3   702  ACI702      0.2065
      3  C3        47.0080   49.9310   19.5950 C.3   702  ACI702      0.2179
      4  C4        47.6550   51.2670   19.8850 C.3   702  ACI702      0.2053
      5  C5        46.7940   52.4750   19.4030 C.2   702  ACI702      0.0180
      6  C6        46.9950   53.8870   19.9650 C.3   702  ACI702      0.2066
      7  C7        45.8300   52.3110   18.4000 C.2   702  ACI702     -0.0084
      8  N1        44.3430   50.3950   18.5300 N.3   702  ACI702     -0.1254
      9  O2        46.4280   48.6690   17.6790 O.3   702  ACI702     -0.2184
     10  O3        47.8310   48.8300   19.8950 O.3   702  ACI702     -0.2172
     11  O4        47.9020   51.4010   21.2900 O.3   702  ACI702     -0.2157
     12  O6        46.5630   53.9150   21.3060 O.3   702  ACI702     -0.2155
@<TRIPOS>BOND
     1     9     2    1
     2     1     2    1
     3     1     7    1
     4     1     8    1
     5     2     3    1
     6     7     5    2
     7     5     4    1
     8     5     6    1
     9     3     4    1
    10     3    10    1
    11     4    11    1
    12     6    12    1
