@<TRIPOS>MOLECULE
1v3m_GLC_A_1.pdb
 11 11 0 0 0
SMALL
GASTEIGER

@<TRIPOS>ATOM
      1  C1        49.1690   52.0060   21.6170 C.3   701  GLC701      0.1777
      2  C2        50.1730   50.9280   22.1040 C.3   701  GLC701      0.2141
      3  C3        50.3270   50.8550   23.6210 C.3   701  GLC701      0.2173
      4  C4        50.3280   52.2460   24.2530 C.3   701  GLC701      0.2142
      5  C5        48.9330   52.8820   23.8850 C.3   701  GLC701      0.1810
      6  C6        48.5600   54.1900   24.5890 C.3   701  GLC701      0.2141
      7  O2        49.7930   49.6420   21.6980 O.3   701  GLC701     -0.2176
      8  O3        51.5360   50.2060   23.9510 O.3   701  GLC701     -0.2175
      9  O4        50.5780   52.1110   25.6440 O.3   701  GLC701     -0.2176
     10  O5        48.9710   53.1360   22.4740 O.3   701  GLC701     -0.3481
     11  O6        48.7120   55.2880   23.7010 O.3   701  GLC701     -0.2176
@<TRIPOS>BOND
     1     1     2    1
     2     1    10    1
     3     7     2    1
     4     2     3    1
     5    10     5    1
     6     3     8    1
     7     3     4    1
     8    11     6    1
     9     5     4    1
    10     5     6    1
    11     4     9    1
