@<TRIPOS>MOLECULE
1v3q_2DI_E_1.pdb
 17 19 0 0 0
SMALL
GASTEIGER

@<TRIPOS>ATOM
      1  N9       -16.9590   88.4980    0.9400 N.pl3 290  2DI290     -0.1419
      2  C4       -15.7240   88.6340    0.3740 C.2   290  2DI290      0.3530
      3  N3       -14.5110   88.2310    0.8350 N.2   290  2DI290     -0.0334
      4  C2       -13.5310   88.5540    0.0060 C.3   290  2DI290      0.4017
      5  N1       -13.7230   89.2190   -1.1720 N.2   290  2DI290     -0.1458
      6  C6       -14.9470   89.6430   -1.6700 C.1   290  2DI290      0.1792
      7  O6       -15.0010   90.2500   -2.7580 O.2   290  2DI290     -0.2203
      8  C5       -16.0050   89.3010   -0.8010 C.2   290  2DI290      0.2446
      9  N7       -17.3450   89.5410   -0.9320 N.2   290  2DI290     -0.2054
     10  C8       -17.9390   89.0350    0.1720 C.3   290  2DI290      0.3384
     11  C5'      -18.4810   90.6310    3.8780 C.3   290  2DI290      0.2161
     12  O5'      -19.8660   90.7560    3.4440 O.3   290  2DI290     -0.2173
     13  C4'      -18.2590   89.1560    4.1500 C.3   290  2DI290      0.1743
     14  O4'      -18.4950   88.4720    2.8860 O.3   290  2DI290     -0.3102
     15  C1'      -17.2830   87.8420    2.3150 C.3   290  2DI290      0.3090
     16  C2'      -16.2080   88.0290    3.4240 C.2   290  2DI290      0.0503
     17  C3'      -16.8540   88.8110    4.6300 C.2   290  2DI290      0.0077
@<TRIPOS>BOND
     1     7     6    2
     2     6     5    2
     3     6     8    1
     4     5     4    1
     5     9     8    2
     6     9    10    1
     7     8     2    1
     8     4     3    1
     9    10     1    1
    10     2     3    2
    11     2     1    1
    12     1    15    1
    13    15    14    1
    14    15    16    1
    15    14    13    1
    16    16    17    2
    17    12    11    1
    18    11    13    1
    19    13    17    1
