@<TRIPOS>MOLECULE
1v3s_ATP_A_1.pdb
 31 33 0 0 0
SMALL
GASTEIGER

@<TRIPOS>ATOM
      1  PG         0.4450    5.6490   -6.0070 P.3   200  ATP200      0.5373
      2  O1G       -0.8460    5.0310   -5.6250 O.3   200  ATP200     -0.1143
      3  O2G        0.2720    6.9190   -6.9870 O.2   200  ATP200     -0.2221
      4  O3G        1.5600    4.6620   -6.6070 O.3   200  ATP200     -0.1143
      5  PB         0.9440    7.8160   -4.3100 P.3   200  ATP200      0.2277
      6  O1B       -0.2200    8.4610   -4.9580 O.2   200  ATP200     -0.5168
      7  O2B        1.6050    8.2920   -3.0750 O.3   200  ATP200     -0.4368
      8  O3B        1.1640    6.2700   -4.7060 O.3   200  ATP200     -0.2258
      9  PA         3.4380    7.4930   -5.5110 P.3   200  ATP200      0.2189
     10  O1A        3.7030    6.8720   -6.8260 O.2   200  ATP200     -0.5170
     11  O2A        3.9850    7.0250   -4.2170 O.3   200  ATP200     -0.4371
     12  O3A        2.0680    8.3250   -5.3490 O.3   200  ATP200     -0.2700
     13  O5'        4.3720    8.7950   -5.6790 O.3   200  ATP200     -0.3112
     14  C5'        5.7440    8.6540   -6.0630 C.3   200  ATP200      0.1813
     15  C4'        6.4230   10.0190   -6.2190 C.3   200  ATP200      0.1821
     16  O4'        5.6740   10.8750   -7.0970 O.3   200  ATP200     -0.3135
     17  C3'        6.4920   10.7740   -4.8920 C.3   200  ATP200      0.2184
     18  O3'        7.6510   10.3330   -4.1800 O.3   200  ATP200     -0.2174
     19  C2'        6.7340   12.1880   -5.4170 C.3   200  ATP200      0.2570
     20  O2'        8.0840   12.3420   -5.8660 O.3   200  ATP200     -0.2130
     21  C1'        5.7820   12.2280   -6.6150 C.3   200  ATP200      0.3186
     22  N9         4.4270   12.6870   -6.2270 N.pl3 200  ATP200     -0.1439
     23  C8         3.3770   11.9150   -5.9550 C.3   200  ATP200      0.3377
     24  N7         2.3010   12.6740   -5.7540 N.2   200  ATP200     -0.2095
     25  C5         2.6700   13.9430   -5.8950 C.2   200  ATP200      0.2526
     26  C6         2.0110   15.1640   -5.8140 C.2   200  ATP200      0.4393
     27  N6         0.7020   15.2070   -5.5820 N.pl3 200  ATP200      0.2180
     28  N1         2.7060   16.2960   -6.0050 N.2   200  ATP200      0.0021
     29  C2         4.0020   16.2710   -6.2710 C.3   200  ATP200      0.5254
     30  N3         4.6580   15.1260   -6.3610 N.2   200  ATP200     -0.0055
     31  C4         4.0280   13.9550   -6.1840 C.2   200  ATP200      0.3518
@<TRIPOS>BOND
     1    16    21    1
     2    16    15    1
     3     3     1    2
     4    10     9    2
     5    21    22    1
     6    21    19    1
     7     4     1    1
     8    30    29    1
     9    30    31    2
    10    29    28    1
    11    22    31    1
    12    22    23    1
    13    15    14    1
    14    15    17    1
    15    31    25    1
    16    14    13    1
    17     1     2    1
    18     1     8    1
    19    28    26    2
    20    23    24    1
    21    25    26    1
    22    25    24    2
    23    20    19    1
    24    26    27    1
    25    13     9    1
    26     9    12    1
    27     9    11    1
    28    19    17    1
    29    12     5    1
    30     6     5    2
    31    17    18    1
    32     8     5    1
    33     5     7    1
