@<TRIPOS>MOLECULE
1v3t_NAP_A_1.pdb
 48 52 0 0 0
SMALL
GASTEIGER

@<TRIPOS>ATOM
      1  PA       -11.6730   67.6460  -11.9590 P.3   1350  NAP1350     0.2189
      2  O1A      -12.2510   68.2840  -13.0790 O.2   1350  NAP1350    -0.5170
      3  O2A      -10.5970   68.2320  -11.0860 O.3   1350  NAP1350    -0.4371
      4  O5B      -11.0950   66.2220  -12.4180 O.3   1350  NAP1350    -0.3112
      5  C5B      -10.3040   65.4270  -11.4960 C.3   1350  NAP1350     0.1813
      6  C4B       -8.8430   65.9150  -11.7830 C.3   1350  NAP1350     0.1820
      7  O4B       -8.0360   65.3690  -10.6750 O.3   1350  NAP1350    -0.3136
      8  C3B       -8.1610   65.2120  -12.9700 C.3   1350  NAP1350     0.2157
      9  O3B       -8.4670   66.0070  -14.1180 O.3   1350  NAP1350    -0.2175
     10  C2B       -6.6760   65.2860  -12.6240 C.3   1350  NAP1350     0.2314
     11  O2B       -6.0210   66.4790  -13.0480 O.3   1350  NAP1350    -0.2630
     12  C1B       -6.6770   65.2580  -11.0520 C.3   1350  NAP1350     0.3158
     13  N9A       -6.0870   64.0180  -10.5920 N.pl3 1350  NAP1350    -0.1439
     14  C8A       -6.3880   62.7180  -10.9020 C.3   1350  NAP1350     0.3377
     15  N7A       -5.6340   61.8270  -10.2820 N.2   1350  NAP1350    -0.2095
     16  C5A       -4.7860   62.6070   -9.5180 C.2   1350  NAP1350     0.2526
     17  C6A       -3.7670   62.2150   -8.6490 C.2   1350  NAP1350     0.4393
     18  N6A       -3.3830   60.9580   -8.3620 N.pl3 1350  NAP1350     0.2180
     19  N1A       -3.0730   63.2270   -8.0090 N.2   1350  NAP1350     0.0021
     20  C2A       -3.3970   64.5570   -8.2380 C.3   1350  NAP1350     0.5254
     21  N3A       -4.3920   64.9730   -9.0840 N.2   1350  NAP1350    -0.0055
     22  C4A       -5.0610   63.9600   -9.7060 C.2   1350  NAP1350     0.3518
     23  O3       -12.8220   67.2360  -10.9700 O.3   1350  NAP1350    -0.2703
     24  PN       -13.7120   68.1230  -10.0290 P.3   1350  NAP1350     0.2189
     25  O1N      -13.2590   69.5220  -10.0940 O.3   1350  NAP1350    -0.4371
     26  O2N      -15.1200   67.8250  -10.3150 O.2   1350  NAP1350    -0.5170
     27  O5D      -13.2990   67.5870   -8.5800 O.3   1350  NAP1350    -0.3112
     28  C5D      -12.1240   68.1580   -7.9160 C.3   1350  NAP1350     0.1813
     29  C4D      -12.0740   67.6040   -6.5150 C.3   1350  NAP1350     0.1799
     30  O4D      -13.1760   68.1430   -5.7520 O.3   1350  NAP1350    -0.3327
     31  C3D      -12.2360   66.0620   -6.4230 C.3   1350  NAP1350     0.2158
     32  O3D      -11.3750   65.5380   -5.4010 O.3   1350  NAP1350    -0.2175
     33  C2D      -13.7070   65.9160   -6.0520 C.3   1350  NAP1350     0.2309
     34  O2D      -13.9930   64.7060   -5.3860 O.3   1350  NAP1350    -0.2158
     35  C1D      -13.8510   67.0360   -5.0990 C.3   1350  NAP1350     0.2263
     36  N1N      -15.2110   67.5510   -4.8910 N.pl3 1350  NAP1350    -0.2787
     37  C2N      -15.7540   67.7540   -3.6250 C.3   1350  NAP1350     0.1244
     38  C3N      -17.0210   68.2400   -3.5310 C.2   1350  NAP1350     0.0544
     39  C7N      -17.5990   68.4680   -2.1470 C.2   1350  NAP1350     0.2818
     40  O7N      -18.7260   68.9080   -2.0950 O.2   1350  NAP1350    -0.2670
     41  N7N      -16.8990   68.2050   -1.0890 N.am  1350  NAP1350    -0.0839
     42  C4N      -17.8160   68.5490   -4.6980 C.2   1350  NAP1350     0.0033
     43  C5N      -17.2260   68.3280   -5.9600 C.2   1350  NAP1350     0.0157
     44  C6N      -15.9180   67.8270   -6.0770 C.2   1350  NAP1350     0.0633
     45  P2B       -4.3850   66.6290  -13.1160 P.3   1350  NAP1350     0.5328
     46  O1X       -3.9610   66.4690  -14.5770 O.2   1350  NAP1350    -0.2224
     47  O2X       -4.2110   68.0050  -12.5940 O.3   1350  NAP1350    -0.1145
     48  O3X       -3.8250   65.5090  -12.2710 O.3   1350  NAP1350    -0.1145
@<TRIPOS>BOND
     1    46    45    2
     2     9     8    1
     3    45    11    1
     4    45    47    1
     5    45    48    1
     6     2     1    2
     7    11    10    1
     8     8    10    1
     9     8     6    1
    10    10    12    1
    11     4     1    1
    12     4     5    1
    13     1     3    1
    14     1    23    1
    15     6     5    1
    16     6     7    1
    17    12     7    1
    18    12    13    1
    19    23    24    1
    20    14    13    1
    21    14    15    1
    22    13    22    1
    23    26    24    2
    24    15    16    2
    25    25    24    1
    26    24    27    1
    27    22    16    1
    28    22    21    2
    29    16    17    1
    30    21    20    1
    31    17    18    1
    32    17    19    2
    33    27    28    1
    34    20    19    1
    35    28    29    1
    36    29    31    1
    37    29    30    1
    38    31    33    1
    39    31    32    1
    40    44    43    2
    41    44    36    1
    42    33    34    1
    43    33    35    1
    44    43    42    1
    45    30    35    1
    46    35    36    1
    47    36    37    1
    48    42    38    2
    49    37    38    1
    50    38    39    1
    51    39    40    2
    52    39    41   am
