@<TRIPOS>MOLECULE
1v3v_NAP_A_1.pdb
 48 52 0 0 0
SMALL
GASTEIGER

@<TRIPOS>ATOM
      1  PA       -12.0750   67.8520  -12.0860 P.3   1350  NAP1350     0.2189
      2  O1A      -12.6880   68.4710  -13.1980 O.2   1350  NAP1350    -0.5170
      3  O2A      -11.0100   68.4680  -11.2270 O.3   1350  NAP1350    -0.4371
      4  O5B      -11.4560   66.4460  -12.5610 O.3   1350  NAP1350    -0.3112
      5  C5B      -10.6970   65.6440  -11.6210 C.3   1350  NAP1350     0.1813
      6  C4B       -9.2290   66.1340  -11.8740 C.3   1350  NAP1350     0.1820
      7  O4B       -8.4430   65.5720  -10.7490 O.3   1350  NAP1350    -0.3136
      8  C3B       -8.5250   65.4360  -13.0560 C.3   1350  NAP1350     0.2157
      9  O3B       -8.7880   66.2450  -14.2040 O.3   1350  NAP1350    -0.2175
     10  C2B       -7.0520   65.4830  -12.6660 C.3   1350  NAP1350     0.2314
     11  O2B       -6.3420   66.6520  -13.0490 O.3   1350  NAP1350    -0.2630
     12  C1B       -7.0800   65.4570  -11.1030 C.3   1350  NAP1350     0.3158
     13  N9A       -6.4700   64.2300  -10.6360 N.pl3 1350  NAP1350    -0.1439
     14  C8A       -6.7420   62.9220  -10.9340 C.3   1350  NAP1350     0.3377
     15  N7A       -5.9720   62.0540  -10.3080 N.2   1350  NAP1350    -0.2095
     16  C5A       -5.1390   62.8590   -9.5480 C.2   1350  NAP1350     0.2526
     17  C6A       -4.1100   62.4990   -8.6720 C.2   1350  NAP1350     0.4393
     18  N6A       -3.6960   61.2520   -8.3720 N.pl3 1350  NAP1350     0.2180
     19  N1A       -3.4400   63.5350   -8.0410 N.2   1350  NAP1350     0.0021
     20  C2A       -3.7920   64.8610   -8.2830 C.3   1350  NAP1350     0.5254
     21  N3A       -4.8000   65.2430   -9.1400 N.2   1350  NAP1350    -0.0055
     22  C4A       -5.4450   64.2050   -9.7500 C.2   1350  NAP1350     0.3518
     23  O3       -13.1990   67.3910  -11.0740 O.3   1350  NAP1350    -0.2703
     24  PN       -14.1480   68.2490  -10.1530 P.3   1350  NAP1350     0.2189
     25  O1N      -13.7880   69.6680  -10.2960 O.3   1350  NAP1350    -0.4371
     26  O2N      -15.5350   67.8360  -10.4070 O.2   1350  NAP1350    -0.5170
     27  O5D      -13.7080   67.8040   -8.6970 O.3   1350  NAP1350    -0.3112
     28  C5D      -12.4660   68.3010   -8.1130 C.3   1350  NAP1350     0.1813
     29  C4D      -12.4030   67.7900   -6.6840 C.3   1350  NAP1350     0.1799
     30  O4D      -13.5150   68.3290   -5.9480 O.3   1350  NAP1350    -0.3327
     31  C3D      -12.5320   66.2400   -6.5220 C.3   1350  NAP1350     0.2158
     32  O3D      -11.6690   65.7720   -5.4710 O.3   1350  NAP1350    -0.2175
     33  C2D      -13.9900   66.0760   -6.1250 C.3   1350  NAP1350     0.2309
     34  O2D      -14.2140   64.8920   -5.3920 O.3   1350  NAP1350    -0.2158
     35  C1D      -14.1460   67.2380   -5.2270 C.3   1350  NAP1350     0.2263
     36  N1N      -15.5140   67.7160   -5.0000 N.pl3 1350  NAP1350    -0.2787
     37  C2N      -16.0350   67.9100   -3.7250 C.3   1350  NAP1350     0.1244
     38  C3N      -17.3230   68.3590   -3.6050 C.2   1350  NAP1350     0.0544
     39  C7N      -17.8800   68.5670   -2.2040 C.2   1350  NAP1350     0.2818
     40  O7N      -19.0190   68.9510   -2.1340 O.2   1350  NAP1350    -0.2670
     41  N7N      -17.1530   68.3320   -1.1470 N.am  1350  NAP1350    -0.0839
     42  C4N      -18.1540   68.6340   -4.7630 C.2   1350  NAP1350     0.0033
     43  C5N      -17.5850   68.4270   -6.0340 C.2   1350  NAP1350     0.0157
     44  C6N      -16.2600   67.9660   -6.1790 C.2   1350  NAP1350     0.0633
     45  P2B       -4.7900   66.5360  -13.4700 P.3   1350  NAP1350     0.5328
     46  O1X       -4.0870   67.3120  -14.5700 O.2   1350  NAP1350    -0.2224
     47  O2X       -4.0410   65.9080  -12.3400 O.3   1350  NAP1350    -0.1145
     48  O3X       -4.7410   67.8850  -12.7930 O.3   1350  NAP1350    -0.1145
@<TRIPOS>BOND
     1    46    45    2
     2     9     8    1
     3    45    11    1
     4    45    48    1
     5    45    47    1
     6     2     1    2
     7     8    10    1
     8     8     6    1
     9    11    10    1
    10    10    12    1
    11     4     1    1
    12     4     5    1
    13     1     3    1
    14     1    23    1
    15     6     5    1
    16     6     7    1
    17    12     7    1
    18    12    13    1
    19    23    24    1
    20    14    13    1
    21    14    15    1
    22    13    22    1
    23    26    24    2
    24    15    16    2
    25    25    24    1
    26    24    27    1
    27    22    16    1
    28    22    21    2
    29    16    17    1
    30    21    20    1
    31    27    28    1
    32    17    18    1
    33    17    19    2
    34    20    19    1
    35    28    29    1
    36    29    31    1
    37    29    30    1
    38    31    33    1
    39    31    32    1
    40    44    43    2
    41    44    36    1
    42    33    34    1
    43    33    35    1
    44    43    42    1
    45    30    35    1
    46    35    36    1
    47    36    37    1
    48    42    38    2
    49    37    38    1
    50    38    39    1
    51    39    40    2
    52    39    41   am
