@<TRIPOS>MOLECULE
1v3v_5OP_A_1.pdb
 10 9 0 0 0
SMALL
GASTEIGER

@<TRIPOS>ATOM
      1  C3       -21.0100   65.6310   -2.9200 C.3   1360  5OP1360     0.0308
      2  C4       -19.6750   65.4140   -3.5840 C.2   1360  5OP1360    -0.0229
      3  C5       -18.5530   65.0300   -2.9420 C.2   1360  5OP1360     0.0329
      4  C6       -17.2780   64.8410   -3.6770 C.2   1360  5OP1360     0.1728
      5  C7       -16.0340   64.4130   -2.8930 C.3   1360  5OP1360     0.0691
      6  C8       -16.2240   63.0660   -2.1880 C.3   1360  5OP1360     0.0081
      7  C9       -14.9690   62.6620   -1.4030 C.3   1360  5OP1360     0.0005
      8  C13      -15.1210   61.3210   -0.6830 C.3   1360  5OP1360     0.0000
      9  C14      -13.8580   60.9360    0.0920 C.3   1360  5OP1360     0.0000
     10  O4       -17.2400   65.0310   -4.8500 O.2   1360  5OP1360    -0.2913
@<TRIPOS>BOND
     1    10     4    2
     2     4     3    1
     3     4     5    1
     4     2     3    2
     5     2     1    1
     6     5     6    1
     7     6     7    1
     8     7     8    1
     9     8     9    1
