@<TRIPOS>MOLECULE
1v3x_D76_A_1.pdb
 35 39 0 0 0
SMALL
GASTEIGER

@<TRIPOS>ATOM
      1  CZ7        9.7770    0.3270   16.8850 C.3   700  D76700      0.0897
      2  NZ2        8.8880    1.4080   17.3350 N.3   700  D76700     -0.2700
      3  CZ3        8.1500    1.0110   18.5780 C.3   700  D76700      0.0903
      4  CZ4        9.5380    2.7670   17.3910 C.3   700  D76700      0.0793
      5  CZ5        8.5460    3.9030   17.7650 C.3   700  D76700      0.0727
      6  CZ6        7.5950    3.5130   18.8950 C.2   700  D76700      0.1003
      7  CZ2        7.4390    2.1940   19.2350 C.3   700  D76700      0.1182
      8  NZ1        6.8460    4.3850   19.6390 N.2   700  D76700     -0.3987
      9  CZ1        6.1340    3.6760   20.5460 C.2   700  D76700      0.2099
     10  SZ1        6.3410    1.9780   20.5220 S.3   700  D76700     -0.0705
     11  CC1        5.1500    4.2030   21.5870 C.2   700  D76700      0.2852
     12  OC1        4.6270    3.3610   22.3410 O.2   700  D76700     -0.2665
     13  NP2        4.8500    5.5250   21.6730 N.am  700  D76700     -0.2642
     14  CP3        4.0740    6.0250   22.8560 C.3   700  D76700      0.1134
     15  CP4        5.0210    6.8520   23.7360 C.3   700  D76700      0.1173
     16  CP2        5.5400    6.5710   20.8060 C.3   700  D76700      0.1734
     17  CC2        4.5900    7.5120   19.9910 C.2   700  D76700      0.2803
     18  OC2        4.9300    8.6030   19.5210 O.2   700  D76700     -0.2698
     19  NC2        3.3390    7.1600   19.7830 N.am  700  D76700     -0.0863
     20  CP1        6.4650    7.4040   21.7340 C.3   700  D76700      0.1251
     21  NP1        5.6690    7.8790   22.8930 N.3   700  D76700     -0.1516
     22  S1         6.1310    9.3630   23.5960 S.O2  700  D76700      0.0634
     23  O1         5.3340    9.6380   24.9390 O.2   700  D76700     -0.1528
     24  O2         6.0510   10.4380   22.4280 O.2   700  D76700     -0.1528
     25  CN1        7.8130    9.0440   24.0090 C.ar  700  D76700      0.1222
     26  CN2        8.8150    9.4950   23.1520 C.ar  700  D76700      0.0199
     27  CN3       10.1500    9.2170   23.4840 C.ar  700  D76700      0.0014
     28  CN4       10.4690    8.4910   24.6490 C.ar  700  D76700      0.0009
     29  CN5       11.7970    8.2070   24.9810 C.ar  700  D76700      0.0114
     30  CN9        9.4070    7.9940   25.5200 C.ar  700  D76700      0.0014
     31  C10        8.0820    8.2960   25.1740 C.ar  700  D76700      0.0199
     32  CN8        9.7420    7.2870   26.6790 C.ar  700  D76700      0.0009
     33  CN7       11.0830    7.0300   26.9910 C.ar  700  D76700      0.0114
     34  CN6       12.1070    7.4830   26.1370 C.ar  700  D76700      0.0577
     35 CL1        13.8160    7.1700   26.4730 Cl    700  D76700     -0.0822
@<TRIPOS>BOND
     1     1     2    1
     2     2     4    1
     3     2     3    1
     4     4     5    1
     5     5     6    1
     6     3     7    1
     7     6     7    1
     8     6     8    2
     9     7    10    1
    10    18    17    2
    11     8     9    2
    12    19    17   am
    13    17    16    1
    14    10     9    1
    15     9    11    1
    16    16    13    1
    17    16    20    1
    18    11    13   am
    19    11    12    2
    20    13    14    1
    21    20    21    1
    22    24    22    2
    23    14    15    1
    24    21    22    1
    25    21    15    1
    26    26    27   ar
    27    26    25   ar
    28    27    28   ar
    29    22    25    1
    30    22    23    2
    31    25    31   ar
    32    28    29   ar
    33    28    30   ar
    34    29    34   ar
    35    31    30   ar
    36    30    32   ar
    37    34    35    1
    38    34    33   ar
    39    32    33   ar
