@<TRIPOS>MOLECULE
1v40_O16_A_1.pdb
 34 39 0 0 0
SMALL
GASTEIGER

@<TRIPOS>ATOM
      1  O1        35.0400   27.2700   43.2470 O.2   3201  O163201    -0.2204
      2  C1        34.4080   26.4060   43.8120 C.1   3201  O163201     0.1740
      3  N1        34.8470   25.1310   43.8110 N.2   3201  O163201    -0.0623
      4  N2        34.1500   24.1070   44.4490 N.2   3201  O163201    -0.0623
      5  C2        32.9940   24.3320   45.1030 C.1   3201  O163201     0.1740
      6  O2        32.4140   23.4130   45.6520 O.2   3201  O163201    -0.2204
      7  C3        32.4370   25.7010   45.1510 C.ar  3201  O163201     0.0969
      8  C4        31.2530   25.9750   45.8120 C.ar  3201  O163201     0.0307
      9  C5        30.7670   27.2840   45.8330 C.ar  3201  O163201     0.0930
     10  N3        29.5930   27.5690   46.4930 N.pl3 3201  O163201    -0.1056
     11  N4        28.4270   27.6730   45.9640 N.2   3201  O163201    -0.1030
     12  C6        27.5100   27.9540   46.8900 C.1   3201  O163201     0.0734
     13  C7        26.0690   28.1450   46.6310 C.2   3201  O163201     0.0748
     14  C8        25.6380   28.3780   45.3830 C.2   3201  O163201     0.0108
     15  C9        24.2010   28.5650   45.1250 C.ar  3201  O163201     0.0007
     16  C10       23.7460   28.8050   43.8270 C.ar  3201  O163201     0.0000
     17  C11       22.3980   28.9880   43.5900 C.ar  3201  O163201     0.0000
     18  C12       21.5000   28.9270   44.6380 C.ar  3201  O163201     0.0000
     19  C13       21.9400   28.6870   45.9290 C.ar  3201  O163201     0.0000
     20  C14       23.2870   28.4960   46.1740 C.ar  3201  O163201     0.0000
     21  N5        28.0860   28.0330   48.0750 N.2   3201  O163201    -0.1002
     22  N6        29.4510   27.7770   47.8750 N.pl3 3201  O163201    -0.0721
     23  C15       30.4540   27.7560   48.8370 C.2   3201  O163201     0.2528
     24  N7        30.3840   28.0720   50.1050 N.2   3201  O163201    -0.3768
     25  C16       31.4440   28.0030   50.9320 C.2   3201  O163201     0.1392
     26  C17       31.5030   28.3120   52.3130 C.2   3201  O163201     0.0284
     27  C18       32.6710   28.1830   53.0130 C.2   3201  O163201    -0.0188
     28  C19       33.8400   27.7460   52.4030 C.3   3201  O163201     0.0527
     29  C20       33.8240   27.4400   51.0550 C.2   3201  O163201    -0.0123
     30  C21       32.6530   27.5620   50.3460 C.2   3201  O163201     0.0588
     31  S1        32.1710   27.2800   48.6590 S.3   3201  O163201    -0.0346
     32  C22       31.4720   28.3090   45.1920 C.ar  3201  O163201     0.0191
     33  C23       32.6450   28.0340   44.5340 C.ar  3201  O163201     0.0138
     34  C24       33.1440   26.7360   44.5120 C.ar  3201  O163201     0.0956
@<TRIPOS>BOND
     1     1     2    2
     2    17    16   ar
     3    17    18   ar
     4     3     2    2
     5     3     4    1
     6     2    34    1
     7    16    15   ar
     8     4     5    2
     9    34    33   ar
    10    34     7   ar
    11    33    32   ar
    12    18    19   ar
    13     5     7    1
    14     5     6    2
    15    15    14    1
    16    15    20   ar
    17     7     8   ar
    18    32     9   ar
    19    14    13    2
    20     8     9   ar
    21     9    10    1
    22    19    20   ar
    23    11    10    1
    24    11    12    2
    25    10    22    1
    26    13    12    1
    27    12    21    2
    28    22    21    1
    29    22    23    1
    30    31    23    1
    31    31    30    1
    32    23    24    2
    33    24    25    2
    34    30    25    1
    35    30    29    2
    36    25    26    1
    37    29    28    1
    38    26    27    2
    39    28    27    1
