@<TRIPOS>MOLECULE
1v40_GSH_A_1.pdb
 20 19 0 0 0
SMALL
GASTEIGER

@<TRIPOS>ATOM
      1  N1        25.9330   26.3170   36.8280 N.3   3200  GSH3200    -0.1208
      2  CA1       26.4340   25.0690   37.4190 C.3   3200  GSH3200     0.1948
      3  C1        25.3250   24.2450   38.1270 C.2   3200  GSH3200     0.3819
      4  O11       24.3640   24.8450   38.6340 O.co2 3200  GSH3200    -0.2441
      5  O12       25.4750   22.9380   38.1550 O.co2 3200  GSH3200    -0.2441
      6  CB1       27.5750   25.3940   38.4100 C.3   3200  GSH3200     0.0402
      7  CG1       28.6120   24.2410   38.4920 C.3   3200  GSH3200     0.0889
      8  CD1       29.7160   24.6340   39.5000 C.2   3200  GSH3200     0.2418
      9  OE1       30.4420   25.6280   39.2980 O.2   3200  GSH3200    -0.2733
     10  N2        29.8060   23.8220   40.5790 N.am  3200  GSH3200    -0.1968
     11  CA2       30.8110   24.0680   41.6280 C.3   3200  GSH3200     0.1843
     12  C2        32.0320   23.1440   41.4160 C.2   3200  GSH3200     0.2627
     13  O2        31.9260   22.0040   40.9360 O.2   3200  GSH3200    -0.2714
     14  CB2       30.2060   23.7710   43.0220 C.3   3200  GSH3200     0.0997
     15  SG2       29.0260   25.0470   43.5580 S.3   3200  GSH3200    -0.0797
     16  N3        33.2370   23.6620   41.8040 N.am  3200  GSH3200    -0.1917
     17  CA3       34.5190   22.9290   41.6970 C.3   3200  GSH3200     0.2285
     18  C3        35.2930   23.3610   40.4640 C.2   3200  GSH3200     0.3865
     19  O31       36.3890   22.7990   40.2880 O.co2 3200  GSH3200    -0.2437
     20  O32       34.8030   24.2380   39.7100 O.co2 3200  GSH3200    -0.2437
@<TRIPOS>BOND
     1     1     2    1
     2     2     3    1
     3     2     6    1
     4     3     5   ar
     5     3     4   ar
     6     6     7    1
     7     7     8    1
     8     9     8    2
     9     8    10   am
    10    20    18   ar
    11    19    18   ar
    12    18    17    1
    13    10    11    1
    14    13    12    2
    15    12    11    1
    16    12    16   am
    17    11    14    1
    18    17    16    1
    19    14    15    1
