@<TRIPOS>MOLECULE
1v41_AZG_E_1.pdb
 11 12 0 0 0
SMALL
GASTEIGER

@<TRIPOS>ATOM
      1  C4        53.2130   47.2580   27.1640 C.1   290  AZG290      0.1515
      2  N3        54.3140   46.6660   27.6860 N.2   290  AZG290     -0.2665
      3  C2        55.4170   46.9960   27.0110 C.1   290  AZG290      0.2609
      4  N2        56.5870   46.5030   27.3780 N.pl3 290  AZG290     -0.0220
      5  N1        55.4500   47.8230   25.9230 N.2   290  AZG290     -0.2474
      6  C6        54.3400   48.4560   25.3500 C.1   290  AZG290      0.2462
      7  O6        54.4920   49.1930   24.3490 O.2   290  AZG290     -0.2062
      8  C5        53.1260   48.1130   26.0580 C.2   290  AZG290      0.2716
      9  N7        51.7870   48.5190   25.8340 N.2   290  AZG290     -0.1149
     10  N8        51.0800   47.9060   26.7860 N.pl3 290  AZG290     -0.0026
     11  N9        51.8950   47.1160   27.6310 N.2   290  AZG290     -0.0705
@<TRIPOS>BOND
     1     7     6    2
     2     6     5    2
     3     6     8    1
     4     9     8    2
     5     9    10    1
     6     5     3    2
     7     8     1    1
     8    10    11    1
     9     3     4    1
    10     3     2    2
    11     1    11    2
    12     1     2    2
