@<TRIPOS>MOLECULE
1v45_3DG_E_1.pdb
 19 21 0 0 0
SMALL
GASTEIGER

@<TRIPOS>ATOM
      1  N9        53.2330  129.0760   55.6190 N.pl3 290  3DG290     -0.2354
      2  C1'       52.8020  128.3940   56.8890 C.3   290  3DG290      0.2266
      3  C2'       53.8130  127.8330   57.9740 C.3   290  3DG290      0.2010
      4  C3'       53.4370  128.5530   59.3730 C.3   290  3DG290      0.0696
      5  C4'       52.4900  129.6940   58.8900 C.3   290  3DG290      0.1527
      6  O4'       51.9230  129.3140   57.6020 O.3   290  3DG290     -0.3352
      7  C5'       53.1470  131.0500   58.6360 C.3   290  3DG290      0.2115
      8  O5'       52.0820  131.9250   58.1500 O.3   290  3DG290     -0.2177
      9  O2'       53.5840  126.3930   58.1150 O.3   290  3DG290     -0.2185
     10  C8        52.2680  129.6170   54.7810 C.3   290  3DG290      0.2246
     11  N7        52.9240  130.1750   53.7250 N.2   290  3DG290     -0.2322
     12  C5        54.2580  129.9660   53.9660 C.2   290  3DG290      0.2182
     13  C6        55.3150  130.3670   53.1740 C.1   290  3DG290      0.2372
     14  O6        55.2260  131.0260   52.0990 O.2   290  3DG290     -0.2069
     15  N1        56.5560  129.9690   53.7170 N.2   290  3DG290     -0.2485
     16  C2        56.7000  129.2580   54.8950 C.1   290  3DG290      0.2531
     17  N2        57.9460  128.9700   55.3080 N.pl3 290  3DG290     -0.0226
     18  N3        55.6810  128.8720   55.6560 N.2   290  3DG290     -0.3074
     19  C4        54.4990  129.2570   55.1320 C.2   290  3DG290      0.2300
@<TRIPOS>BOND
     1    14    13    2
     2    13    15    2
     3    13    12    1
     4    15    16    2
     5    11    12    2
     6    11    10    1
     7    12    19    1
     8    10     1    1
     9    16    17    1
    10    16    18    2
    11    19     1    1
    12    19    18    2
    13     1     2    1
    14     2     6    1
    15     2     3    1
    16     6     5    1
    17     3     9    1
    18     3     4    1
    19     8     7    1
    20     7     5    1
    21     5     4    1
