@<TRIPOS>MOLECULE
1v47_ADX_A_1.pdb
 27 29 0 0 0
SMALL
GASTEIGER

@<TRIPOS>ATOM
      1  SB       -10.4730   55.4080  186.8840 S.3   564  ADX564      0.0049
      2  O1B       -9.6450   55.8140  188.0230 O.3   564  ADX564     -0.2679
      3  O2B      -10.4720   56.2840  185.7410 O.2   564  ADX564     -0.3449
      4  O3B      -10.1110   54.0510  186.4090 O.2   564  ADX564     -0.3449
      5  PA       -13.1700   54.3940  186.7860 P.3   564  ADX564      0.2383
      6  O1A      -12.9510   53.0300  187.2650 O.3   564  ADX564     -0.4361
      7  O2A      -14.4740   55.0060  187.0910 O.2   564  ADX564     -0.5161
      8  O3A      -11.9930   55.3170  187.4160 O.3   564  ADX564     -0.1945
      9  O5'      -12.7800   54.4650  185.2520 O.3   564  ADX564     -0.3102
     10  C5'      -13.4270   53.8410  184.2950 C.3   564  ADX564      0.1814
     11  C4'      -12.7980   54.1550  182.9830 C.3   564  ADX564      0.1821
     12  O4'      -13.9850   54.6910  182.3190 O.3   564  ADX564     -0.3135
     13  C3'      -11.8160   55.3800  182.7640 C.3   564  ADX564      0.2184
     14  O3'      -11.3000   55.3900  181.3700 O.3   564  ADX564     -0.2174
     15  C2'      -12.7440   56.6030  182.9480 C.3   564  ADX564      0.2570
     16  O2'      -12.1850   57.7710  182.4020 O.3   564  ADX564     -0.2130
     17  C1'      -14.0060   56.1840  182.2370 C.3   564  ADX564      0.3186
     18  N9       -15.2800   56.6450  182.7640 N.pl3 564  ADX564     -0.1439
     19  C8       -15.8310   56.5580  184.0170 C.3   564  ADX564      0.3377
     20  N7       -17.0100   57.0950  184.1720 N.2   564  ADX564     -0.2095
     21  C5       -17.2750   57.5800  182.9280 C.2   564  ADX564      0.2526
     22  C6       -18.4160   58.3020  182.4000 C.2   564  ADX564      0.4393
     23  N6       -19.4920   58.6380  183.1240 N.pl3 564  ADX564      0.2180
     24  N1       -18.3280   58.6370  181.0740 N.2   564  ADX564      0.0021
     25  C2       -17.2020   58.2880  180.3320 C.3   564  ADX564      0.5254
     26  N3       -16.0830   57.6290  180.6990 N.2   564  ADX564     -0.0055
     27  C4       -16.2080   57.3050  182.0420 C.2   564  ADX564      0.3518
@<TRIPOS>BOND
     1    25    26    1
     2    25    24    1
     3    26    27    2
     4    24    22    2
     5    14    13    1
     6    27    18    1
     7    27    21    1
     8    17    12    1
     9    17    18    1
    10    17    15    1
    11    12    11    1
    12    22    21    1
    13    22    23    1
    14    16    15    1
    15    18    19    1
    16    13    15    1
    17    13    11    1
    18    21    20    2
    19    11    10    1
    20    19    20    1
    21    10     9    1
    22     9     5    1
    23     3     1    2
    24     4     1    2
    25     5     7    2
    26     5     6    1
    27     5     8    1
    28     1     8    1
    29     1     2    1
