@<TRIPOS>MOLECULE
1v48_HA1_A_1.pdb
 22 23 0 0 0
SMALL
GASTEIGER

@<TRIPOS>ATOM
      1  N9        72.3650   46.4880   50.0860 N.pl3 290  HA1290     -0.2602
      2  C8        71.1030   46.9890   50.3430 C.3   290  HA1290      0.2228
      3  N7        71.0510   48.2700   50.0890 N.2   290  HA1290     -0.2323
      4  C5        72.2950   48.6540   49.6530 C.2   290  HA1290      0.2181
      5  C6        72.8050   49.9450   49.2380 C.1   290  HA1290      0.2372
      6  O6        72.1750   51.0160   49.1910 O.2   290  HA1290     -0.2069
      7  N1        74.1800   49.9120   48.8540 N.2   290  HA1290     -0.2485
      8  C2        74.9780   48.7450   48.8730 C.1   290  HA1290      0.2531
      9  N2        76.2840   48.8480   48.4800 N.pl3 290  HA1290     -0.0226
     10  N3        74.4860   47.5150   49.2700 N.2   290  HA1290     -0.3075
     11  C4        73.1450   47.5500   49.6440 C.2   290  HA1290      0.2282
     12  C10       72.6500   45.1320   50.2120 C.3   290  HA1290      0.0951
     13  C11       73.4070   44.8400   51.5340 C.3   290  HA1290      0.0218
     14  C12       74.3640   43.6420   51.3350 C.3   290  HA1290      0.0079
     15  C13       73.6010   42.3740   50.8350 C.3   290  HA1290      0.0739
     16  C14       74.4710   41.0990   50.9880 C.3   290  HA1290      0.3064
     17  F15       74.4940   40.7400   52.2830 F     290  HA1290     -0.1968
     18  F16       75.7270   41.3680   50.5970 F     290  HA1290     -0.1968
     19  P         73.9180   39.9670   50.1360 P.3   290  HA1290      0.1787
     20  O2P       72.4530   39.8050   50.3640 O.3   290  HA1290     -0.3536
     21  O1P       74.1700   40.2640   48.6970 O.2   290  HA1290     -0.4546
     22  O3P       74.6210   38.6860   50.4980 O.3   290  HA1290     -0.3536
@<TRIPOS>BOND
     1     9     8    1
     2    21    19    2
     3     7     8    2
     4     7     5    2
     5     8    10    2
     6     6     5    2
     7     5     4    1
     8    10    11    2
     9    11     4    1
    10    11     1    1
    11     4     3    2
    12     1    12    1
    13     1     2    1
    14     3     2    1
    15    19    20    1
    16    19    22    1
    17    19    16    1
    18    12    13    1
    19    18    16    1
    20    15    16    1
    21    15    14    1
    22    16    17    1
    23    14    13    1
