@<TRIPOS>MOLECULE
1v4b_FMN_A_1.pdb
 31 33 0 0 0
SMALL
GASTEIGER

@<TRIPOS>ATOM
      1  N1        25.3340   25.2550   12.0270 N.2   201  FMN201     -0.2887
      2  C2        24.7880   24.1510   12.6130 C.1   201  FMN201      0.3669
      3  O2        23.7150   23.6580   12.2190 O.2   201  FMN201     -0.1744
      4  N3        25.4310   23.6060   13.7500 N.2   201  FMN201     -0.2300
      5  C4        26.5650   24.0880   14.2360 C.1   201  FMN201      0.2513
      6  O4        26.8660   23.6940   15.3990 O.2   201  FMN201     -0.2057
      7  C4A       27.1710   25.1370   13.5970 C.2   201  FMN201      0.2706
      8  N5        28.3050   25.7190   14.0650 N.2   201  FMN201     -0.3841
      9  C5A       28.8920   26.8000   13.5020 C.2   201  FMN201      0.1452
     10  C6        30.0590   27.3320   14.0090 C.2   201  FMN201      0.0252
     11  C7        30.7390   28.4180   13.4400 C.2   201  FMN201     -0.0375
     12  C7M       31.8180   29.0900   14.1910 C.3   201  FMN201      0.0268
     13  C8        30.0630   29.0700   12.3580 C.3   201  FMN201      0.0417
     14  C8M       30.5170   30.3990   11.9530 C.3   201  FMN201      0.0091
     15  C9        28.8370   28.5430   11.8730 C.2   201  FMN201     -0.0049
     16  C9A       28.2340   27.4340   12.4280 C.2   201  FMN201      0.0795
     17  N10       27.0890   26.8470   11.9340 N.pl3 201  FMN201     -0.2545
     18  C10       26.5090   25.7590   12.4810 C.2   201  FMN201      0.2449
     19  C1'       26.3130   27.5360   10.8390 C.3   201  FMN201      0.1336
     20  C2'       25.5140   28.6940   11.4710 C.3   201  FMN201      0.2048
     21  O2'       24.6520   28.2500   12.4740 O.3   201  FMN201     -0.2185
     22  C3'       24.7320   29.3020   10.2970 C.3   201  FMN201      0.2165
     23  O3'       25.6700   29.9550    9.4110 O.3   201  FMN201     -0.2175
     24  C4'       23.7800   30.3810   10.9180 C.3   201  FMN201      0.2147
     25  O4'       23.2190   31.0030    9.7590 O.3   201  FMN201     -0.2176
     26  C5'       24.5550   31.3790   11.7580 C.3   201  FMN201      0.1892
     27  O5'       23.8020   32.5810   12.1200 O.3   201  FMN201     -0.2674
     28  P         24.4380   33.9650   11.7300 P.3   201  FMN201      0.5327
     29  O1P       23.3520   34.9450   12.2840 O.3   201  FMN201     -0.1145
     30  O2P       25.7340   34.3330   12.5240 O.3   201  FMN201     -0.1145
     31  O3P       24.5240   34.0870   10.2180 O.2   201  FMN201     -0.2224
@<TRIPOS>BOND
     1    23    22    1
     2    25    24    1
     3    31    28    2
     4    22    24    1
     5    22    20    1
     6    19    20    1
     7    19    17    1
     8    24    26    1
     9    20    21    1
    10    28    27    1
    11    28    29    1
    12    28    30    1
    13    26    27    1
    14    15    13    1
    15    15    16    2
    16    17    16    1
    17    17    18    1
    18    14    13    1
    19     1    18    2
    20     1     2    2
    21     3     2    2
    22    13    11    1
    23    16     9    1
    24    18     7    1
    25     2     4    2
    26    11    10    2
    27    11    12    1
    28     9    10    1
    29     9     8    2
    30     7     8    2
    31     7     5    1
    32     4     5    2
    33     5     6    2
