@<TRIPOS>MOLECULE
1v4s_GLC_A_1.pdb
 12 12 0 0 0
SMALL
GASTEIGER

@<TRIPOS>ATOM
      1  C1        23.4680    1.7660   65.5270 C.3   500  GLC500      0.3024
      2  C2        23.4240    3.1140   64.7040 C.3   500  GLC500      0.2434
      3  C3        24.8430    3.6090   64.4460 C.3   500  GLC500      0.2199
      4  C4        25.4930    3.8600   65.7790 C.3   500  GLC500      0.2144
      5  C5        25.5200    2.5210   66.6020 C.3   500  GLC500      0.1836
      6  C6        26.1470    2.7310   67.9490 C.3   500  GLC500      0.2142
      7  O1        24.1270    0.7590   64.8720 O.3   500  GLC500     -0.1869
      8  O2        22.7680    2.8540   63.4810 O.3   500  GLC500     -0.2148
      9  O3        24.7990    4.8220   63.6910 O.3   500  GLC500     -0.2174
     10  O4        26.8500    4.2490   65.6450 O.3   500  GLC500     -0.2176
     11  O5        24.1440    2.0480   66.7760 O.3   500  GLC500     -0.3236
     12  O6        25.4990    3.7060   68.8200 O.3   500  GLC500     -0.2176
@<TRIPOS>BOND
     1     8     2    1
     2     9     3    1
     3     3     2    1
     4     3     4    1
     5     2     1    1
     6     7     1    1
     7     1    11    1
     8    10     4    1
     9     4     5    1
    10     5    11    1
    11     5     6    1
    12     6    12    1
