@<TRIPOS>MOLECULE
1v4s_MRK_A_1.pdb
 23 25 0 0 0
SMALL
GASTEIGER

@<TRIPOS>ATOM
      1  S1        36.3550   19.0670   60.8670 S.2   501  MRK501     -0.0491
      2  C2        35.7380   19.4150   59.2920 C.ar  501  MRK501      0.0588
      3  C3        36.3890   18.6550   58.3640 C.ar  501  MRK501      0.1079
      4  N4        37.3530   17.8140   58.8620 N.ar  501  MRK501     -0.2209
      5  C5        37.4460   17.9280   60.1940 C.ar  501  MRK501      0.1861
      6  N6        38.3390   17.1720   60.8990 N.am  501  MRK501     -0.1504
      7  C7        38.6150   17.2040   62.3110 C.2   501  MRK501      0.2720
      8  O8        38.0210   17.9870   63.0650 O.2   501  MRK501     -0.2679
      9  C9        40.4410   16.3620   64.1070 C.ar  501  MRK501      0.0958
     10  C10       39.6630   16.2270   62.8870 C.ar  501  MRK501      0.0728
     11  C11       39.8660   15.0370   62.0990 C.ar  501  MRK501      0.0148
     12  C12       40.7850   14.0430   62.4920 C.ar  501  MRK501      0.0599
     13  C13       41.5420   14.1920   63.6880 C.ar  501  MRK501      0.1475
     14  F14       42.4410   13.2470   64.0960 F     501  MRK501     -0.2036
     15  C15       41.3620   15.3510   64.4840 C.ar  501  MRK501      0.0483
     16  S16       40.9350   12.6300   61.4450 S.3   501  MRK501     -0.0481
     17  N17       42.7210   10.8290   62.4010 N.ar  501  MRK501     -0.3030
     18  C18       42.5260   11.8870   61.5220 C.ar  501  MRK501      0.1756
     19  N19       43.5690   12.3250   60.7380 N.ar  501  MRK501     -0.2192
     20  C20       44.5500   11.4410   61.1650 C.ar  501  MRK501      0.1197
     21  C21       44.0570   10.5650   62.1370 C.ar  501  MRK501      0.0984
     22  C22       41.7820   10.1760   63.3410 C.3   501  MRK501      0.1325
     23  N23       40.3410   17.4110   64.9280 N.pl3 501  MRK501     -0.1278
@<TRIPOS>BOND
     1     3     4   ar
     2     3     2   ar
     3     4     5   ar
     4     2     1   ar
     5     5     1   ar
     6     5     6    1
     7    19    20   ar
     8    19    18   ar
     9     6     7   am
    10    20    21   ar
    11    16    18    1
    12    16    12    1
    13    18    17   ar
    14    11    12   ar
    15    11    10   ar
    16    21    17   ar
    17     7    10    1
    18     7     8    2
    19    17    22    1
    20    12    13   ar
    21    10     9   ar
    22    13    14    1
    23    13    15   ar
    24     9    15   ar
    25     9    23    1
