@<TRIPOS>MOLECULE
1v4u_HEM_A_1.pdb
 43 50 0 0 0
SMALL
GASTEIGER

@<TRIPOS>ATOM
      1 FE         17.2720   35.8420   36.7920 Fe    144  HEM144      0.0000
      2  CHA       20.3070   34.6020   37.0490 C.2   144  HEM144      0.0000
      3  CHB       16.2500   32.7750   35.4810 C.2   144  HEM144      0.0000
      4  CHC       13.8960   36.7870   36.6950 C.2   144  HEM144      0.0000
      5  CHD       18.1640   38.8430   37.6710 C.2   144  HEM144      0.0000
      6  NA        18.1050   34.0160   36.3020 N.ar  144  HEM144      0.0000
      7  C1A       19.4340   33.7590   36.4980 C.ar  144  HEM144      0.0000
      8  C2A       19.7770   32.4030   36.1490 C.ar  144  HEM144      0.0000
      9  C3A       18.6220   31.8930   35.6810 C.ar  144  HEM144      0.0000
     10  C4A       17.5590   32.9010   35.7940 C.ar  144  HEM144      0.0000
     11  CMA       18.3460   30.4850   35.1400 C.3   144  HEM144      0.0000
     12  CAA       21.2690   31.8630   36.2500 C.3   144  HEM144      0.0000
     13  CBA       21.4590   30.8120   37.3840 C.3   144  HEM144      0.0000
     14  CGA       22.8060   30.0690   37.3460 C.2   144  HEM144      0.0000
     15  O1A       23.9110   30.6860   37.2830 O.co2 144  HEM144      0.0000
     16  O2A       22.7960   28.8230   37.4410 O.co2 144  HEM144      0.0000
     17  NB        15.5210   35.0090   36.1990 N.2   144  HEM144      0.0000
     18  C1B       15.3210   33.7100   35.7010 C.2   144  HEM144      0.0000
     19  C2B       13.9220   33.4160   35.4900 C.2   144  HEM144      0.0000
     20  C3B       13.2500   34.5160   35.8660 C.2   144  HEM144      0.0000
     21  C4B       14.2300   35.5240   36.2870 C.2   144  HEM144      0.0000
     22  CMB       13.3860   32.0450   34.9450 C.3   144  HEM144      0.0000
     23  CAB       11.7230   34.8070   35.8160 C.2   144  HEM144      0.0000
     24  CBB       10.9770   34.3680   34.7800 C.2   144  HEM144      0.0000
     25  NC        16.2030   37.5190   37.0750 N.ar  144  HEM144      0.0000
     26  C1C       14.8530   37.7390   37.0360 C.ar  144  HEM144      0.0000
     27  C2C       14.6620   39.1550   37.3950 C.ar  144  HEM144      0.0000
     28  C3C       15.8690   39.6580   37.7140 C.ar  144  HEM144      0.0000
     29  C4C       16.8410   38.6350   37.4700 C.ar  144  HEM144      0.0000
     30  CMC       13.3150   39.8750   37.4660 C.3   144  HEM144      0.0000
     31  CAC       16.3100   41.0660   38.1220 C.3   144  HEM144      0.0000
     32  CBC       15.5780   42.0610   37.5910 C.3   144  HEM144      0.0000
     33  ND        18.8800   36.5680   37.2680 N.2   144  HEM144      0.0000
     34  C1D       19.1200   37.8710   37.6170 C.2   144  HEM144      0.0000
     35  C2D       20.5110   38.0970   37.8870 C.2   144  HEM144      0.0000
     36  C3D       21.1800   36.7810   37.6780 C.2   144  HEM144      0.0000
     37  C4D       20.0950   35.9040   37.3520 C.2   144  HEM144      0.0000
     38  CMD       21.2460   39.3940   38.2910 C.3   144  HEM144      0.0000
     39  CAD       22.6920   36.4720   37.9010 C.3   144  HEM144      0.0000
     40  CBD       23.6660   37.2560   37.0340 C.3   144  HEM144      0.0000
     41  CGD       25.0100   36.5670   36.7650 C.2   144  HEM144      0.0000
     42  O1D       25.1350   35.3060   36.9110 O.co2 144  HEM144      0.0000
     43  O2D       25.9590   37.3220   36.3630 O.co2 144  HEM144      0.0000
@<TRIPOS>BOND
     1    24    23    2
     2    22    19    1
     3    11     9    1
     4     3    18    1
     5     3    10    2
     6    19    18    1
     7    19    20    2
     8     9    10   ar
     9     9     8   ar
    10    18    17    2
    11    10     6   ar
    12    23    20    1
    13    20    21    1
    14     8    12    1
    15     8     7   ar
    16    17    21    1
    17    17     1    1
    18    12    13    1
    19    21     4    2
    20     6     7   ar
    21     6     1    1
    22    43    41   ar
    23     7     2    2
    24     4    26    1
    25    41    42   ar
    26    41    40    1
    27     1    25    1
    28     1    33    1
    29    40    39    1
    30    26    25   ar
    31    26    27   ar
    32     2    37    1
    33    25    29   ar
    34    33    37    2
    35    33    34    1
    36    15    14   ar
    37    14    13    1
    38    14    16   ar
    39    37    36    1
    40    27    30    1
    41    27    28   ar
    42    29     5    1
    43    29    28   ar
    44    32    31    1
    45    34     5    2
    46    34    35    1
    47    36    35    2
    48    36    39    1
    49    28    31    1
    50    35    38    1
