@<TRIPOS>MOLECULE
1v4w_HEM_A_1.pdb
 43 50 0 0 0
SMALL
GASTEIGER

@<TRIPOS>ATOM
      1 FE         16.2790   46.7670   62.0650 Fe    144  HEM144      0.0000
      2  CHA       17.7340   49.3620   60.2900 C.2   144  HEM144      0.0000
      3  CHB       14.5740   49.1010   63.9620 C.2   144  HEM144      0.0000
      4  CHC       15.4430   44.3670   64.4010 C.2   144  HEM144      0.0000
      5  CHD       18.5430   44.5480   60.6590 C.2   144  HEM144      0.0000
      6  NA        16.2040   48.8640   62.1560 N.2   144  HEM144      0.0000
      7  C1A       16.8130   49.7190   61.2530 C.2   144  HEM144      0.0000
      8  C2A       16.3190   51.0550   61.4990 C.2   144  HEM144      0.0000
      9  C3A       15.4450   50.9920   62.5200 C.2   144  HEM144      0.0000
     10  C4A       15.3530   49.6020   62.9460 C.2   144  HEM144      0.0000
     11  CMA       14.6460   52.1260   63.2010 C.3   144  HEM144      0.0000
     12  CAA       16.7760   52.2970   60.6880 C.3   144  HEM144      0.0000
     13  CBA       15.7730   52.5990   59.5770 C.3   144  HEM144      0.0000
     14  CGA       16.3110   53.6740   58.6520 C.2   144  HEM144      0.0000
     15  O1A       17.1920   54.4610   59.0660 O.co2 144  HEM144      0.0000
     16  O2A       15.8710   53.7540   57.4790 O.co2 144  HEM144      0.0000
     17  NB        15.2670   46.7320   63.8550 N.ar  144  HEM144      0.0000
     18  C1B       14.5230   47.7850   64.3770 C.ar  144  HEM144      0.0000
     19  C2B       13.7020   47.2760   65.4600 C.ar  144  HEM144      0.0000
     20  C3B       13.9420   45.9730   65.5840 C.ar  144  HEM144      0.0000
     21  C4B       14.9090   45.6180   64.5820 C.ar  144  HEM144      0.0000
     22  CMB       12.7180   48.1120   66.2920 C.3   144  HEM144      0.0000
     23  CAB       13.3050   44.9760   66.5840 C.2   144  HEM144      0.0000
     24  CBB       13.0520   45.3860   67.8270 C.2   144  HEM144      0.0000
     25  NC        16.8890   44.8440   62.4640 N.2   144  HEM144      0.0000
     26  C1C       16.4090   44.0490   63.4730 C.2   144  HEM144      0.0000
     27  C2C       17.0690   42.7450   63.3510 C.2   144  HEM144      0.0000
     28  C3C       17.9240   42.7980   62.3150 C.2   144  HEM144      0.0000
     29  C4C       17.8120   44.1150   61.7450 C.2   144  HEM144      0.0000
     30  CMC       16.8130   41.5710   64.3190 C.3   144  HEM144      0.0000
     31  CAC       18.8950   41.7430   61.7300 C.2   144  HEM144      0.0000
     32  CBC       19.2810   40.6280   62.3850 C.2   144  HEM144      0.0000
     33  ND        17.8770   46.9250   60.7640 N.ar  144  HEM144      0.0000
     34  C1D       18.6340   45.8650   60.2590 C.ar  144  HEM144      0.0000
     35  C2D       19.5310   46.3280   59.2230 C.ar  144  HEM144      0.0000
     36  C3D       19.2690   47.8130   59.1080 C.ar  144  HEM144      0.0000
     37  C4D       18.2440   48.1020   60.0800 C.ar  144  HEM144      0.0000
     38  CMD       20.5500   45.4930   58.4230 C.3   144  HEM144      0.0000
     39  CAD       20.0210   48.7890   58.1690 C.3   144  HEM144      0.0000
     40  CBD       21.2860   49.1320   58.9680 C.3   144  HEM144      0.0000
     41  CGD       22.4040   49.7470   58.1550 C.2   144  HEM144      0.0000
     42  O1D       22.5610   49.4300   56.9480 O.co2 144  HEM144      0.0000
     43  O2D       23.1730   50.5550   58.7360 O.co2 144  HEM144      0.0000
@<TRIPOS>BOND
     1    42    41   ar
     2    16    14   ar
     3    41    43   ar
     4    41    40    1
     5    39    40    1
     6    39    36    1
     7    38    35    1
     8    14    15   ar
     9    14    13    1
    10    36    35   ar
    11    36    37   ar
    12    35    34   ar
    13    13    12    1
    14    37     2    2
    15    37    33   ar
    16    34     5    2
    17    34    33   ar
    18     2     7    1
    19     5    29    1
    20    12     8    1
    21    33     1    1
    22     7     8    1
    23     7     6    2
    24     8     9    2
    25    31    28    1
    26    31    32    2
    27    29    28    1
    28    29    25    2
    29     1     6    1
    30     1    25    1
    31     1    17    1
    32     6    10    1
    33    28    27    2
    34    25    26    1
    35     9    10    1
    36     9    11    1
    37    10     3    2
    38    27    26    1
    39    27    30    1
    40    26     4    2
    41    17    18   ar
    42    17    21   ar
    43     3    18    1
    44    18    19   ar
    45     4    21    1
    46    21    20   ar
    47    19    20   ar
    48    19    22    1
    49    20    23    1
    50    23    24    2
