@<TRIPOS>MOLECULE
1v4x_HEM_A_1.pdb
 43 50 0 0 0
SMALL
GASTEIGER

@<TRIPOS>ATOM
      1 FE         26.2050   -2.3070   25.6300 Fe    144  HEM144      0.0000
      2  CHA       28.9800   -4.3530   25.3960 C.2   144  HEM144      0.0000
      3  CHB       26.6640   -2.1400   29.0550 C.2   144  HEM144      0.0000
      4  CHC       23.1140   -0.7840   26.0560 C.2   144  HEM144      0.0000
      5  CHD       25.2770   -3.1900   22.4420 C.2   144  HEM144      0.0000
      6  NA        27.5420   -3.1540   27.0130 N.2   144  HEM144      0.0000
      7  C1A       28.6660   -3.8960   26.6560 C.2   144  HEM144      0.0000
      8  C2A       29.4530   -4.1150   27.8550 C.2   144  HEM144      0.0000
      9  C3A       28.8210   -3.5180   28.8870 C.2   144  HEM144      0.0000
     10  C4A       27.6090   -2.8800   28.3620 C.2   144  HEM144      0.0000
     11  CMA       29.3490   -3.5080   30.3500 C.3   144  HEM144      0.0000
     12  CAA       30.7690   -4.9430   27.9070 C.3   144  HEM144      0.0000
     13  CBA       31.9500   -4.0120   28.1460 C.3   144  HEM144      0.0000
     14  CGA       33.2190   -4.8270   28.3540 C.2   144  HEM144      0.0000
     15  O1A       33.3970   -5.8300   27.6200 O.co2 144  HEM144      0.0000
     16  O2A       34.0300   -4.4570   29.2430 O.co2 144  HEM144      0.0000
     17  NB        25.0440   -1.6330   27.2600 N.ar  144  HEM144      0.0000
     18  C1B       25.4830   -1.5820   28.5860 C.ar  144  HEM144      0.0000
     19  C2B       24.5060   -0.8400   29.3570 C.ar  144  HEM144      0.0000
     20  C3B       23.5330   -0.4730   28.5120 C.ar  144  HEM144      0.0000
     21  C4B       23.8540   -0.9570   27.1810 C.ar  144  HEM144      0.0000
     22  CMB       24.5440   -0.5130   30.8660 C.3   144  HEM144      0.0000
     23  CAB       22.2650    0.3200   28.8390 C.2   144  HEM144      0.0000
     24  CBB       21.5630    0.0620   29.9780 C.2   144  HEM144      0.0000
     25  NC        24.5030   -2.0610   24.4970 N.2   144  HEM144      0.0000
     26  C1C       23.3670   -1.3730   24.8330 C.2   144  HEM144      0.0000
     27  C2C       22.4970   -1.3620   23.6770 C.2   144  HEM144      0.0000
     28  C3C       23.1230   -2.0230   22.6930 C.2   144  HEM144      0.0000
     29  C4C       24.3780   -2.4730   23.2040 C.2   144  HEM144      0.0000
     30  CMC       21.1130   -0.6750   23.5830 C.3   144  HEM144      0.0000
     31  CAC       22.6870   -2.3380   21.2410 C.2   144  HEM144      0.0000
     32  CBC       21.4410   -2.3360   20.7680 C.2   144  HEM144      0.0000
     33  ND        26.9760   -3.6290   24.1440 N.ar  144  HEM144      0.0000
     34  C1D       26.4770   -3.7250   22.8560 C.ar  144  HEM144      0.0000
     35  C2D       27.3890   -4.5040   22.0220 C.ar  144  HEM144      0.0000
     36  C3D       28.5450   -4.8510   22.9630 C.ar  144  HEM144      0.0000
     37  C4D       28.2090   -4.2720   24.2460 C.ar  144  HEM144      0.0000
     38  CMD       27.2420   -4.8620   20.5240 C.3   144  HEM144      0.0000
     39  CAD       29.7890   -5.6950   22.6020 C.3   144  HEM144      0.0000
     40  CBD       29.2830   -7.1180   22.8390 C.3   144  HEM144      0.0000
     41  CGD       30.1220   -8.1850   22.1800 C.2   144  HEM144      0.0000
     42  O1D       30.0260   -8.3700   20.9210 O.co2 144  HEM144      0.0000
     43  O2D       30.8730   -8.8640   22.9340 O.co2 144  HEM144      0.0000
@<TRIPOS>BOND
     1    38    35    1
     2    32    31    2
     3    42    41   ar
     4    31    28    1
     5    35    34   ar
     6    35    36   ar
     7    41    40    1
     8    41    43   ar
     9     5    34    2
    10     5    29    1
    11    39    40    1
    12    39    36    1
    13    28    29    1
    14    28    27    2
    15    34    33   ar
    16    36    37   ar
    17    29    25    2
    18    30    27    1
    19    27    26    1
    20    33    37   ar
    21    33     1    1
    22    37     2    2
    23    25    26    1
    24    25     1    1
    25    26     4    2
    26     2     7    1
    27     1     6    1
    28     1    17    1
    29     4    21    1
    30     7     6    2
    31     7     8    1
    32     6    10    1
    33    21    17   ar
    34    21    20   ar
    35    17    18   ar
    36    15    14   ar
    37     8    12    1
    38     8     9    2
    39    12    13    1
    40    13    14    1
    41    14    16   ar
    42    10     9    1
    43    10     3    2
    44    20    23    1
    45    20    19   ar
    46    18     3    1
    47    18    19   ar
    48    23    24    2
    49     9    11    1
    50    19    22    1
