@<TRIPOS>MOLECULE
1v54_DMU_M_1.pdb
 33 34 0 0 0
SMALL
GASTEIGER

@<TRIPOS>ATOM
      1  C1        28.0090  320.2280  194.5730 C.2   3526  DMU3526     0.3077
      2  C2        26.9540  321.0040  193.8040 C.2   3526  DMU3526     0.2738
      3  C3        25.7330  320.5660  193.0120 C.2   3526  DMU3526     0.2035
      4  C4        25.6350  319.0520  193.2640 C.3   3526  DMU3526     0.2609
      5  O5        26.4550  318.3770  193.9690 O.2   3526  DMU3526    -0.4389
      6  C6        27.4860  318.7640  194.6540 C.2   3526  DMU3526     0.3364
      7  O7        24.7310  321.2490  192.8890 O.2   3526  DMU3526    -0.4478
      8  O16       28.2110  317.9460  195.3110 O.2   3526  DMU3526    -0.4458
      9  C18       27.8870  316.7680  195.5790 C.3   3526  DMU3526     0.2087
     10  C19       29.0730  315.8690  195.8450 C.3   3526  DMU3526     0.0475
     11  C22       29.0170  314.6480  194.9750 C.3   3526  DMU3526     0.0038
     12  C25       30.2240  313.7790  195.1630 C.3   3526  DMU3526     0.0001
     13  C28       31.4360  314.4060  194.5450 C.3   3526  DMU3526     0.0000
     14  C31       32.1500  313.3950  193.6890 C.3   3526  DMU3526     0.0000
     15  C34       33.5610  313.1400  194.1920 C.3   3526  DMU3526     0.0000
     16  C37       34.4350  314.3790  194.0750 C.3   3526  DMU3526     0.0000
     17  C40       35.9110  314.0480  194.2900 C.3   3526  DMU3526     0.0000
     18  C43       36.4940  313.3120  193.0720 C.3   3526  DMU3526     0.0000
     19  O49       28.2590  320.7970  195.8580 O.2   3526  DMU3526    -0.2762
     20  O55       27.2260  322.4090  193.7160 O.2   3526  DMU3526    -0.2799
     21  C57       24.4490  318.4350  192.5120 C.3   3526  DMU3526     0.2334
     22  O61       24.1090  317.1610  193.0250 O.3   3526  DMU3526    -0.2159
     23  C5        24.2310  323.4760  192.1280 C.3   3526  DMU3526     0.2541
     24  C7        22.9540  324.3220  192.3000 C.3   3526  DMU3526     0.2211
     25  C8        21.9390  323.2290  191.8410 C.3   3526  DMU3526     0.2145
     26  C9        22.3790  321.8320  191.2970 C.3   3526  DMU3526     0.1846
     27  O1        23.5870  321.5150  191.0830 O.3   3526  DMU3526    -0.3157
     28  C10       24.4460  321.9540  191.9090 C.3   3526  DMU3526     0.3217
     29  O2        20.8120  323.1370  192.7150 O.3   3526  DMU3526    -0.2176
     30  O3        25.4170  324.2590  191.9410 O.3   3526  DMU3526    -0.2135
     31  O4        22.9500  325.4590  191.4330 O.3   3526  DMU3526    -0.2173
     32  C11       21.2050  320.8670  191.1530 C.3   3526  DMU3526     0.2142
     33  O6        21.1480  320.3280  189.8460 O.3   3526  DMU3526    -0.2176
@<TRIPOS>BOND
     1    33    32    1
     2    27    26    1
     3    27    28    1
     4    32    26    1
     5    26    25    1
     6    31    24    1
     7    25    24    1
     8    25    29    1
     9    28    23    1
    10    28     7    1
    11    30    23    1
    12    23    24    1
    13    21    22    1
    14    21     4    1
    15     7     3    1
    16     3     4    1
    17     3     2    2
    18    18    17    1
    19     4     5    1
    20    14    15    1
    21    14    13    1
    22    20     2    1
    23     2     1    1
    24     5     6    1
    25    16    15    1
    26    16    17    1
    27    13    12    1
    28     1     6    2
    29     1    19    1
    30     6     8    1
    31    11    12    1
    32    11    10    1
    33     8     9    1
    34     9    10    1
