@<TRIPOS>MOLECULE
1v55_DMU_M_1.pdb
 33 34 0 0 0
SMALL
GASTEIGER

@<TRIPOS>ATOM
      1  C1        28.0510  322.1500  194.5350 C.3   3526  DMU3526     0.2404
      2  C2        27.3250  323.0110  193.4910 C.3   3526  DMU3526     0.2167
      3  C3        25.9310  322.5310  193.0630 C.3   3526  DMU3526     0.1804
      4  C4        25.7310  321.0460  193.4220 C.3   3526  DMU3526     0.1803
      5  O5        26.3950  320.4010  194.2860 O.3   3526  DMU3526    -0.3257
      6  C6        27.5080  320.7460  194.8290 C.3   3526  DMU3526     0.2695
      7  O7        24.9440  323.2500  192.9970 O.3   3526  DMU3526    -0.3257
      8  O16       28.2470  320.0240  195.5580 O.3   3526  DMU3526    -0.3286
      9  C18       27.9920  318.8440  195.8310 C.3   3526  DMU3526     0.1449
     10  C19       29.2790  318.0790  195.8330 C.3   3526  DMU3526     0.0322
     11  C22       29.0640  316.7120  195.2800 C.3   3526  DMU3526     0.0026
     12  C25       30.3160  315.8770  195.3880 C.3   3526  DMU3526     0.0001
     13  C28       31.4980  316.5180  194.6940 C.3   3526  DMU3526     0.0000
     14  C31       32.2750  315.4780  193.9280 C.3   3526  DMU3526     0.0000
     15  C34       33.6530  315.2590  194.5160 C.3   3526  DMU3526     0.0000
     16  C37       34.6640  316.2480  193.9640 C.3   3526  DMU3526     0.0000
     17  C40       36.0890  315.8680  194.3530 C.3   3526  DMU3526     0.0000
     18  C43       36.8400  315.2910  193.1580 C.3   3526  DMU3526     0.0000
     19  O49       28.3780  322.8720  195.7210 O.3   3526  DMU3526    -0.2149
     20  O55       27.3650  324.4050  193.7980 O.3   3526  DMU3526    -0.2175
     21  C57       24.6190  320.4080  192.5880 C.3   3526  DMU3526     0.2141
     22  O61       23.9920  319.3660  193.3020 O.3   3526  DMU3526    -0.2176
     23  C5        24.3140  325.4350  192.3030 C.3   3526  DMU3526     0.2406
     24  C7        23.0400  326.2210  192.6850 C.3   3526  DMU3526     0.2198
     25  C8        22.0070  325.1840  192.1580 C.3   3526  DMU3526     0.2144
     26  C9        22.3950  323.8560  191.4460 C.3   3526  DMU3526     0.1835
     27  O1        23.6170  323.4930  191.2690 O.3   3526  DMU3526    -0.3256
     28  C10       24.5430  323.9290  192.0330 C.3   3526  DMU3526     0.2695
     29  O2        20.8960  325.0160  193.0440 O.3   3526  DMU3526    -0.2176
     30  O3        25.4120  326.2680  191.9010 O.3   3526  DMU3526    -0.2149
     31  O4        22.9540  327.4670  191.9930 O.3   3526  DMU3526    -0.2174
     32  C11       21.1550  323.0940  190.9710 C.3   3526  DMU3526     0.2142
     33  O6        21.4930  322.0080  190.1270 O.3   3526  DMU3526    -0.2176
@<TRIPOS>BOND
     1    33    32    1
     2    32    26    1
     3    27    26    1
     4    27    28    1
     5    26    25    1
     6    30    23    1
     7    31    24    1
     8    28    23    1
     9    28     7    1
    10    25    24    1
    11    25    29    1
    12    23    24    1
    13    21    22    1
    14    21     4    1
    15     7     3    1
    16     3     4    1
    17     3     2    1
    18    18    17    1
    19     4     5    1
    20     2    20    1
    21     2     1    1
    22    14    15    1
    23    14    13    1
    24    16    17    1
    25    16    15    1
    26     5     6    1
    27     1     6    1
    28     1    19    1
    29    13    12    1
    30     6     8    1
    31    11    12    1
    32    11    10    1
    33     8     9    1
    34     9    10    1
