@<TRIPOS>MOLECULE
1v59_NAD_A_1.pdb
 27 29 0 0 0
SMALL
GASTEIGER

@<TRIPOS>ATOM
      1  PA        11.3840   53.7110    3.5210 P.3   482  NAD482      0.2231
      2  O1A       12.0430   53.8980    2.2180 O.2   482  NAD482     -0.5169
      3  O2A       11.9990   52.6230    4.3380 O.3   482  NAD482     -0.4370
      4  O5B       11.5850   55.1080    4.3440 O.3   482  NAD482     -0.3111
      5  C5B       11.9700   56.3660    3.7040 C.3   482  NAD482      0.1813
      6  C4B       11.4720   57.4370    4.6990 C.3   482  NAD482      0.1821
      7  O4B       11.7950   58.8130    4.2480 O.3   482  NAD482     -0.3135
      8  C3B        9.8010   57.3740    4.9700 C.3   482  NAD482      0.2184
      9  O3B        9.6000   57.4210    6.4700 O.3   482  NAD482     -0.2174
     10  C2B        9.3530   58.6890    4.1720 C.3   482  NAD482      0.2570
     11  O2B        8.2430   59.3590    4.7440 O.3   482  NAD482     -0.2130
     12  C1B       10.6370   59.6470    4.2570 C.3   482  NAD482      0.3186
     13  N9A       10.7250   60.5970    3.1390 N.pl3 482  NAD482     -0.1439
     14  C8A       10.6000   60.3570    1.7620 C.3   482  NAD482      0.3377
     15  N7A       10.7260   61.4240    0.9430 N.2   482  NAD482     -0.2095
     16  C5A       10.9510   62.4140    1.9020 C.2   482  NAD482      0.2526
     17  C6A       11.1730   63.8100    1.7630 C.2   482  NAD482      0.4393
     18  N6A       11.1850   64.3610    0.4970 N.pl3 482  NAD482      0.2180
     19  N1A       11.3670   64.5220    2.9590 N.2   482  NAD482      0.0021
     20  C2A       11.3470   63.9370    4.1800 C.3   482  NAD482      0.5254
     21  N3A       11.1420   62.6220    4.3970 N.2   482  NAD482     -0.0055
     22  C4A       10.9530   61.9270    3.2390 C.2   482  NAD482      0.3518
     23  O3         9.8850   53.5120    3.3800 O.3   482  NAD482     -0.2261
     24  PN         8.8860   53.6080    2.1680 P.3   482  NAD482      0.5373
     25  O1N        9.4840   54.3890    1.0490 O.2   482  NAD482     -0.2221
     26  O2N        7.6120   54.3690    2.7710 O.3   482  NAD482     -0.1143
     27  O5D        8.5090   52.2350    1.7160 O.3   482  NAD482     -0.1143
@<TRIPOS>BOND
     1    18    17    1
     2    15    14    1
     3    15    16    2
     4    25    24    2
     5    27    24    1
     6    14    13    1
     7    17    16    1
     8    17    19    2
     9    16    22    1
    10    24    26    1
    11    24    23    1
    12     2     1    2
    13    19    20    1
    14    13    22    1
    15    13    12    1
    16    22    21    2
    17    23     1    1
    18     1     3    1
    19     1     4    1
    20     5     4    1
    21     5     6    1
    22    10    12    1
    23    10    11    1
    24    10     8    1
    25    20    21    1
    26     7    12    1
    27     7     6    1
    28     6     8    1
    29     8     9    1
