@<TRIPOS>MOLECULE
1v5f_TPP_A_1.pdb
 26 27 0 0 0
SMALL
GASTEIGER

@<TRIPOS>ATOM
      1  N1'       29.3490    2.3530   21.3020 N.2   1602  TPP1602    -0.1861
      2  C2'       30.0290    3.5120   21.0940 C.1   1602  TPP1602     0.0663
      3  CM2       31.5090    3.4260   21.0940 C.3   1602  TPP1602     0.1291
      4  N3'       29.4200    4.6720   20.9010 N.2   1602  TPP1602    -0.3368
      5  C4'       28.0410    4.7180   20.9170 C.2   1602  TPP1602     0.2292
      6  N4'       27.4970    5.9030   20.7300 N.pl3 1602  TPP1602    -0.0925
      7  C5'       27.2710    3.4930   21.1440 C.2   1602  TPP1602     0.0654
      8  C6'       27.9860    2.3580   21.3260 C.2   1602  TPP1602     0.1115
      9  C7'       25.7680    3.3810   21.2230 C.3   1602  TPP1602     0.1237
     10  N3        25.1840    4.1790   22.3560 N.pl3 1602  TPP1602    -0.2970
     11  C2        24.7610    5.4330   22.2530 C.3   1602  TPP1602     0.1543
     12  S1        24.1690    6.0280   23.7070 S.3   1602  TPP1602    -0.0951
     13  C5        24.5020    4.5570   24.5110 C.2   1602  TPP1602     0.0164
     14  C4        25.0410    3.6400   23.6560 C.2   1602  TPP1602     0.0279
     15  CM4       25.4590    2.2370   23.9790 C.3   1602  TPP1602     0.0473
     16  C6        24.2070    4.4070   25.9640 C.3   1602  TPP1602     0.0661
     17  C7        25.4060    4.8710   26.7610 C.3   1602  TPP1602     0.1544
     18  O7        25.0490    4.8130   28.1500 O.3   1602  TPP1602    -0.3134
     19  PA        25.7810    5.7050   29.2470 P.3   1602  TPP1602     0.2230
     20  O1A       25.6460    4.8730   30.4450 O.3   1602  TPP1602    -0.4370
     21  O2A       27.1200    6.2240   28.8610 O.2   1602  TPP1602    -0.5169
     22  O3A       24.8290    7.0150   29.2980 O.3   1602  TPP1602    -0.2261
     23  PB        23.3190    7.3270   29.7320 P.3   1602  TPP1602     0.5373
     24  O1B       22.5400    7.2240   28.4480 O.2   1602  TPP1602    -0.2221
     25  O2B       23.3060    8.6390   30.4530 O.3   1602  TPP1602    -0.1143
     26  O3B       22.8710    6.2140   30.7110 O.3   1602  TPP1602    -0.1143
@<TRIPOS>BOND
     1     6     5    1
     2     4     5    2
     3     4     2    2
     4     5     7    1
     5     2     3    1
     6     2     1    2
     7     7     9    1
     8     7     8    2
     9     9    10    1
    10     1     8    1
    11    11    10    1
    12    11    12    1
    13    10    14    1
    14    14    15    1
    15    14    13    2
    16    12    13    1
    17    13    16    1
    18    16    17    1
    19    17    18    1
    20    18    19    1
    21    24    23    2
    22    21    19    2
    23    19    22    1
    24    19    20    1
    25    22    23    1
    26    23    25    1
    27    23    26    1
