@<TRIPOS>MOLECULE
1v5g_HTL_A_1.pdb
 29 30 0 0 0
SMALL
GASTEIGER

@<TRIPOS>ATOM
      1  N1'       29.0900    2.3160   21.3310 N.2   1602  HTL1602    -0.1861
      2  C2'       29.9000    3.3850   21.1220 C.1   1602  HTL1602     0.0663
      3  C2A       31.3600    3.1300   21.1530 C.3   1602  HTL1602     0.1291
      4  N3'       29.4340    4.5980   20.9020 N.2   1602  HTL1602    -0.3368
      5  C4'       28.0700    4.8030   20.8830 C.2   1602  HTL1602     0.2292
      6  N4'       27.6800    6.0370   20.6680 N.pl3 1602  HTL1602    -0.0925
      7  C5'       27.1580    3.6800   21.1110 C.2   1602  HTL1602     0.0654
      8  C6'       27.7380    2.4750   21.3230 C.2   1602  HTL1602     0.1115
      9  C35       25.6470    3.7200   21.1480 C.3   1602  HTL1602     0.1240
     10  N3        25.1220    4.6600   22.1990 N.pl3 1602  HTL1602    -0.2933
     11  C2        24.7850    5.9520   21.9870 C.3   1602  HTL1602     0.1836
     12  S1        24.2580    6.6860   23.3970 S.3   1602  HTL1602    -0.0904
     13  C5        24.4780    5.2580   24.3140 C.2   1602  HTL1602     0.0167
     14  C4        24.9420    4.2400   23.5370 C.2   1602  HTL1602     0.0281
     15  C4A       25.2580    2.8390   23.9730 C.3   1602  HTL1602     0.0473
     16  C5A       24.1740    5.2410   25.7750 C.3   1602  HTL1602     0.0661
     17  C5B       25.3980    5.6640   26.5550 C.3   1602  HTL1602     0.1544
     18  O5G       25.2500    5.1740   27.9010 O.3   1602  HTL1602    -0.3134
     19  P1        25.9730    5.8880   29.1230 P.3   1602  HTL1602     0.2230
     20  O11       25.1270    7.2610   29.2880 O.3   1602  HTL1602    -0.2261
     21  O12       25.7450    4.9770   30.2510 O.3   1602  HTL1602    -0.4370
     22  O13       27.3520    6.3350   28.8060 O.2   1602  HTL1602    -0.5169
     23  P2        23.6430    7.6510   29.7540 P.3   1602  HTL1602     0.5373
     24  O21       22.7980    7.7230   28.5110 O.2   1602  HTL1602    -0.2221
     25  O22       23.7510    8.8830   30.5920 O.3   1602  HTL1602    -0.1143
     26  O23       23.1600    6.4870   30.6490 O.3   1602  HTL1602    -0.1143
     27  C1'       24.7210    6.7110   20.6830 C.2   1602  HTL1602     0.1797
     28  O2'       24.9940    6.1840   19.6210 O.2   1602  HTL1602    -0.2934
     29  C3'       24.2780    8.1650   20.7440 C.3   1602  HTL1602     0.0750
@<TRIPOS>BOND
     1    28    27    2
     2     6     5    1
     3    27    29    1
     4    27    11    1
     5     5     4    2
     6     5     7    1
     7     4     2    2
     8     7     9    1
     9     7     8    2
    10     2     3    1
    11     2     1    2
    12     9    10    1
    13     8     1    1
    14    11    10    1
    15    11    12    1
    16    10    14    1
    17    12    13    1
    18    14    15    1
    19    14    13    2
    20    13    16    1
    21    16    17    1
    22    17    18    1
    23    18    19    1
    24    24    23    2
    25    22    19    2
    26    19    20    1
    27    19    21    1
    28    20    23    1
    29    23    25    1
    30    23    26    1
