@<TRIPOS>MOLECULE
1v5h_HEM_A_1.pdb
 43 50 0 0 0
SMALL
GASTEIGER

@<TRIPOS>ATOM
      1 FE         41.3100   28.3360   -3.3920 Fe    191  HEM191      0.0000
      2  CHA       41.0300   27.2100   -6.4360 C.2   191  HEM191      0.0000
      3  CHB       41.0420   31.6720   -4.6400 C.2   191  HEM191      0.0000
      4  CHC       41.5570   29.5590   -0.1850 C.2   191  HEM191      0.0000
      5  CHD       41.5130   25.0760   -2.0270 C.2   191  HEM191      0.0000
      6  NA        41.1160   29.3790   -5.2290 N.ar  191  HEM191      0.0000
      7  C1A       40.9680   28.6600   -6.3500 C.ar  191  HEM191      0.0000
      8  C2A       40.7240   29.5310   -7.5100 C.ar  191  HEM191      0.0000
      9  C3A       40.7340   30.7940   -7.0520 C.ar  191  HEM191      0.0000
     10  C4A       40.9900   30.6710   -5.5880 C.ar  191  HEM191      0.0000
     11  CMA       40.5120   32.0920   -7.8670 C.3   191  HEM191      0.0000
     12  CAA       40.4480   28.9590   -8.8640 C.3   191  HEM191      0.0000
     13  CBA       39.1030   28.2470   -8.4080 C.3   191  HEM191      0.0000
     14  CGA       38.3370   27.3340   -9.2330 C.2   191  HEM191      0.0000
     15  O1A       37.9510   27.5810  -10.4280 O.co2 191  HEM191      0.0000
     16  O2A       38.1100   26.3060   -8.7020 O.co2 191  HEM191      0.0000
     17  NB        41.3230   30.2120   -2.6270 N.2   191  HEM191      0.0000
     18  C1B       41.2170   31.4580   -3.2460 C.2   191  HEM191      0.0000
     19  C2B       41.2490   32.5260   -2.2640 C.2   191  HEM191      0.0000
     20  C3B       41.3930   31.9420   -0.9940 C.2   191  HEM191      0.0000
     21  C4B       41.4520   30.5090   -1.2300 C.2   191  HEM191      0.0000
     22  CMB       41.1360   34.0340   -2.6010 C.3   191  HEM191      0.0000
     23  CAB       41.4640   32.6440    0.2710 C.3   191  HEM191      0.0000
     24  CBB       42.4580   33.5150    0.7440 C.3   191  HEM191      0.0000
     25  NC        41.5100   27.4510   -1.3990 N.ar  191  HEM191      0.0000
     26  C1C       41.6100   28.1570   -0.2630 C.ar  191  HEM191      0.0000
     27  C2C       41.7140   27.2750    0.8960 C.ar  191  HEM191      0.0000
     28  C3C       41.7030   25.9810    0.4150 C.ar  191  HEM191      0.0000
     29  C4C       41.5700   26.1210   -1.0530 C.ar  191  HEM191      0.0000
     30  CMC       41.8340   27.7190    2.3750 C.3   191  HEM191      0.0000
     31  CAC       41.7960   24.8090    1.2050 C.2   191  HEM191      0.0000
     32  CBC       42.7710   23.8420    1.1000 C.2   191  HEM191      0.0000
     33  ND        41.2660   26.4980   -4.0580 N.2   191  HEM191      0.0000
     34  C1D       41.3770   25.2590   -3.4500 C.2   191  HEM191      0.0000
     35  C2D       41.3570   24.1960   -4.4680 C.2   191  HEM191      0.0000
     36  C3D       41.2420   24.8000   -5.6980 C.2   191  HEM191      0.0000
     37  C4D       41.1650   26.2330   -5.4340 C.2   191  HEM191      0.0000
     38  CMD       41.4640   22.6730   -4.2400 C.3   191  HEM191      0.0000
     39  CAD       41.2060   24.0680   -7.0660 C.3   191  HEM191      0.0000
     40  CBD       42.6550   23.6950   -7.4610 C.3   191  HEM191      0.0000
     41  CGD       42.9870   23.4140   -8.9300 C.2   191  HEM191      0.0000
     42  O1D       44.1670   23.1290   -9.1860 O.co2 191  HEM191      0.0000
     43  O2D       42.0940   23.4760   -9.8150 O.co2 191  HEM191      0.0000
@<TRIPOS>BOND
     1    15    14   ar
     2    43    41   ar
     3    14    16   ar
     4    14    13    1
     5    42    41   ar
     6    41    40    1
     7    12    13    1
     8    12     8    1
     9    11     9    1
    10     8     9   ar
    11     8     7   ar
    12    40    39    1
    13    39    36    1
    14     9    10   ar
    15     2     7    2
    16     2    37    1
    17     7     6   ar
    18    36    37    1
    19    36    35    2
    20    10     6   ar
    21    10     3    2
    22    37    33    2
    23     6     1    1
    24     3    18    1
    25    35    38    1
    26    35    34    1
    27    33    34    1
    28    33     1    1
    29    34     5    2
    30     1    17    1
    31     1    25    1
    32    18    17    2
    33    18    19    1
    34    17    21    1
    35    22    19    1
    36    19    20    2
    37     5    29    1
    38    25    29   ar
    39    25    26   ar
    40    21    20    1
    41    21     4    2
    42    29    28   ar
    43    20    23    1
    44    26     4    1
    45    26    27   ar
    46    23    24    1
    47    28    27   ar
    48    28    31    1
    49    27    30    1
    50    32    31    2
