@<TRIPOS>MOLECULE
1v5y_4HC_A_1.pdb
 12 13 0 0 0
SMALL
GASTEIGER

@<TRIPOS>ATOM
      1  CA        63.8030   -1.6370   20.0480 C.ar  1455  4HC1455     0.1243
      2  CA2       64.7130   -2.6800   20.1600 C.ar  1455  4HC1455     0.3492
      3  CA4       66.3750   -1.1920   21.1020 C.ar  1455  4HC1455     0.1518
      4  CA5       65.4610   -0.1500   21.0000 C.ar  1455  4HC1455     0.0738
      5  CA6       64.1930   -0.3670   20.4110 C.ar  1455  4HC1455     0.2051
      6  CD1       67.6130   -1.0090   21.7090 C.ar  1455  4HC1455     0.0377
      7  CD2       67.9220    0.2220   22.2680 C.ar  1455  4HC1455     0.0031
      8  CD3       67.0620    1.3000   22.0890 C.ar  1455  4HC1455     0.0003
      9  CD4       65.8210    1.1080   21.4780 C.ar  1455  4HC1455     0.0062
     10  OA2       64.3440   -3.8250   19.8860 O.2   1455  4HC1455    -0.2444
     11  OA3       66.0330   -2.4310   20.5850 O.2   1455  4HC1455    -0.4209
     12  OA6       63.3350    0.6600   20.1730 O.3   1455  4HC1455    -0.2862
@<TRIPOS>BOND
     1    10     2    2
     2     1     2   ar
     3     1     5   ar
     4     2    11   ar
     5    12     5    1
     6     5     4   ar
     7    11     3   ar
     8     4     3   ar
     9     4     9   ar
    10     3     6   ar
    11     9     8   ar
    12     6     7   ar
    13     8     7   ar
