@<TRIPOS>MOLECULE
1v5y_FMN_A_1.pdb
 31 33 0 0 0
SMALL
GASTEIGER

@<TRIPOS>ATOM
      1  N1        60.5680   31.1400   18.7500 N.2   1454  FMN1454    -0.2887
      2  C2        59.8580   32.0180   19.5350 C.1   1454  FMN1454     0.3669
      3  O2        59.5270   33.1160   19.1230 O.2   1454  FMN1454    -0.1744
      4  N3        60.0390   31.7820   20.9000 N.2   1454  FMN1454    -0.2300
      5  C4        60.5720   30.6410   21.4600 C.1   1454  FMN1454     0.2513
      6  O4        60.5540   30.5880   22.6970 O.2   1454  FMN1454    -0.2057
      7  C4A       61.1580   29.7220   20.5120 C.2   1454  FMN1454     0.2703
      8  N5        61.6380   28.5400   21.0170 N.2   1454  FMN1454    -0.3882
      9  C5A       62.0160   27.5340   20.2070 C.2   1454  FMN1454     0.1277
     10  C6        62.2380   26.3010   20.7200 C.3   1454  FMN1454     0.0820
     11  C7        62.4930   25.2580   19.8640 C.2   1454  FMN1454    -0.0408
     12  C7M       62.8390   23.8570   20.3780 C.3   1454  FMN1454     0.0265
     13  C8        62.4690   25.4680   18.4710 C.2   1454  FMN1454    -0.0280
     14  C8M       62.5460   24.3090   17.4540 C.3   1454  FMN1454     0.0304
     15  C9        62.1990   26.6950   17.9720 C.2   1454  FMN1454     0.0123
     16  C9A       61.9660   27.7320   18.8200 C.2   1454  FMN1454     0.0793
     17  N10       61.6000   28.9460   18.3210 N.pl3 1454  FMN1454    -0.2545
     18  C10       61.1150   29.9210   19.1290 C.2   1454  FMN1454     0.2449
     19  C1'       61.6350   29.2330   16.9660 C.3   1454  FMN1454     0.1336
     20  C2'       63.0600   29.2100   16.2910 C.3   1454  FMN1454     0.2048
     21  O2'       63.6970   30.4590   16.5200 O.3   1454  FMN1454    -0.2185
     22  C3'       62.9010   28.8830   14.7690 C.3   1454  FMN1454     0.2165
     23  O3'       62.3730   27.5800   14.6470 O.3   1454  FMN1454    -0.2175
     24  C4'       64.3040   28.9100   14.0220 C.3   1454  FMN1454     0.2147
     25  O4'       64.7400   30.3040   14.0560 O.3   1454  FMN1454    -0.2176
     26  C5'       64.1200   28.5230   12.5580 C.3   1454  FMN1454     0.1892
     27  O5'       63.1090   29.3620   11.9330 O.3   1454  FMN1454    -0.2674
     28  P         61.6760   28.8990   11.3220 P.3   1454  FMN1454     0.5327
     29  O1P       61.1610   30.2610   11.0540 O.3   1454  FMN1454    -0.1145
     30  O2P       61.1830   28.1280   12.4990 O.3   1454  FMN1454    -0.1145
     31  O3P       62.1860   28.0330   10.2230 O.2   1454  FMN1454    -0.2224
@<TRIPOS>BOND
     1    31    28    2
     2    29    28    1
     3    28    27    1
     4    28    30    1
     5    27    26    1
     6    26    24    1
     7    24    25    1
     8    24    22    1
     9    23    22    1
    10    22    20    1
    11    20    21    1
    12    20    19    1
    13    19    17    1
    14    14    13    1
    15    15    13    1
    16    15    16    2
    17    17    16    1
    18    17    18    1
    19    13    11    2
    20     1    18    2
    21     1     2    2
    22    16     9    1
    23     3     2    2
    24    18     7    1
    25     2     4    2
    26    11    12    1
    27    11    10    1
    28     9    10    1
    29     9     8    2
    30     7     8    2
    31     7     5    1
    32     4     5    2
    33     5     6    2
