@<TRIPOS>MOLECULE
1v5z_FMN_A_1.pdb
 31 33 0 0 0
SMALL
GASTEIGER

@<TRIPOS>ATOM
      1  N1        60.7220   31.1510   18.9080 N.2   1454  FMN1454    -0.2890
      2  C2        60.0390   32.0380   19.6910 C.1   1454  FMN1454     0.3669
      3  O2        59.7360   33.1620   19.2980 O.2   1454  FMN1454    -0.1744
      4  N3        60.1560   31.7500   21.0200 N.2   1454  FMN1454    -0.2300
      5  C4        60.7140   30.6050   21.6000 C.1   1454  FMN1454     0.2513
      6  O4        60.6850   30.5190   22.8350 O.2   1454  FMN1454    -0.2057
      7  C4A       61.3250   29.7220   20.6680 C.2   1454  FMN1454     0.2700
      8  N5        61.8330   28.5240   21.1740 N.2   1454  FMN1454    -0.3878
      9  C5A       62.1990   27.5190   20.3330 C.2   1454  FMN1454     0.1320
     10  C6        62.3810   26.2500   20.8150 C.2   1454  FMN1454     0.0250
     11  C7        62.6920   25.2190   19.9560 C.2   1454  FMN1454    -0.0238
     12  C7M       63.0470   23.7980   20.4530 C.3   1454  FMN1454     0.0308
     13  C8        62.6950   25.4530   18.5990 C.2   1454  FMN1454    -0.0280
     14  C8M       62.7610   24.3260   17.5980 C.3   1454  FMN1454     0.0304
     15  C9        62.4480   26.6960   18.1260 C.2   1454  FMN1454    -0.0041
     16  C9A       62.1890   27.7400   18.9730 C.3   1454  FMN1454     0.1497
     17  N10       61.7590   28.9660   18.4500 N.pl3 1454  FMN1454    -0.2691
     18  C10       61.2560   29.9340   19.2830 C.2   1454  FMN1454     0.2416
     19  C1'       61.7340   29.2570   17.1030 C.3   1454  FMN1454     0.1294
     20  C2'       63.1200   29.2470   16.4070 C.3   1454  FMN1454     0.2044
     21  O2'       63.7280   30.5070   16.5210 O.3   1454  FMN1454    -0.2185
     22  C3'       62.9270   28.8600   14.9320 C.3   1454  FMN1454     0.2164
     23  O3'       62.3560   27.5550   14.8250 O.3   1454  FMN1454    -0.2175
     24  C4'       64.2900   28.9780   14.1540 C.3   1454  FMN1454     0.2147
     25  O4'       64.7380   30.3780   14.1950 O.3   1454  FMN1454    -0.2176
     26  C5'       64.1600   28.6090   12.6850 C.3   1454  FMN1454     0.1892
     27  O5'       63.1690   29.4420   11.9810 O.3   1454  FMN1454    -0.2674
     28  P         61.6990   28.8860   11.4400 P.3   1454  FMN1454     0.5327
     29  O1P       61.1940   30.2380   11.1580 O.3   1454  FMN1454    -0.1145
     30  O2P       61.2070   28.1640   12.6370 O.3   1454  FMN1454    -0.1145
     31  O3P       62.2110   28.0420   10.3570 O.2   1454  FMN1454    -0.2224
@<TRIPOS>BOND
     1    31    28    2
     2    29    28    1
     3    28    27    1
     4    28    30    1
     5    27    26    1
     6    26    24    1
     7    24    25    1
     8    24    22    1
     9    23    22    1
    10    22    20    1
    11    20    21    1
    12    20    19    1
    13    19    17    1
    14    14    13    1
    15    15    13    2
    16    15    16    1
    17    17    16    1
    18    17    18    1
    19    13    11    1
    20     1    18    2
    21     1     2    2
    22    16     9    1
    23    18     7    1
    24     3     2    2
    25     2     4    2
    26    11    12    1
    27    11    10    2
    28     9    10    1
    29     9     8    2
    30     7     8    2
    31     7     5    1
    32     4     5    2
    33     5     6    2
