@<TRIPOS>MOLECULE
1v5z_2HC_A_1.pdb
 12 12 0 0 0
SMALL
GASTEIGER

@<TRIPOS>ATOM
      1  CA        65.2630   -0.7080   20.9190 C.2   815  2HC815      0.0862
      2  C         63.8440   -0.7690   20.2500 C.2   815  2HC815      0.3880
      3  O         63.5290   -1.8630   19.7980 O.co2 815  2HC815     -0.2405
      4  OXT       63.2260    0.2990   20.2670 O.co2 815  2HC815     -0.2405
      5  CB        65.6890    0.6080   21.5040 C.2   815  2HC815      0.0100
      6  CG        67.0610    0.7560   22.1780 C.ar  815  2HC815      0.0392
      7  CD1       67.9730   -0.3550   22.2400 C.ar  815  2HC815      0.0032
      8  CE1       69.2060   -0.2450   22.8390 C.ar  815  2HC815      0.0002
      9  CZ        69.6330    0.9460   23.4320 C.ar  815  2HC815      0.0033
     10  CE2       68.7550    2.1410   23.4110 C.ar  815  2HC815      0.0420
     11  CD2       67.4010    1.9870   22.7300 C.ar  815  2HC815      0.1956
     12  OH        66.4720    3.0840   22.6580 O.3   815  2HC815     -0.2866
@<TRIPOS>BOND
     1     3     2   ar
     2     2     4   ar
     3     2     1    1
     4     1     5    2
     5     5     6    1
     6     6     7   ar
     7     6    11   ar
     8     7     8   ar
     9    12    11    1
    10    11    10   ar
    11     8     9   ar
    12    10     9   ar
