@<TRIPOS>MOLECULE
1v6a_TRE_A_1.pdb
 23 24 0 0 0
SMALL
GASTEIGER

@<TRIPOS>ATOM
      1  C1       132.0070   55.1620  -54.7560 C.3   333  TRE333      0.2713
      2  C2       130.6630   55.1740  -53.9550 C.3   333  TRE333      0.2406
      3  C3       130.7820   56.3090  -52.8750 C.3   333  TRE333      0.2198
      4  C4       131.9430   55.9040  -51.9450 C.3   333  TRE333      0.2144
      5  C5       133.2780   55.8210  -52.7530 C.3   333  TRE333      0.1835
      6  C6       134.4780   55.4000  -51.9460 C.3   333  TRE333      0.2142
      7  O1       132.1070   56.4110  -55.3790 O.3   333  TRE333     -0.3016
      8  O2       129.6230   55.4560  -54.8420 O.3   333  TRE333     -0.2149
      9  O3       129.6130   56.3640  -52.1260 O.3   333  TRE333     -0.2174
     10  O4       132.1500   56.8440  -50.9460 O.3   333  TRE333     -0.2176
     11  O5       133.1620   54.8860  -53.8560 O.3   333  TRE333     -0.3256
     12  O6       135.5990   55.3490  -52.8050 O.3   333  TRE333     -0.2176
     13  C1P      133.2560   56.7710  -56.1820 C.3   333  TRE333      0.2713
     14  C2P      133.9470   58.0540  -56.6800 C.3   333  TRE333      0.2406
     15  C3P      132.8940   58.7570  -57.6620 C.3   333  TRE333      0.2198
     16  C4P      132.7570   57.8080  -58.8780 C.3   333  TRE333      0.2144
     17  C5P      132.1590   56.4090  -58.3790 C.3   333  TRE333      0.1835
     18  C6P      132.0370   55.4130  -59.5300 C.3   333  TRE333      0.2142
     19  O2P      134.1170   58.8650  -55.5660 O.3   333  TRE333     -0.2149
     20  O3P      133.4120   59.9460  -58.1410 O.3   333  TRE333     -0.2174
     21  O4P      131.8480   58.3500  -59.8490 O.3   333  TRE333     -0.2176
     22  O5P      133.0590   55.8750  -57.3630 O.3   333  TRE333     -0.3256
     23  O6P      133.3350   54.9670  -59.8940 O.3   333  TRE333     -0.2176
@<TRIPOS>BOND
     1    23    18    1
     2    21    16    1
     3    18    17    1
     4    16    17    1
     5    16    15    1
     6    17    22    1
     7    20    15    1
     8    15    14    1
     9    22    13    1
    10    14    13    1
    11    14    19    1
    12    13     7    1
    13     7     1    1
    14     8     2    1
    15     1     2    1
    16     1    11    1
    17     2     3    1
    18    11     5    1
    19     3     9    1
    20     3     4    1
    21    12     6    1
    22     5     6    1
    23     5     4    1
    24     4    10    1
