@<TRIPOS>MOLECULE
1v6d_III_B_1.pdb
 48 48 0 0 0
SMALL
GASTEIGER

@<TRIPOS>ATOM
      1  N         -1.2380   -5.1930   53.1190 N.3     1  PRO1       -0.2102
      2  CA        -2.2450   -5.7590   52.2200 C.3     1  PRO1        0.1504
      3  C         -3.3340   -6.5380   52.9690 C.2     1  PRO1        0.2576
      4  O         -4.1880   -5.7530   53.5680 O.2     1  PRO1       -0.2718
      5  CB        -1.4570   -6.7860   51.3970 C.3     1  PRO1        0.0282
      6  CG        -0.3850   -7.2440   52.3060 C.3     1  PRO1        0.0208
      7  CD        -0.0890   -6.0840   53.2130 C.3     1  PRO1        0.0893
      8  N         -3.1780   -7.7840   53.1070 N.am    2  ASP2       -0.1960
      9  CA        -4.2100   -8.6260   53.6570 C.3     2  ASP2        0.1840
     10  C         -3.5190   -9.2200   54.8590 C.2     2  ASP2        0.2621
     11  O         -2.3620   -8.8370   55.1180 O.2     2  ASP2       -0.2715
     12  CB        -4.5570   -9.6960   52.6180 C.3     2  ASP2        0.1450
     13  CG        -5.6660  -10.6070   53.0610 C.2     2  ASP2        0.3671
     14  OD1       -5.6610  -11.8100   52.6610 O.co2   2  ASP2       -0.2456
     15  OD2       -6.5820  -10.2050   53.8000 O.co2   2  ASP2       -0.2456
     16  N         -3.8570  -10.3630   55.3430 N.am    3  ALA3       -0.1985
     17  CA        -4.2400  -10.5270   56.7440 C.3     3  ALA3        0.1484
     18  C         -3.5300   -9.8800   57.9260 C.2     3  ALA3        0.2595
     19  O         -2.3370  -10.0760   58.1670 O.2     3  ALA3       -0.2716
     20  CB1       -4.7990  -11.9030   57.1080 C.3     3  ALA3        0.0311
     21  CB2       -5.2220   -9.4180   56.6360 C.3     3  ALA3        0.0311
     22  N         -4.4040   -9.5670   58.8620 N.am    4  LEU4       -0.1964
     23  CA        -4.1960   -8.6670   60.0150 C.3     4  LEU4        0.1728
     24  C         -3.3860   -9.2860   61.1460 C.2     4  LEU4        0.2615
     25  O         -2.5210  -10.1180   60.8900 O.2     4  LEU4       -0.2715
     26  CB        -5.5270   -8.1850   60.5930 C.3     4  LEU4        0.0311
     27  CG        -6.1700   -7.0790   59.7680 C.3     4  LEU4        0.0022
     28  CD1       -5.1140   -6.0920   59.2170 C.3     4  LEU4        0.0001
     29  CD2       -7.0600   -7.6100   58.6350 C.3     4  LEU4        0.0001
     30  N         -3.3930   -8.3820   62.1300 N.am    5  ALA5       -0.1985
     31  CA        -2.8090   -8.6470   63.4280 C.3     5  ALA5        0.1484
     32  C         -3.8080   -9.1350   64.4590 C.2     5  ALA5        0.2595
     33  O         -4.8040   -9.7440   64.0960 O.2     5  ALA5       -0.2716
     34  CB1       -2.0660   -7.3690   63.9150 C.3     5  ALA5        0.0311
     35  CB2       -2.0650   -9.9440   63.1630 C.3     5  ALA5        0.0311
     36  N         -3.3490   -8.8980   65.7000 N.am    6  LEU6       -0.1964
     37  CA        -4.0350   -9.5180   66.8740 C.3     6  LEU6        0.1728
     38  C         -3.8220  -11.0250   66.8990 C.2     6  LEU6        0.2616
     39  O         -4.6020  -11.7570   66.2600 O.2     6  LEU6       -0.2715
     40  CB        -5.5470   -9.2300   66.8160 C.3     6  LEU6        0.0311
     41  CG        -6.4560   -9.2680   68.0350 C.3     6  LEU6        0.0022
     42  CD1       -7.7320  -10.0270   67.6000 C.3     6  LEU6        0.0001
     43  CD2       -5.8150   -9.9420   69.2500 C.3     6  LEU6        0.0001
     44  N         -2.6480  -11.4850   67.3080 N.am    7  ALA7       -0.1977
     45  CA        -1.3920  -10.6490   67.3760 C.3     7  ALA7        0.1597
     46  C         -0.5320  -10.1030   66.2480 C.2     7  ALA7        0.2287
     47  O         -1.0770   -9.4460   65.3530 O.2     7  ALA7       -0.2864
     48  CB        -0.5990  -10.7340   68.6540 C.3     7  ALA7        0.0319
@<TRIPOS>BOND
     1     5     2    1
     2     5     6    1
     3     2     3    1
     4     2     1    1
     5     6     7    1
     6    12    13    1
     7    12     9    1
     8    14    13   ar
     9     3     8   am
    10     3     4    2
    11    13    15   ar
    12     8     9    1
    13     1     7    1
    14     9    10    1
    15    10    11    2
    16    10    16   am
    17    16    17    1
    18    21    17    1
    19    17    20    1
    20    17    18    1
    21    18    19    2
    22    18    22   am
    23    29    27    1
    24    22    23    1
    25    28    27    1
    26    27    26    1
    27    23    26    1
    28    23    24    1
    29    25    24    2
    30    24    30   am
    31    30    31    1
    32    35    31    1
    33    31    34    1
    34    31    32    1
    35    33    32    2
    36    32    36   am
    37    47    46    2
    38    36    37    1
    39    46    45    1
    40    39    38    2
    41    40    37    1
    42    40    41    1
    43    37    38    1
    44    38    44   am
    45    44    45    1
    46    45    48    1
    47    42    41    1
    48    41    43    1
