@<TRIPOS>MOLECULE
1v6i_GAL_A_1.pdb
 11 11 0 0 0
SMALL
GASTEIGER

@<TRIPOS>ATOM
      1  C1        54.3900   26.2780   63.6140 C.3   240  GAL240      0.1777
      2  C2        52.9790   26.1170   63.0410 C.3   240  GAL240      0.2141
      3  C3        52.6030   24.6380   62.9270 C.3   240  GAL240      0.2173
      4  C4        53.6800   23.8800   62.1410 C.3   240  GAL240      0.2142
      5  C5        55.0190   24.0960   62.8380 C.3   240  GAL240      0.1810
      6  C6        56.1670   23.3830   62.1560 C.3   240  GAL240      0.2141
      7  O2        52.0500   26.7790   63.8820 O.3   240  GAL240     -0.2176
      8  O3        51.3480   24.5170   62.2800 O.3   240  GAL240     -0.2175
      9  O4        53.7530   24.3830   60.8090 O.3   240  GAL240     -0.2176
     10  O5        55.3340   25.5050   62.8520 O.3   240  GAL240     -0.3481
     11  O6        57.2560   23.2060   63.0500 O.3   240  GAL240     -0.2176
@<TRIPOS>BOND
     1     9     4    1
     2     4     5    1
     3     4     3    1
     4     6     5    1
     5     6    11    1
     6     8     3    1
     7     5    10    1
     8    10     1    1
     9     3     2    1
    10     2     1    1
    11     2     7    1
