@<TRIPOS>MOLECULE
1v6i_GLC_A_1.pdb
 12 12 0 0 0
SMALL
GASTEIGER

@<TRIPOS>ATOM
      1  C1        57.9380   29.9820   64.9320 C.3   241  GLC241      0.3024
      2  C2        58.2220   29.0910   63.7120 C.3   241  GLC241      0.2434
      3  C3        56.9140   28.6150   63.0710 C.3   241  GLC241      0.2199
      4  C4        56.0180   27.9700   64.1250 C.3   241  GLC241      0.2144
      5  C5        55.7950   28.9640   65.2680 C.3   241  GLC241      0.1836
      6  C6        54.9160   28.4210   66.3750 C.3   241  GLC241      0.2142
      7  O1        57.3180   31.1480   64.5220 O.3   241  GLC241     -0.1869
      8  O2        58.9700   29.8270   62.7570 O.3   241  GLC241     -0.2148
      9  O3        57.1900   27.6770   62.0420 O.3   241  GLC241     -0.2174
     10  O4        54.7600   27.6100   63.5290 O.3   241  GLC241     -0.2176
     11  O5        57.0640   29.3160   65.8600 O.3   241  GLC241     -0.3236
     12  O6        55.3770   27.1550   66.8150 O.3   241  GLC241     -0.2176
@<TRIPOS>BOND
     1     9     3    1
     2     8     2    1
     3     3     2    1
     4     3     4    1
     5    10     4    1
     6     2     1    1
     7     4     5    1
     8     7     1    1
     9     1    11    1
    10     5    11    1
    11     5     6    1
    12     6    12    1
