@<TRIPOS>MOLECULE
1v6j_GLC_A_1.pdb
 12 12 0 0 0
SMALL
GASTEIGER

@<TRIPOS>ATOM
      1  C1        58.2570   29.8790   64.6610 C.3   240  GLC240      0.3024
      2  C2        58.3690   28.9350   63.4610 C.3   240  GLC240      0.2434
      3  C3        56.9720   28.5610   62.9500 C.3   240  GLC240      0.2199
      4  C4        56.1370   27.9910   64.0960 C.3   240  GLC240      0.2144
      5  C5        56.0950   29.0060   65.2430 C.3   240  GLC240      0.1836
      6  C6        55.3340   28.4850   66.4410 C.3   240  GLC240      0.2142
      7  O1        57.6680   31.0630   64.2600 O.3   240  GLC240     -0.1869
      8  O2        59.1030   29.5740   62.4290 O.3   240  GLC240     -0.2148
      9  O3        57.0780   27.5990   61.9120 O.3   240  GLC240     -0.2174
     10  O4        54.8010   27.6970   63.6350 O.3   240  GLC240     -0.2176
     11  O5        57.4390   29.2980   65.6900 O.3   240  GLC240     -0.3236
     12  O6        55.5500   27.0920   66.6090 O.3   240  GLC240     -0.2176
@<TRIPOS>BOND
     1     9     3    1
     2     8     2    1
     3     3     2    1
     4     3     4    1
     5     2     1    1
     6    10     4    1
     7     4     5    1
     8     7     1    1
     9     1    11    1
    10     5    11    1
    11     5     6    1
    12     6    12    1
