@<TRIPOS>MOLECULE
1v6j_GAL_A_1.pdb
 11 11 0 0 0
SMALL
GASTEIGER

@<TRIPOS>ATOM
      1  C1        54.3980   26.3700   63.6980 C.3   239  GAL239      0.1777
      2  C2        52.9970   26.2300   63.0800 C.3   239  GAL239      0.2141
      3  C3        52.5920   24.7620   62.9780 C.3   239  GAL239      0.2173
      4  C4        53.6790   23.9500   62.2590 C.3   239  GAL239      0.2142
      5  C5        55.0230   24.1780   62.9480 C.3   239  GAL239      0.1810
      6  C6        56.1630   23.4620   62.2490 C.3   239  GAL239      0.2141
      7  O2        52.0430   26.9210   63.8720 O.3   239  GAL239     -0.2176
      8  O3        51.3640   24.6650   62.2720 O.3   239  GAL239     -0.2175
      9  O4        53.7710   24.3510   60.8980 O.3   239  GAL239     -0.2176
     10  O5        55.3420   25.5880   62.9520 O.3   239  GAL239     -0.3481
     11  O6        57.2750   23.3040   63.1180 O.3   239  GAL239     -0.2176
@<TRIPOS>BOND
     1     9     4    1
     2     6     5    1
     3     6    11    1
     4     4     5    1
     5     4     3    1
     6     8     3    1
     7     5    10    1
     8    10     1    1
     9     3     2    1
    10     2     1    1
    11     2     7    1
