@<TRIPOS>MOLECULE
1v6k_GAL_A_1.pdb
 11 11 0 0 0
SMALL
GASTEIGER

@<TRIPOS>ATOM
      1  C1        54.1860   26.3170   63.2260 C.3   235  GAL235      0.1777
      2  C2        52.7580   26.1690   62.6950 C.3   235  GAL235      0.2141
      3  C3        52.3600   24.6940   62.6310 C.3   235  GAL235      0.2173
      4  C4        53.4060   23.8860   61.8510 C.3   235  GAL235      0.2142
      5  C5        54.7830   24.1230   62.4670 C.3   235  GAL235      0.1810
      6  C6        55.8850   23.3900   61.7260 C.3   235  GAL235      0.2141
      7  O2        51.8620   26.8670   63.5460 O.3   235  GAL235     -0.2176
      8  O3        51.0900   24.5710   62.0090 O.3   235  GAL235     -0.2175
      9  O4        53.4170   24.2890   60.4860 O.3   235  GAL235     -0.2176
     10  O5        55.0980   25.5340   62.4340 O.3   235  GAL235     -0.3481
     11  O6        57.0970   23.4110   62.4640 O.3   235  GAL235     -0.2176
@<TRIPOS>BOND
     1     9     4    1
     2     6    11    1
     3     6     5    1
     4     4     5    1
     5     4     3    1
     6     8     3    1
     7    10     5    1
     8    10     1    1
     9     3     2    1
    10     2     1    1
    11     2     7    1
