@<TRIPOS>MOLECULE
1v6k_GLC_A_1.pdb
 12 12 0 0 0
SMALL
GASTEIGER

@<TRIPOS>ATOM
      1  C1        57.8260   29.9840   64.3910 C.3   236  GLC236      0.3024
      2  C2        58.0750   29.0290   63.2120 C.3   236  GLC236      0.2434
      3  C3        56.7440   28.5670   62.6110 C.3   236  GLC236      0.2199
      4  C4        55.8470   27.9860   63.7000 C.3   236  GLC236      0.2144
      5  C5        55.6740   29.0130   64.8260 C.3   236  GLC236      0.1836
      6  C6        54.8410   28.4770   65.9760 C.3   236  GLC236      0.2142
      7  O1        57.2070   31.1350   63.9360 O.3   236  GLC236     -0.1869
      8  O2        58.8400   29.6950   62.2170 O.3   236  GLC236     -0.2148
      9  O3        56.9750   27.5840   61.6160 O.3   236  GLC236     -0.2174
     10  O4        54.5660   27.6470   63.1390 O.3   236  GLC236     -0.2176
     11  O5        56.9670   29.3730   65.3660 O.3   236  GLC236     -0.3236
     12  O6        55.2920   27.1910   66.3730 O.3   236  GLC236     -0.2176
@<TRIPOS>BOND
     1     9     3    1
     2     8     2    1
     3     3     2    1
     4     3     4    1
     5    10     4    1
     6     2     1    1
     7     4     5    1
     8     7     1    1
     9     1    11    1
    10     5    11    1
    11     5     6    1
    12     6    12    1
