@<TRIPOS>MOLECULE
1v6l_GLC_A_1.pdb
 12 12 0 0 0
SMALL
GASTEIGER

@<TRIPOS>ATOM
      1  C1        58.0260   29.7890   64.4370 C.3   236  GLC236      0.3024
      2  C2        58.2490   28.8470   63.2450 C.3   236  GLC236      0.2434
      3  C3        56.9030   28.4130   62.6520 C.3   236  GLC236      0.2199
      4  C4        56.0120   27.8280   63.7470 C.3   236  GLC236      0.2144
      5  C5        55.8680   28.8440   64.8830 C.3   236  GLC236      0.1836
      6  C6        55.0330   28.3250   66.0350 C.3   236  GLC236      0.2142
      7  O1        57.4130   30.9530   64.0060 O.3   236  GLC236     -0.1869
      8  O2        59.0170   29.5140   62.2530 O.3   236  GLC236     -0.2148
      9  O3        57.1090   27.4430   61.6380 O.3   236  GLC236     -0.2174
     10  O4        54.7190   27.5060   63.2010 O.3   236  GLC236     -0.2176
     11  O5        57.1720   29.1720   65.4130 O.3   236  GLC236     -0.3236
     12  O6        55.5050   27.0620   66.4750 O.3   236  GLC236     -0.2176
@<TRIPOS>BOND
     1     9     3    1
     2     8     2    1
     3     3     2    1
     4     3     4    1
     5    10     4    1
     6     2     1    1
     7     4     5    1
     8     7     1    1
     9     1    11    1
    10     5    11    1
    11     5     6    1
    12     6    12    1
