@<TRIPOS>MOLECULE
1v6l_BGC_B_1.pdb
 12 12 0 0 0
SMALL
GASTEIGER

@<TRIPOS>ATOM
      1  C2         1.3890   34.5900   12.4610 C.3   236  BGC236      0.2434
      2  C3         2.7230   33.9620   12.8730 C.3   236  BGC236      0.2199
      3  C4         3.6380   33.8300   11.6520 C.3   236  BGC236      0.2144
      4  C5         3.7840   35.1900   10.9590 C.3   236  BGC236      0.1836
      5  C6         4.5910   35.1020    9.6790 C.3   236  BGC236      0.2142
      6  C1         1.6440   35.9220   11.7460 C.3   236  BGC236      0.3024
      7  O1         0.4450   36.4480   11.2970 O.3   236  BGC236     -0.1869
      8  O2         0.5770   34.8030   13.6090 O.3   236  BGC236     -0.2148
      9  O3         2.4980   32.6810   13.4440 O.3   236  BGC236     -0.2174
     10  O4         4.9330   33.3640   12.0720 O.3   236  BGC236     -0.2176
     11  O5         2.4850   35.7110   10.6040 O.3   236  BGC236     -0.3236
     12  O6         4.0980   34.0730    8.8330 O.3   236  BGC236     -0.2176
@<TRIPOS>BOND
     1    12     5    1
     2     5     4    1
     3    11     4    1
     4    11     6    1
     5     4     3    1
     6     7     6    1
     7     3    10    1
     8     3     2    1
     9     6     1    1
    10     1     2    1
    11     1     8    1
    12     2     9    1
