@<TRIPOS>MOLECULE
1v6l_GAL_A_1.pdb
 11 11 0 0 0
SMALL
GASTEIGER

@<TRIPOS>ATOM
      1  C1        54.3160   26.1820   63.3050 C.3   235  GAL235      0.1777
      2  C2        52.8970   26.0350   62.7410 C.3   235  GAL235      0.2141
      3  C3        52.4850   24.5630   62.7450 C.3   235  GAL235      0.2173
      4  C4        53.5220   23.7320   61.9900 C.3   235  GAL235      0.2142
      5  C5        54.9070   23.9640   62.5920 C.3   235  GAL235      0.1810
      6  C6        55.9830   23.2280   61.8200 C.3   235  GAL235      0.2141
      7  O2        51.9840   26.7900   63.5230 O.3   235  GAL235     -0.2176
      8  O3        51.2140   24.4200   62.1310 O.3   235  GAL235     -0.2175
      9  O4        53.5330   24.1080   60.6200 O.3   235  GAL235     -0.2176
     10  O5        55.2350   25.3730   62.5490 O.3   235  GAL235     -0.3481
     11  O6        57.2150   23.2310   62.5240 O.3   235  GAL235     -0.2176
@<TRIPOS>BOND
     1     9     4    1
     2     6    11    1
     3     6     5    1
     4     4     5    1
     5     4     3    1
     6     8     3    1
     7    10     5    1
     8    10     1    1
     9     2     3    1
    10     2     1    1
    11     2     7    1
