@<TRIPOS>MOLECULE
1v6u_XYP_A_2.pdb
 10 10 0 0 0
SMALL
GASTEIGER

@<TRIPOS>ATOM
      1  O4A       36.8400   33.2590   47.6430 O.3   452  XYP452     -0.1869
      2  C1B       36.4320   32.2620   48.5130 C.3   452  XYP452      0.3024
      3  C2B       36.6050   30.8950   47.8430 C.3   452  XYP452      0.2434
      4  C3B       36.2150   29.8020   48.8400 C.3   452  XYP452      0.2199
      5  C4B       37.1120   29.9400   50.0710 C.3   452  XYP452      0.2143
      6  C5B       36.9120   31.3360   50.6730 C.3   452  XYP452      0.1804
      7  O2B       35.7710   30.8260   46.6910 O.3   452  XYP452     -0.2148
      8  O3B       36.4080   28.5270   48.2430 O.3   452  XYP452     -0.2174
      9  O4B       36.7860   28.9330   51.0510 O.3   452  XYP452     -0.2176
     10  O5B       37.2500   32.3460   49.6930 O.3   452  XYP452     -0.3237
@<TRIPOS>BOND
     1     7     3    1
     2     1     2    1
     3     3     2    1
     4     3     4    1
     5     8     4    1
     6     2    10    1
     7     4     5    1
     8    10     6    1
     9     5     6    1
    10     5     9    1
