@<TRIPOS>MOLECULE
1v6v_XYP_A_2.pdb
 10 10 0 0 0
SMALL
GASTEIGER

@<TRIPOS>ATOM
      1  O4A       36.3370   32.9240   49.2780 O.3   452  XYP452     -0.1869
      2  C1B       35.8980   31.9360   50.1360 C.3   452  XYP452      0.3024
      3  C2B       36.0910   30.5630   49.4840 C.3   452  XYP452      0.2434
      4  C3B       35.6560   29.4810   50.4790 C.3   452  XYP452      0.2199
      5  C4B       36.5090   29.6350   51.7310 C.3   452  XYP452      0.2143
      6  C5B       36.2970   31.0330   52.3140 C.3   452  XYP452      0.1804
      7  O2B       35.3040   30.4880   48.3010 O.3   452  XYP452     -0.2148
      8  O3B       35.8570   28.1920   49.9160 O.3   452  XYP452     -0.2174
      9  O4B       36.1580   28.6390   52.7100 O.3   452  XYP452     -0.2176
     10  O5B       36.6740   32.0300   51.3400 O.3   452  XYP452     -0.3237
@<TRIPOS>BOND
     1     7     3    1
     2     1     2    1
     3     3     2    1
     4     3     4    1
     5     8     4    1
     6     2    10    1
     7     4     5    1
     8    10     6    1
     9     5     6    1
    10     5     9    1
