@<TRIPOS>MOLECULE
1v6w_XYP_A_2.pdb
 10 10 0 0 0
SMALL
GASTEIGER

@<TRIPOS>ATOM
      1  O4A        4.6520   51.2850   87.1750 O.3   461  XYP461     -0.1869
      2  C1B        4.6400   52.6140   86.7920 C.3   461  XYP461      0.3024
      3  C2B        4.9580   52.7410   85.2960 C.3   461  XYP461      0.2434
      4  C3B        4.9070   54.2160   84.9140 C.3   461  XYP461      0.2199
      5  C4B        3.5090   54.7420   85.2190 C.3   461  XYP461      0.2143
      6  C5B        3.2370   54.5440   86.7150 C.3   461  XYP461      0.1804
      7  O2B        6.2590   52.2320   85.0500 O.3   461  XYP461     -0.2148
      8  O3B        5.1770   54.3510   83.5260 O.3   461  XYP461     -0.2174
      9  O4B        3.4820   56.1560   84.9500 O.3   461  XYP461     -0.2176
     10  O5B        3.3360   53.1470   87.0660 O.3   461  XYP461     -0.3237
@<TRIPOS>BOND
     1     8     4    1
     2     4     5    1
     3     4     3    1
     4     9     5    1
     5     7     3    1
     6     5     6    1
     7     3     2    1
     8     6    10    1
     9     2    10    1
    10     2     1    1
