@<TRIPOS>MOLECULE
1v6x_XYP_A_10.pdb
 10 10 0 0 0
SMALL
GASTEIGER

@<TRIPOS>ATOM
      1  O4A        1.7930   31.9430   83.1120 O.3   473  XYP473     -0.1869
      2  C1B        0.9400   31.3160   82.2190 C.3   473  XYP473      0.3024
      3  C2B        1.1860   31.8390   80.7960 C.3   473  XYP473      0.2434
      4  C3B        0.2590   31.0900   79.8300 C.3   473  XYP473      0.2199
      5  C4B        0.5850   29.5980   79.9370 C.3   473  XYP473      0.2143
      6  C5B        0.3580   29.1490   81.3830 C.3   473  XYP473      0.1804
      7  O2B        0.9030   33.2320   80.7530 O.3   473  XYP473     -0.2148
      8  O3B        0.5000   31.5410   78.5030 O.3   473  XYP473     -0.2174
      9  O4B       -0.2780   28.8280   79.0720 O.3   473  XYP473     -0.2176
     10  O5B        1.2040   29.9050   82.2770 O.3   473  XYP473     -0.3237
@<TRIPOS>BOND
     1     8     4    1
     2     9     5    1
     3     4     5    1
     4     4     3    1
     5     5     6    1
     6     7     3    1
     7     3     2    1
     8     6    10    1
     9     2    10    1
    10     2     1    1
