@<TRIPOS>MOLECULE
1v71_PLP_A_1.pdb
 15 15 0 0 0
SMALL
GASTEIGER

@<TRIPOS>ATOM
      1  N1        13.9960   56.6040   24.3730 N.ar  350  PLP350     -0.2452
      2  C2        13.0030   56.7620   25.2670 C.ar  350  PLP350      0.0978
      3  C2A       11.5950   57.0120   24.7550 C.3   350  PLP350      0.0555
      4  C3        13.2870   56.7020   26.6210 C.ar  350  PLP350      0.2049
      5  O3        12.2770   56.8460   27.5400 O.3   350  PLP350     -0.2857
      6  C4        14.5810   56.4840   27.0450 C.ar  350  PLP350      0.0182
      7  C4A       14.8570   56.4130   28.5500 C.3   350  PLP350      0.0342
      8  C5        15.5880   56.3270   26.0820 C.ar  350  PLP350      0.0261
      9  C6        15.2720   56.3890   24.7780 C.ar  350  PLP350      0.0965
     10  C5A       17.0610   56.0860   26.4200 C.3   350  PLP350      0.1815
     11  O4P       17.2110   54.7940   27.0380 O.3   350  PLP350     -0.2653
     12  P         18.5050   54.4670   27.9020 P.3   350  PLP350      0.5329
     13  O1P       18.8140   55.5600   28.8510 O.3   350  PLP350     -0.1145
     14  O2P       19.6700   54.4720   26.8060 O.2   350  PLP350     -0.2224
     15  O3P       18.3540   53.0840   28.4340 O.3   350  PLP350     -0.1145
@<TRIPOS>BOND
     1     1     9   ar
     2     1     2   ar
     3     3     2    1
     4     9     8   ar
     5     2     4   ar
     6     8    10    1
     7     8     6   ar
     8    10    11    1
     9     4     6   ar
    10     4     5    1
    11    14    12    2
    12    11    12    1
    13     6     7    1
    14    12    15    1
    15    12    13    1
