@<TRIPOS>MOLECULE
1v72_PLP_A_1.pdb
 15 15 0 0 0
SMALL
GASTEIGER

@<TRIPOS>ATOM
      1  N1        62.3230   57.8880   68.2400 N.ar  513  PLP513     -0.2452
      2  C2        62.5820   58.6010   69.3730 C.ar  513  PLP513      0.0978
      3  C2A       62.7180   57.8340   70.7060 C.3   513  PLP513      0.0555
      4  C3        62.7310   59.9830   69.3070 C.ar  513  PLP513      0.2049
      5  O3        63.0010   60.7020   70.4580 O.3   513  PLP513     -0.2857
      6  C4        62.6160   60.6410   68.0650 C.ar  513  PLP513      0.0182
      7  C4A       62.8230   62.1590   68.0140 C.3   513  PLP513      0.0342
      8  C5        62.3470   59.8700   66.9030 C.ar  513  PLP513      0.0261
      9  C6        62.2030   58.5180   67.0120 C.ar  513  PLP513      0.0965
     10  C5A       62.2210   60.4440   65.4810 C.3   513  PLP513      0.1815
     11  O4P       61.2750   61.4060   65.1630 O.3   513  PLP513     -0.2653
     12  P         61.2850   62.1420   63.7450 P.3   513  PLP513      0.5329
     13  O1P       60.5360   63.3700   63.9960 O.3   513  PLP513     -0.1145
     14  O2P       60.4030   61.1240   62.8990 O.2   513  PLP513     -0.2224
     15  O3P       62.6290   62.1890   63.1080 O.3   513  PLP513     -0.1145
@<TRIPOS>BOND
     1    14    12    2
     2    15    12    1
     3    12    13    1
     4    12    11    1
     5    11    10    1
     6    10     8    1
     7     8     9   ar
     8     8     6   ar
     9     9     1   ar
    10     7     6    1
    11     6     4   ar
    12     1     2   ar
    13     4     2   ar
    14     4     5    1
    15     2     3    1
