@<TRIPOS>MOLECULE
1v75_HEM_A_1.pdb
 43 50 0 0 0
SMALL
GASTEIGER

@<TRIPOS>ATOM
      1 FE         61.8570  -37.8570   17.0100 Fe    201  HEM201      0.0000
      2  CHA       61.4680  -38.9730   20.2190 C.2   201  HEM201      0.0000
      3  CHB       63.5660  -40.7850   16.2240 C.2   201  HEM201      0.0000
      4  CHC       62.2560  -36.7110   13.8330 C.2   201  HEM201      0.0000
      5  CHD       60.1770  -34.8670   17.8590 C.2   201  HEM201      0.0000
      6  NA        62.4070  -39.5800   18.0470 N.ar  201  HEM201      0.0000
      7  C1A       62.1290  -39.8030   19.3440 C.ar  201  HEM201      0.0000
      8  C2A       62.6600  -41.1060   19.7080 C.ar  201  HEM201      0.0000
      9  C3A       63.2640  -41.6260   18.5800 C.ar  201  HEM201      0.0000
     10  C4A       63.0960  -40.6430   17.5250 C.ar  201  HEM201      0.0000
     11  CMA       63.9740  -42.9640   18.4450 C.3   201  HEM201      0.0000
     12  CAA       62.5460  -41.7270   21.0910 C.3   201  HEM201      0.0000
     13  CBA       63.7460  -41.5110   22.0270 C.3   201  HEM201      0.0000
     14  CGA       63.5980  -42.2970   23.3340 C.2   201  HEM201      0.0000
     15  O1A       63.1370  -43.4550   23.2760 O.co2 201  HEM201      0.0000
     16  O2A       63.9610  -41.7130   24.3630 O.co2 201  HEM201      0.0000
     17  NB        62.7440  -38.6060   15.3390 N.2   201  HEM201      0.0000
     18  C1B       63.3820  -39.8170   15.2360 C.2   201  HEM201      0.0000
     19  C2B       63.8650  -39.9530   13.8770 C.2   201  HEM201      0.0000
     20  C3B       63.4930  -38.7980   13.1890 C.2   201  HEM201      0.0000
     21  C4B       62.7810  -37.9560   14.1480 C.2   201  HEM201      0.0000
     22  CMB       64.6300  -41.1590   13.3490 C.3   201  HEM201      0.0000
     23  CAB       63.7390  -38.4200   11.7270 C.3   201  HEM201      0.0000
     24  CBB       65.1860  -38.2970   11.3030 C.3   201  HEM201      0.0000
     25  NC        61.3040  -36.1100   16.0330 N.ar  201  HEM201      0.0000
     26  C1C       61.5890  -35.8870   14.7160 C.ar  201  HEM201      0.0000
     27  C2C       61.0810  -34.5940   14.3320 C.ar  201  HEM201      0.0000
     28  C3C       60.4940  -34.0740   15.4760 C.ar  201  HEM201      0.0000
     29  C4C       60.6340  -35.0320   16.5510 C.ar  201  HEM201      0.0000
     30  CMC       61.2100  -33.9950   12.9450 C.3   201  HEM201      0.0000
     31  CAC       59.8150  -32.7150   15.5880 C.2   201  HEM201      0.0000
     32  CBC       60.5520  -31.5810   15.6100 C.2   201  HEM201      0.0000
     33  ND        60.9740  -37.0590   18.7390 N.2   201  HEM201      0.0000
     34  C1D       60.3580  -35.8370   18.8530 C.2   201  HEM201      0.0000
     35  C2D       59.9170  -35.7060   20.2330 C.2   201  HEM201      0.0000
     36  C3D       60.2830  -36.8600   20.8980 C.2   201  HEM201      0.0000
     37  C4D       60.9490  -37.7130   19.9230 C.2   201  HEM201      0.0000
     38  CMD       59.2020  -34.5280   20.8430 C.3   201  HEM201      0.0000
     39  CAD       60.0510  -37.1780   22.3770 C.3   201  HEM201      0.0000
     40  CBD       61.4050  -37.4320   23.0770 C.3   201  HEM201      0.0000
     41  CGD       61.5160  -37.1290   24.5630 C.2   201  HEM201      0.0000
     42  O1D       60.5270  -36.6590   25.1610 O.co2 201  HEM201      0.0000
     43  O2D       62.6290  -37.3680   25.0670 O.co2 201  HEM201      0.0000
@<TRIPOS>BOND
     1    24    23    1
     2    23    20    1
     3    30    27    1
     4    20    19    2
     5    20    21    1
     6    22    19    1
     7     4    21    2
     8     4    26    1
     9    19    18    1
    10    21    17    1
    11    27    26   ar
    12    27    28   ar
    13    26    25   ar
    14    18    17    2
    15    18     3    1
    16    17     1    1
    17    28    31    1
    18    28    29   ar
    19    31    32    2
    20    25    29   ar
    21    25     1    1
    22     3    10    2
    23    29     5    1
    24     1     6    1
    25     1    33    1
    26    10     6   ar
    27    10     9   ar
    28     5    34    2
    29     6     7   ar
    30    11     9    1
    31     9     8   ar
    32    33    34    1
    33    33    37    2
    34    34    35    1
    35     7     8   ar
    36     7     2    2
    37     8    12    1
    38    37     2    1
    39    37    36    1
    40    35    38    1
    41    35    36    2
    42    36    39    1
    43    12    13    1
    44    13    14    1
    45    39    40    1
    46    40    41    1
    47    15    14   ar
    48    14    16   ar
    49    41    43   ar
    50    41    42   ar
