@<TRIPOS>MOLECULE
1v79_FR7_A_1.pdb
 22 23 0 0 0
SMALL
GASTEIGER

@<TRIPOS>ATOM
      1  C1        62.0880   65.4480   46.3820 C.3   1001  FR71001     0.1246
      2  N2        61.0600   65.2680   45.3450 N.3   1001  FR71001    -0.2456
      3  C3        61.6880   65.5840   44.2340 C.3   1001  FR71001     0.2010
      4  N4        62.9900   65.8200   44.3710 N.2   1001  FR71001    -0.2506
      5  C5        63.2640   65.7220   45.7940 C.2   1001  FR71001     0.1279
      6  C8        64.5920   65.8730   46.4960 C.2   1001  FR71001     0.2988
      7  O9        64.4650   66.0780   47.6370 O.2   1001  FR71001    -0.2653
      8  N10       65.7620   65.8040   45.9000 N.am  1001  FR71001    -0.0826
      9  C13       59.6230   65.2920   45.6040 C.3   1001  FR71001     0.0902
     10  C14       59.1240   63.8220   45.9310 C.3   1001  FR71001     0.1666
     11  O15       59.3510   62.6680   45.0710 O.3   1001  FR71001    -0.2217
     12  C18       59.2300   66.3100   46.7330 C.3   1001  FR71001     0.0233
     13  C2        59.8110   67.7760   46.6780 C.3   1001  FR71001     0.0287
     14  C22       59.3510   68.6040   47.8340 C.ar  1001  FR71001    -0.0107
     15  C25       58.1360   69.2790   47.7600 C.ar  1001  FR71001    -0.0034
     16  C26       57.5320   69.8640   48.8940 C.ar  1001  FR71001     0.0006
     17  C27       58.1750   69.8190   50.1350 C.ar  1001  FR71001     0.0122
     18  C28       59.4470   69.2760   50.1570 C.ar  1001  FR71001     0.0679
     19  C29       60.0210   68.6790   49.0320 C.ar  1001  FR71001     0.0642
     20 CL1        60.3630   69.4420   51.6430 Cl    1001  FR71001    -0.0814
     21 CL2        61.6070   68.0660   49.1230 Cl    1001  FR71001    -0.0817
     22  C9        59.6760   63.2060   47.2370 C.3   1001  FR71001     0.0369
@<TRIPOS>BOND
     1     3     4    1
     2     3     2    1
     3     4     5    2
     4    11    10    1
     5     2     9    1
     6     2     1    1
     7     9    10    1
     8     9    12    1
     9     5     1    1
    10     5     6    1
    11     8     6   am
    12    10    22    1
    13     6     7    2
    14    13    12    1
    15    13    14    1
    16    15    14   ar
    17    15    16   ar
    18    14    19   ar
    19    16    17   ar
    20    19    21    1
    21    19    18   ar
    22    17    18   ar
    23    18    20    1
