@<TRIPOS>MOLECULE
1v7a_FRC_A_1.pdb
 25 27 0 0 0
SMALL
GASTEIGER

@<TRIPOS>ATOM
      1  C1        50.7510   54.0540   21.0480 C.3   1001  FRC1001     0.1246
      2  N2        50.8140   55.0020   22.1580 N.3   1001  FRC1001    -0.2455
      3  C3        50.6630   54.3300   23.3010 C.3   1001  FRC1001     0.2010
      4  N4        50.6320   53.0020   23.0840 N.2   1001  FRC1001    -0.2506
      5  C5        50.5470   52.8540   21.6130 C.2   1001  FRC1001     0.1279
      6  C8        50.2530   51.5860   20.8930 C.2   1001  FRC1001     0.2988
      7  O9        50.1320   51.5300   19.6800 O.2   1001  FRC1001    -0.2653
      8  N10       50.1500   50.4890   21.6260 N.am  1001  FRC1001    -0.0826
      9  C13       50.9040   56.4390   22.0460 C.3   1001  FRC1001     0.0936
     10  C14       52.3720   56.9050   21.8960 C.3   1001  FRC1001     0.1667
     11  O15       53.2270   56.6770   23.0760 O.3   1001  FRC1001    -0.2217
     12  C18       49.9540   56.9960   20.9920 C.3   1001  FRC1001     0.0659
     13  C2        48.5270   57.0650   21.5700 C.3   1001  FRC1001     0.2069
     14  C9        52.9090   56.4890   20.4960 C.3   1001  FRC1001     0.0369
     15  O1        47.6000   57.5200   20.6120 O.3   1001  FRC1001    -0.4754
     16  C11       46.8830   53.2500   15.8850 C.ar  1001  FRC1001     0.0000
     17  C17       46.5800   54.6160   15.9670 C.ar  1001  FRC1001     0.0000
     18  C12       46.9250   55.3240   17.1240 C.ar  1001  FRC1001     0.0002
     19  C4        47.4710   54.6410   18.2340 C.ar  1001  FRC1001     0.0030
     20  C15       47.7820   53.2780   18.1290 C.ar  1001  FRC1001     0.0001
     21  C6        47.4660   52.5760   16.9620 C.ar  1001  FRC1001     0.0000
     22  C7        46.5850   56.6800   17.2070 C.ar  1001  FRC1001     0.0031
     23  C16       46.8560   57.3520   18.4000 C.ar  1001  FRC1001     0.0369
     24  C19       47.4160   56.7040   19.5080 C.ar  1001  FRC1001     0.1386
     25  C10       47.7540   55.3330   19.4230 C.ar  1001  FRC1001     0.0369
@<TRIPOS>BOND
     1    16    17   ar
     2    16    21   ar
     3    17    18   ar
     4    21    20   ar
     5    18    22   ar
     6    18    19   ar
     7    22    23   ar
     8    20    19   ar
     9    19    25   ar
    10    23    24   ar
    11    25    24   ar
    12    24    15    1
    13     7     6    2
    14    14    10    1
    15    15    13    1
    16     6     5    1
    17     6     8   am
    18    12    13    1
    19    12     9    1
    20     1     5    1
    21     1     2    1
    22     5     4    2
    23    10     9    1
    24    10    11    1
    25     9     2    1
    26     2     3    1
    27     4     3    1
