@<TRIPOS>MOLECULE
1v7c_HEY_A_1.pdb
 27 27 0 0 0
SMALL
GASTEIGER

@<TRIPOS>ATOM
      1  N1        44.9380   36.9120   59.6500 N.ar  1400  HEY1400    -0.2452
      2  C2        44.9270   36.9890   58.2340 C.ar  1400  HEY1400     0.0981
      3  C2A       44.2730   35.8330   57.4960 C.3   1400  HEY1400     0.0555
      4  C3        45.5170   38.1200   57.5640 C.ar  1400  HEY1400     0.2103
      5  O3        45.5120   38.2040   56.2190 O.3   1400  HEY1400    -0.2853
      6  C4        46.1040   39.1430   58.3540 C.ar  1400  HEY1400     0.0591
      7  C4A       46.7560   40.3750   57.7060 C.2   1400  HEY1400     0.1021
      8  C5        46.0850   39.0150   59.8170 C.ar  1400  HEY1400     0.0316
      9  C6        45.5030   37.9040   60.4190 C.ar  1400  HEY1400     0.0968
     10  C5A       46.6700   40.0330   60.7980 C.3   1400  HEY1400     0.1819
     11  OP4       45.7830   41.1620   60.8080 O.3   1400  HEY1400    -0.2653
     12  P         46.3010   42.6300   61.0900 P.3   1400  HEY1400     0.5329
     13  OP1       47.1860   43.0440   59.9850 O.2   1400  HEY1400    -0.2224
     14  OP2       47.1400   42.5630   62.5020 O.3   1400  HEY1400    -0.1145
     15  OP3       45.1630   43.5180   61.3830 O.3   1400  HEY1400    -0.1145
     16  N4A       46.4740   41.0630   56.5190 N.2   1400  HEY1400    -0.2374
     17  CAI       47.0070   41.8870   55.7080 C.2   1400  HEY1400     0.1565
     18  CBC       46.7290   41.6060   54.2110 C.2   1400  HEY1400     0.4048
     19  O2B       47.2860   42.3410   53.3950 O.co2 1400  HEY1400    -0.2389
     20  O3B       46.0280   40.6620   53.8710 O.co2 1400  HEY1400    -0.2389
     21  CBI       47.7740   42.9290   56.2720 C.2   1400  HEY1400     0.0001
     22  CGI       48.5830   44.1250   55.7050 C.3   1400  HEY1400     0.0355
     23  CEI       47.6860   45.0890   54.9240 C.3   1400  HEY1400     0.0637
     24  PG        46.4940   46.0190   55.9280 P.3   1400  HEY1400     0.1175
     25  OG1       46.0770   47.2800   55.1940 O.2   1400  HEY1400    -0.4601
     26  OG2       45.3090   45.0970   56.1340 O.3   1400  HEY1400    -0.3571
     27  OG3       47.1580   46.4460   57.1860 O.3   1400  HEY1400    -0.3571
@<TRIPOS>BOND
     1    19    18   ar
     2    20    18   ar
     3    18    17    1
     4    23    22    1
     5    23    24    1
     6    25    24    2
     7    22    21    1
     8    17    21    2
     9    17    16    1
    10    24    26    1
    11    24    27    1
    12     5     4    1
    13    16     7    2
    14     3     2    1
    15     4     2   ar
    16     4     6   ar
    17     7     6    1
    18     2     1   ar
    19     6     8   ar
    20     1     9   ar
    21     8     9   ar
    22     8    10    1
    23    13    12    2
    24    10    11    1
    25    11    12    1
    26    12    15    1
    27    12    14    1
