@<TRIPOS>MOLECULE
1v7u_FPP_A_1.pdb
 24 23 0 0 0
SMALL
GASTEIGER

@<TRIPOS>ATOM
      1  C1        38.4170   44.2000   54.8940 C.3   501  FPP501      0.1750
      2  O1        37.2790   44.3170   55.7440 O.3   501  FPP501     -0.3089
      3  C2        39.2150   42.9370   55.0610 C.2   501  FPP501      0.0018
      4  C3        39.0880   41.8380   54.2870 C.2   501  FPP501     -0.0237
      5  C4        38.0860   41.7440   53.1020 C.3   501  FPP501      0.0308
      6  C5        39.9890   40.6610   54.5850 C.2   501  FPP501     -0.0045
      7  C6        39.7370   39.9630   55.9380 C.2   501  FPP501     -0.0010
      8  C7        40.7770   38.8770   56.3240 C.2   501  FPP501     -0.0085
      9  C8        40.5340   37.5410   56.4890 C.2   501  FPP501     -0.0436
     10  C10       39.1250   36.9290   56.3020 C.3   501  FPP501      0.0264
     11  C9        41.7150   36.6470   56.8720 C.3   501  FPP501      0.0267
     12  C11       42.0340   35.4850   55.9050 C.3   501  FPP501      0.0297
     13  C12       43.4730   35.3990   55.4190 C.2   501  FPP501     -0.0342
     14  C13       43.9270   35.4150   54.1360 C.2   501  FPP501     -0.0478
     15  C14       43.0570   35.5250   52.9120 C.3   501  FPP501      0.0260
     16  C15       45.3740   35.3270   53.7590 C.3   501  FPP501      0.0260
     17  PA        35.7730   43.8690   55.2570 P.3   501  FPP501      0.2233
     18  O1A       35.4850   44.6040   53.8900 O.2   501  FPP501     -0.5169
     19  O2A       35.8460   42.3410   55.3420 O.3   501  FPP501     -0.4370
     20  O3A       34.4730   44.1950   56.1010 O.3   501  FPP501     -0.2261
     21  PB        33.4870   45.4450   55.9850 P.3   501  FPP501      0.5373
     22  O1B       32.4570   45.5490   54.8620 O.2   501  FPP501     -0.2221
     23  O2B       34.2860   46.7400   56.0660 O.3   501  FPP501     -0.1143
     24  O3B       32.4730   45.4610   57.1720 O.3   501  FPP501     -0.1143
@<TRIPOS>BOND
     1    15    14    1
     2     5     4    1
     3    16    14    1
     4    18    17    2
     5    14    13    2
     6     4     6    1
     7     4     3    2
     8     6     7    2
     9    22    21    2
    10     1     3    1
    11     1     2    1
    12    17    19    1
    13    17     2    1
    14    17    20    1
    15    13    12    1
    16    12    11    1
    17     7     8    1
    18    21    23    1
    19    21    20    1
    20    21    24    1
    21    10     9    1
    22     8     9    2
    23     9    11    1
