@<TRIPOS>MOLECULE
1v7w_NAG_A_1.pdb
 15 15 0 0 0
SMALL
GASTEIGER

@<TRIPOS>ATOM
      1  C1        82.7110   53.2370   31.0400 C.3   1005  NAG1005     0.2917
      2  C2        81.9390   54.5080   30.5210 C.3   1005  NAG1005     0.1871
      3  C3        82.8970   55.3310   29.6210 C.3   1005  NAG1005     0.2095
      4  C4        84.0930   55.7790   30.5030 C.3   1005  NAG1005     0.2136
      5  C5        84.8370   54.5050   31.0480 C.3   1005  NAG1005     0.1835
      6  C6        85.9770   54.8530   31.9460 C.3   1005  NAG1005     0.2142
      7  C7        79.4970   54.3700   30.0260 C.2   1005  NAG1005     0.2421
      8  C8        78.5030   53.7650   29.1390 C.3   1005  NAG1005     0.0964
      9  N2        80.7840   54.0370   29.7850 N.am  1005  NAG1005    -0.1991
     10  O1        81.8310   52.4710   31.9870 O.3   1005  NAG1005    -0.1879
     11  O3        82.2400   56.4970   29.1420 O.3   1005  NAG1005    -0.2183
     12  O4        84.9500   56.5170   29.6230 O.3   1005  NAG1005    -0.2176
     13  O5        83.8640   53.6630   31.7660 O.3   1005  NAG1005    -0.3242
     14  O6        85.5370   55.4050   33.1720 O.3   1005  NAG1005    -0.2176
     15  O7        79.0690   55.3500   31.1870 O.2   1005  NAG1005    -0.2733
@<TRIPOS>BOND
     1     8     7    1
     2    11     3    1
     3     3     4    1
     4     3     2    1
     5    12     4    1
     6     9     7   am
     7     9     2    1
     8     7    15    2
     9     4     5    1
    10     2     1    1
    11     1    13    1
    12     1    10    1
    13     5    13    1
    14     5     6    1
    15     6    14    1
