@<TRIPOS>MOLECULE
1v7x_NAG_A_1.pdb
 15 15 0 0 0
SMALL
GASTEIGER

@<TRIPOS>ATOM
      1  C1        82.8360   53.3210   31.0420 C.3   1004  NAG1004     0.2917
      2  C2        82.0160   54.5680   30.5260 C.3   1004  NAG1004     0.1871
      3  C3        82.9040   55.4020   29.5550 C.3   1004  NAG1004     0.2095
      4  C4        84.1220   55.9100   30.3810 C.3   1004  NAG1004     0.2136
      5  C5        84.9360   54.6700   30.9210 C.3   1004  NAG1004     0.1835
      6  C6        86.1100   55.0340   31.7690 C.3   1004  NAG1004     0.2142
      7  C7        79.5440   54.4250   30.0890 C.2   1004  NAG1004     0.2421
      8  C8        78.5350   53.6960   29.3240 C.3   1004  NAG1004     0.0964
      9  N2        80.8290   54.0200   29.8980 N.am  1004  NAG1004    -0.1991
     10  O1        82.0290   52.5270   32.0370 O.3   1004  NAG1004    -0.1879
     11  O3        82.1970   56.5390   29.0780 O.3   1004  NAG1004    -0.2183
     12  O4        84.9320   56.6760   29.4720 O.3   1004  NAG1004    -0.2176
     13  O5        84.0280   53.7890   31.6820 O.3   1004  NAG1004    -0.3242
     14  O6        85.7670   55.4940   33.0590 O.3   1004  NAG1004    -0.2176
     15  O7        79.0820   55.6000   31.0540 O.2   1004  NAG1004    -0.2733
@<TRIPOS>BOND
     1    11     3    1
     2     8     7    1
     3    12     4    1
     4     3     4    1
     5     3     2    1
     6     9     7   am
     7     9     2    1
     8     7    15    2
     9     4     5    1
    10     2     1    1
    11     5    13    1
    12     5     6    1
    13     1    13    1
    14     1    10    1
    15     6    14    1
