@<TRIPOS>MOLECULE
1v83_UDP_A_1.pdb
 25 26 0 0 0
SMALL
GASTEIGER

@<TRIPOS>ATOM
      1  N1        26.9730   22.5460   31.8800 N.am  503  UDP503     -0.1766
      2  C2        27.9380   23.4120   32.4450 C.1   503  UDP503      0.2845
      3  N3        27.5380   24.7220   32.7270 N.2   503  UDP503     -0.2452
      4  C4        26.2650   25.3280   32.5200 C.1   503  UDP503      0.2182
      5  C5        25.1590   24.4050   31.8940 C.2   503  UDP503      0.1242
      6  C6        25.6380   22.9990   31.6070 C.2   503  UDP503      0.0929
      7  O2        29.1080   23.0240   32.6860 O.2   503  UDP503     -0.1918
      8  O4        26.1270   26.5100   32.8400 O.2   503  UDP503     -0.2085
      9  C1'       27.4010   21.1390   31.5790 C.3   503  UDP503      0.2401
     10  C2'       26.3580   20.0450   31.9580 C.3   503  UDP503      0.2319
     11  O2'       26.5420   19.5640   33.2900 O.3   503  UDP503     -0.2157
     12  C3'       26.5300   18.9990   30.8650 C.3   503  UDP503      0.2158
     13  C4'       26.9010   19.8730   29.6220 C.3   503  UDP503      0.1799
     14  O4'       27.6620   20.9880   30.1850 O.3   503  UDP503     -0.3320
     15  O3'       27.6020   18.1130   31.2610 O.3   503  UDP503     -0.2175
     16  C5'       25.7310   20.5280   28.8110 C.3   503  UDP503      0.1813
     17  O5'       24.5580   19.7940   29.0810 O.3   503  UDP503     -0.3111
     18  PA        23.1140   20.1890   29.4300 P.3   503  UDP503      0.2231
     19  O1A       22.5350   21.5190   29.0750 O.2   503  UDP503     -0.5169
     20  O2A       22.2480   18.9530   29.6520 O.3   503  UDP503     -0.4370
     21  O3A       23.0200   19.9260   27.8390 O.3   503  UDP503     -0.2261
     22  PB        21.7640   19.5270   26.9040 P.3   503  UDP503      0.5373
     23  O1B       22.3850   19.4100   25.4320 O.2   503  UDP503     -0.2221
     24  O2B       20.8250   20.6600   27.0350 O.3   503  UDP503     -0.1143
     25  O3B       21.2680   18.1500   27.2430 O.3   503  UDP503     -0.1143
@<TRIPOS>BOND
     1    23    22    2
     2    22    24    1
     3    22    25    1
     4    22    21    1
     5    21    18    1
     6    16    17    1
     7    16    13    1
     8    19    18    2
     9    17    18    1
    10    18    20    1
    11    13    14    1
    12    13    12    1
    13    14     9    1
    14    12    15    1
    15    12    10    1
    16     9     1    1
    17     9    10    1
    18     6     1    1
    19     6     5    2
    20     1     2   am
    21     5     4    1
    22    10    11    1
    23     2     7    2
    24     2     3    2
    25     4     3    2
    26     4     8    2
