@<TRIPOS>MOLECULE
1v84_NAG_B_1.pdb
 15 15 0 0 0
SMALL
GASTEIGER

@<TRIPOS>ATOM
      1  C1         1.1610   17.0770   45.8010 C.3   508  NAG508      0.2917
      2  C2         2.5250   17.1350   46.4880 C.3   508  NAG508      0.1871
      3  C3         3.2440   15.7940   46.2910 C.3   508  NAG508      0.2095
      4  C4         2.3660   14.6180   46.7410 C.3   508  NAG508      0.2136
      5  C5         0.9620   14.7110   46.1080 C.3   508  NAG508      0.1835
      6  C6         0.0110   13.6740   46.6720 C.3   508  NAG508      0.2142
      7  C7         3.5810   19.3070   46.5960 C.2   508  NAG508      0.2421
      8  C8         4.2840   20.4350   45.8540 C.3   508  NAG508      0.0964
      9  N2         3.3220   18.2000   45.9070 N.am  508  NAG508     -0.1991
     10  O1         0.4730   18.2620   46.0100 O.3   508  NAG508     -0.1879
     11  O3         4.4590   15.8000   47.0240 O.3   508  NAG508     -0.2183
     12  O4         2.9830   13.3820   46.3380 O.3   508  NAG508     -0.2176
     13  O5         0.3810   16.0100   46.3610 O.3   508  NAG508     -0.3242
     14  O6        -0.9760   13.3010   45.7220 O.3   508  NAG508     -0.2176
     15  O7         3.2780   19.4480   47.7820 O.2   508  NAG508     -0.2733
@<TRIPOS>BOND
     1    14     6    1
     2     1    10    1
     3     1    13    1
     4     1     2    1
     5     8     7    1
     6     9     2    1
     7     9     7   am
     8     5    13    1
     9     5     6    1
    10     5     4    1
    11     3     2    1
    12     3     4    1
    13     3    11    1
    14    12     4    1
    15     7    15    2
