@<TRIPOS>MOLECULE
1v84_GAL_A_1.pdb
 11 11 0 0 0
SMALL
GASTEIGER

@<TRIPOS>ATOM
      1  C1        21.5430   20.0760   17.8560 C.3   505  GAL505      0.1777
      2  C2        22.5390   20.1390   19.0200 C.3   505  GAL505      0.2141
      3  C3        23.7620   19.2520   18.7430 C.3   505  GAL505      0.2173
      4  C4        23.3300   17.8420   18.3350 C.3   505  GAL505      0.2142
      5  C5        22.3800   17.9570   17.1500 C.3   505  GAL505      0.1810
      6  C6        21.9090   16.6150   16.6510 C.3   505  GAL505      0.2141
      7  O2        22.9660   21.4860   19.2000 O.3   505  GAL505     -0.2176
      8  O3        24.5540   19.1780   19.9120 O.3   505  GAL505     -0.2175
      9  O4        22.6620   17.1940   19.4180 O.3   505  GAL505     -0.2176
     10  O5        21.2190   18.7140   17.5470 O.3   505  GAL505     -0.3481
     11  O6        22.9710   15.9000   16.0470 O.3   505  GAL505     -0.2176
@<TRIPOS>BOND
     1    11     6    1
     2     6     5    1
     3     5    10    1
     4     5     4    1
     5    10     1    1
     6     1     2    1
     7     4     3    1
     8     4     9    1
     9     3     2    1
    10     3     8    1
    11     2     7    1
