@<TRIPOS>MOLECULE
1v84_UDP_A_1.pdb
 25 26 0 0 0
SMALL
GASTEIGER

@<TRIPOS>ATOM
      1  N1        26.7340   22.5960   31.8470 N.am  503  UDP503     -0.1766
      2  C2        27.6690   23.4770   32.4250 C.1   503  UDP503      0.2845
      3  N3        27.2360   24.7740   32.7100 N.2   503  UDP503     -0.2452
      4  C4        25.9580   25.3530   32.4970 C.1   503  UDP503      0.2182
      5  C5        24.8780   24.4080   31.8490 C.2   503  UDP503      0.1242
      6  C6        25.3930   23.0110   31.5580 C.2   503  UDP503      0.0929
      7  O2        28.8430   23.1140   32.6770 O.2   503  UDP503     -0.1918
      8  O4        25.7960   26.5300   32.8280 O.2   503  UDP503     -0.2085
      9  C1'       27.2120   21.2130   31.5560 C.3   503  UDP503      0.2401
     10  C2'       26.2410   20.0720   31.9730 C.3   503  UDP503      0.2319
     11  O2'       26.5040   19.6100   33.2970 O.3   503  UDP503     -0.2157
     12  C3'       26.4280   19.0270   30.8660 C.3   503  UDP503      0.2158
     13  C4'       26.7890   19.8920   29.6280 C.3   503  UDP503      0.1799
     14  O4'       27.4750   21.0520   30.1590 O.3   503  UDP503     -0.3320
     15  O3'       27.5120   18.1630   31.2640 O.3   503  UDP503     -0.2175
     16  C5'       25.6250   20.4630   28.7510 C.3   503  UDP503      0.1813
     17  O5'       24.4330   19.7910   29.0840 O.3   503  UDP503     -0.3111
     18  PA        23.0010   20.2690   29.3500 P.3   503  UDP503      0.2231
     19  O1A       22.4790   21.5720   28.8330 O.2   503  UDP503     -0.5169
     20  O2A       22.0910   19.1010   29.6820 O.3   503  UDP503     -0.4370
     21  O3A       22.9270   19.8420   27.8030 O.3   503  UDP503     -0.2261
     22  PB        21.6920   19.4910   26.8260 P.3   503  UDP503      0.5373
     23  O1B       22.3960   19.1180   25.4510 O.2   503  UDP503     -0.2221
     24  O2B       20.9020   20.7310   26.7220 O.3   503  UDP503     -0.1143
     25  O3B       21.0010   18.2380   27.2840 O.3   503  UDP503     -0.1143
@<TRIPOS>BOND
     1    23    22    2
     2    24    22    1
     3    22    25    1
     4    22    21    1
     5    21    18    1
     6    16    17    1
     7    16    13    1
     8    19    18    2
     9    17    18    1
    10    18    20    1
    11    13    14    1
    12    13    12    1
    13    14     9    1
    14    12    15    1
    15    12    10    1
    16     9     1    1
    17     9    10    1
    18     6     1    1
    19     6     5    2
    20     1     2   am
    21     5     4    1
    22    10    11    1
    23     2     7    2
    24     2     3    2
    25     4     3    2
    26     4     8    2
