@<TRIPOS>MOLECULE
1v8b_NAD_A_1.pdb
 44 48 0 0 0
SMALL
GASTEIGER

@<TRIPOS>ATOM
      1  PA        38.8000   33.5720   49.3560 P.3   501  NAD501      0.2189
      2  O1A       40.1300   32.8880   49.2960 O.3   501  NAD501     -0.4371
      3  O2A       37.8490   33.0180   48.2930 O.2   501  NAD501     -0.5170
      4  O5B       38.8450   35.0960   49.2520 O.3   501  NAD501     -0.3112
      5  C5B       39.9970   35.9880   49.5470 C.3   501  NAD501      0.1813
      6  C4B       40.0540   37.0420   48.5310 C.3   501  NAD501      0.1821
      7  O4B       40.7100   38.2380   49.0410 O.3   501  NAD501     -0.3135
      8  C3B       40.8730   36.6540   47.2290 C.3   501  NAD501      0.2184
      9  O3B       40.0510   36.8080   46.0260 O.3   501  NAD501     -0.2174
     10  C2B       42.1080   37.4770   47.1950 C.3   501  NAD501      0.2570
     11  O2B       42.5970   37.7920   45.9340 O.3   501  NAD501     -0.2130
     12  C1B       41.6540   38.6480   48.1180 C.3   501  NAD501      0.3186
     13  N9A       42.7050   39.2510   48.8720 N.pl3 501  NAD501     -0.1439
     14  C8A       43.7380   38.7190   49.6390 C.3   501  NAD501      0.3377
     15  N7A       44.5230   39.6060   50.2090 N.2   501  NAD501     -0.2095
     16  C5A       44.0240   40.8050   49.8250 C.2   501  NAD501      0.2526
     17  C6A       44.4780   42.2300   50.1340 C.2   501  NAD501      0.4393
     18  N6A       45.5310   42.5240   50.8980 N.pl3 501  NAD501      0.2180
     19  N1A       43.6560   43.2400   49.5360 N.2   501  NAD501      0.0021
     20  C2A       42.5750   43.0490   48.7660 C.3   501  NAD501      0.5254
     21  N3A       42.1380   41.7150   48.4430 N.2   501  NAD501     -0.0055
     22  C4A       42.9010   40.6140   49.0000 C.2   501  NAD501      0.3518
     23  O3        38.1630   33.1460   50.7400 O.3   501  NAD501     -0.2703
     24  PN        36.8120   33.5200   51.5460 P.3   501  NAD501      0.2189
     25  O1N       35.9380   34.4900   50.9010 O.2   501  NAD501     -0.5170
     26  O2N       36.2910   32.1540   51.6880 O.3   501  NAD501     -0.4371
     27  O5D       37.1520   33.9090   52.9950 O.3   501  NAD501     -0.3112
     28  C5D       37.8060   35.1070   53.3850 C.3   501  NAD501      0.1813
     29  C4D       37.8750   35.1850   54.8520 C.3   501  NAD501      0.1799
     30  O4D       36.4440   35.0340   55.3830 O.3   501  NAD501     -0.3327
     31  C3D       38.6050   33.9910   55.5880 C.3   501  NAD501      0.2158
     32  O3D       39.2800   34.5370   56.6340 O.3   501  NAD501     -0.2175
     33  C2D       37.4440   32.9930   55.9180 C.3   501  NAD501      0.2309
     34  O2D       37.7680   32.0350   56.8630 O.3   501  NAD501     -0.2158
     35  C1D       36.3880   34.0060   56.3210 C.3   501  NAD501      0.2263
     36  N1N       34.9070   33.6620   56.4370 N.pl3 501  NAD501     -0.2787
     37  C2N       34.1050   34.4140   57.3770 C.3   501  NAD501      0.1244
     38  C3N       32.7650   34.0270   57.4130 C.2   501  NAD501      0.0544
     39  C7N       31.9040   34.8420   58.5280 C.2   501  NAD501      0.2818
     40  O7N       30.7210   34.4750   58.7160 O.2   501  NAD501     -0.2670
     41  N7N       32.5000   35.8970   59.2430 N.am  501  NAD501     -0.0839
     42  C4N       32.2040   32.9930   56.5810 C.2   501  NAD501      0.0033
     43  C5N       33.1110   32.3130   55.6520 C.2   501  NAD501      0.0157
     44  C6N       34.4670   32.6330   55.5820 C.2   501  NAD501      0.0633
@<TRIPOS>BOND
     1    11    10    1
     2     9     8    1
     3    10     8    1
     4    10    12    1
     5     8     6    1
     6    12    13    1
     7    12     7    1
     8     3     1    2
     9    21    20    1
    10    21    22    2
    11     6     7    1
    12     6     5    1
    13    20    19    1
    14    13    22    1
    15    13    14    1
    16    22    16    1
    17     4     1    1
    18     4     5    1
    19     2     1    1
    20     1    23    1
    21    19    17    2
    22    14    15    1
    23    16    17    1
    24    16    15    2
    25    17    18    1
    26    23    24    1
    27    25    24    2
    28    24    26    1
    29    24    27    1
    30    27    28    1
    31    28    29    1
    32    29    30    1
    33    29    31    1
    34    30    35    1
    35    44    43    2
    36    44    36    1
    37    31    33    1
    38    31    32    1
    39    43    42    1
    40    33    35    1
    41    33    34    1
    42    35    36    1
    43    36    37    1
    44    42    38    2
    45    37    38    1
    46    38    39    1
    47    39    40    2
    48    39    41   am
