@<TRIPOS>MOLECULE
1v8b_ADN_A_1.pdb
 19 21 0 0 0
SMALL
GASTEIGER

@<TRIPOS>ATOM
      1  O5'       34.6850   31.6720   61.6830 O.3   502  ADN502     -0.2176
      2  C5'       34.2890   31.6200   60.3090 C.3   502  ADN502      0.2143
      3  C4'       33.1410   30.6100   60.2890 C.3   502  ADN502      0.1851
      4  O4'       31.9890   31.1640   60.9950 O.3   502  ADN502     -0.3134
      5  C3'       32.5570   30.3950   58.8720 C.3   502  ADN502      0.2186
      6  O3'       33.1830   29.2690   58.2530 O.3   502  ADN502     -0.2174
      7  C2'       31.0470   30.1610   59.0530 C.3   502  ADN502      0.2570
      8  O2'       30.5880   28.8920   58.5720 O.3   502  ADN502     -0.2130
      9  C1'       30.8960   30.3520   60.5700 C.3   502  ADN502      0.3186
     10  N9        29.5660   30.8150   61.0030 N.pl3 502  ADN502     -0.1439
     11  C8        28.8180   31.8820   60.4660 C.3   502  ADN502      0.3377
     12  N7        27.6480   32.0670   61.0320 N.2   502  ADN502     -0.2095
     13  C5        27.5960   31.0760   62.0090 C.2   502  ADN502      0.2526
     14  C6        26.6160   30.6790   63.0010 C.2   502  ADN502      0.4393
     15  N6        25.4510   31.2840   63.1440 N.pl3 502  ADN502      0.2180
     16  N1        26.9240   29.6290   63.8290 N.2   502  ADN502      0.0021
     17  C2        28.1020   28.9750   63.7300 C.3   502  ADN502      0.5254
     18  N3        29.0700   29.2600   62.8380 N.2   502  ADN502     -0.0055
     19  C4        28.7680   30.3030   62.0160 C.2   502  ADN502      0.3518
@<TRIPOS>BOND
     1     6     5    1
     2     8     7    1
     3     5     7    1
     4     5     3    1
     5     7     9    1
     6     3     2    1
     7     3     4    1
     8     2     1    1
     9    11    10    1
    10    11    12    1
    11     9     4    1
    12     9    10    1
    13    10    19    1
    14    12    13    2
    15    13    19    1
    16    13    14    1
    17    19    18    2
    18    18    17    1
    19    14    15    1
    20    14    16    2
    21    17    16    1
