@<TRIPOS>MOLECULE
1v8j_ADP_A_1.pdb
 27 29 0 0 0
SMALL
GASTEIGER

@<TRIPOS>ATOM
      1  PB       -40.9150   79.9040  -21.3550 P.3   500  ADP500      0.5373
      2  O1B      -40.4760   79.9750  -22.7400 O.2   500  ADP500     -0.2221
      3  O2B      -42.2250   80.5300  -20.9750 O.3   500  ADP500     -0.1143
      4  O3B      -40.7350   78.4210  -20.8960 O.3   500  ADP500     -0.1143
      5  PA       -38.8510   80.1700  -19.4030 P.3   500  ADP500      0.2231
      6  O1A      -39.8010   80.0260  -18.1810 O.3   500  ADP500     -0.4370
      7  O2A      -37.6360   80.7800  -19.5930 O.2   500  ADP500     -0.5169
      8  O3A      -39.6960   80.4950  -20.8150 O.3   500  ADP500     -0.2261
      9  O5'      -39.1440   81.8260  -18.8890 O.3   500  ADP500     -0.3111
     10  C5'      -38.5400   83.0850  -19.5280 C.3   500  ADP500      0.1813
     11  C4'      -37.3770   83.7110  -18.7430 C.3   500  ADP500      0.1821
     12  O4'      -37.8890   84.6200  -17.7580 O.3   500  ADP500     -0.3135
     13  C3'      -36.3950   82.9000  -17.8460 C.3   500  ADP500      0.2184
     14  O3'      -35.0950   83.5260  -17.9480 O.3   500  ADP500     -0.2174
     15  C2'      -36.8660   83.0650  -16.3290 C.3   500  ADP500      0.2570
     16  O2'      -35.7790   83.0120  -15.3690 O.3   500  ADP500     -0.2130
     17  C1'      -37.5750   84.4530  -16.3320 C.3   500  ADP500      0.3186
     18  N9       -38.8650   84.4560  -15.5450 N.pl3 500  ADP500     -0.1439
     19  C8       -40.0730   84.1040  -15.9790 C.3   500  ADP500      0.3377
     20  N7       -40.9800   84.2320  -15.0910 N.2   500  ADP500     -0.2095
     21  C5       -40.3140   84.7800  -14.0010 C.2   500  ADP500      0.2526
     22  C6       -40.7480   85.2090  -12.6410 C.2   500  ADP500      0.4393
     23  N6       -42.0560   85.2380  -12.2490 N.pl3 500  ADP500      0.2180
     24  N1       -39.7850   85.6940  -11.7950 N.2   500  ADP500      0.0021
     25  C2       -38.5060   85.7010  -12.1780 C.3   500  ADP500      0.5254
     26  N3       -38.0270   85.3030  -13.3830 N.2   500  ADP500     -0.0055
     27  C4       -38.9900   84.8720  -14.2490 C.2   500  ADP500      0.3518
@<TRIPOS>BOND
     1     2     1    2
     2     1     3    1
     3     1     4    1
     4     1     8    1
     5     8     5    1
     6     7     5    2
     7    10     9    1
     8    10    11    1
     9     5     9    1
    10     5     6    1
    11    11    13    1
    12    11    12    1
    13    14    13    1
    14    13    15    1
    15    12    17    1
    16    17    15    1
    17    17    18    1
    18    15    16    1
    19    19    18    1
    20    19    20    1
    21    18    27    1
    22    20    21    2
    23    27    21    1
    24    27    26    2
    25    21    22    1
    26    26    25    1
    27    22    23    1
    28    22    24    2
    29    25    24    1
