@<TRIPOS>MOLECULE
1v8k_ANP_A_1.pdb
 31 33 0 0 0
SMALL
GASTEIGER

@<TRIPOS>ATOM
      1  PG       -39.6830   78.4190  -24.4280 P.3   500  ANP500      0.4884
      2  O1G      -38.9000   79.1230  -25.5000 O.2   500  ANP500     -0.2331
      3  O2G      -39.0290   77.1760  -23.8670 O.3   500  ANP500     -0.1240
      4  O3G      -41.1730   78.0630  -24.9400 O.3   500  ANP500     -0.1240
      5  PB       -40.8260   79.2680  -21.8880 P.3   500  ANP500      0.4669
      6  O1B      -40.3560   78.1480  -21.0600 O.3   500  ANP500     -0.1253
      7  O2B      -41.6340   80.4100  -21.4740 O.2   500  ANP500     -0.2351
      8  N3B      -39.9150   79.4780  -23.2040 N.3   500  ANP500     -0.0163
      9  PA       -38.9550   79.6830  -19.7080 P.3   500  ANP500      0.2220
     10  O1A      -37.5070   79.3800  -19.8260 O.2   500  ANP500     -0.5170
     11  O2A      -39.6020   79.9620  -18.4120 O.3   500  ANP500     -0.4370
     12  O3A      -39.7240   80.1330  -21.0340 O.3   500  ANP500     -0.2360
     13  O5'      -38.3090   81.1420  -19.4030 O.3   500  ANP500     -0.3111
     14  C5'      -38.4670   82.3800  -20.1110 C.3   500  ANP500      0.1813
     15  C4'      -37.2480   83.2290  -19.5940 C.3   500  ANP500      0.1821
     16  O4'      -37.7000   84.3380  -18.7180 O.3   500  ANP500     -0.3135
     17  C3'      -36.2040   82.5600  -18.6730 C.3   500  ANP500      0.2184
     18  O3'      -34.9280   83.1550  -18.8590 O.3   500  ANP500     -0.2174
     19  C2'      -36.7980   82.7460  -17.2720 C.3   500  ANP500      0.2570
     20  O2'      -35.7720   82.6700  -16.2520 O.3   500  ANP500     -0.2130
     21  C1'      -37.4510   84.1120  -17.3460 C.3   500  ANP500      0.3186
     22  N9       -38.7380   84.1820  -16.5760 N.pl3 500  ANP500     -0.1439
     23  C8       -39.9320   83.6150  -16.8890 C.3   500  ANP500      0.3377
     24  N7       -40.8740   83.8770  -16.0030 N.2   500  ANP500     -0.2095
     25  C5       -40.3070   84.6510  -15.0520 C.2   500  ANP500      0.2526
     26  C6       -40.8550   85.2300  -13.8690 C.2   500  ANP500      0.4393
     27  N6       -42.0440   85.1380  -13.4450 N.pl3 500  ANP500      0.2180
     28  N1       -39.9170   85.9650  -13.1570 N.2   500  ANP500      0.0021
     29  C2       -38.5860   86.1240  -13.5490 C.3   500  ANP500      0.5254
     30  N3       -38.0860   85.5880  -14.6470 N.2   500  ANP500     -0.0055
     31  C4       -38.9800   84.8570  -15.3760 C.2   500  ANP500      0.3518
@<TRIPOS>BOND
     1     2     1    2
     2     4     1    1
     3     1     3    1
     4     1     8    1
     5     8     5    1
     6     5     7    2
     7     5     6    1
     8     5    12    1
     9    12     9    1
    10    14    15    1
    11    14    13    1
    12    10     9    2
    13     9    13    1
    14     9    11    1
    15    15    16    1
    16    15    17    1
    17    18    17    1
    18    16    21    1
    19    17    19    1
    20    21    19    1
    21    21    22    1
    22    19    20    1
    23    23    22    1
    24    23    24    1
    25    22    31    1
    26    24    25    2
    27    31    25    1
    28    31    30    2
    29    25    26    1
    30    30    29    1
    31    26    27    1
    32    26    28    2
    33    29    28    1
