@<TRIPOS>MOLECULE
1v8l_APR_A_1.pdb
 36 39 0 0 0
SMALL
GASTEIGER

@<TRIPOS>ATOM
      1  N1         1.9180    6.2590   49.5180 N.2   619  APR619      0.0021
      2  C2         2.3750    5.6040   48.3460 C.3   619  APR619      0.5254
      3  N3         3.0810    6.1900   47.2850 N.2   619  APR619     -0.0055
      4  C4         3.3020    7.5790   47.4550 C.2   619  APR619      0.3518
      5  C5         2.9330    8.4190   48.5420 C.2   619  APR619      0.2526
      6  C6         2.1750    7.7080   49.6480 C.2   619  APR619      0.4393
      7  N6         1.7560    8.4030   50.7350 N.pl3 619  APR619      0.2180
      8  N7         3.3790    9.7940   48.3320 N.2   619  APR619     -0.2095
      9  C8         4.0120    9.7390   47.1330 C.3   619  APR619      0.3377
     10  N9         3.9930    8.4060   46.6000 N.pl3 619  APR619     -0.1439
     11  C1'        4.5840    7.7620   45.3350 C.3   619  APR619      0.3186
     12  C2'        4.2580    8.6290   44.0550 C.3   619  APR619      0.2570
     13  O2'        3.5130    7.8380   43.2000 O.3   619  APR619     -0.2130
     14  C3'        5.4900    8.8650   43.3670 C.3   619  APR619      0.2184
     15  O3'        5.3150    8.1930   42.0050 O.3   619  APR619     -0.2174
     16  O4'        5.9300    7.6120   45.4910 O.3   619  APR619     -0.3135
     17  C4'        6.5820    8.2700   44.2550 C.3   619  APR619      0.1821
     18  C5'        7.3680    9.4480   44.5230 C.3   619  APR619      0.1813
     19  O5'        8.1920    9.6500   45.7670 O.3   619  APR619     -0.3112
     20  PA         8.9230   11.0740   45.5660 P.3   619  APR619      0.2189
     21  O1A        8.3140   11.6580   44.5460 O.2   619  APR619     -0.5170
     22  O2A       10.2130   11.0080   45.2560 O.3   619  APR619     -0.4371
     23  O3A        8.3220   12.1340   46.4430 O.3   619  APR619     -0.2703
     24  PB         7.7650   13.0430   47.4630 P.3   619  APR619      0.2189
     25  O1B        6.4670   12.5120   47.7910 O.3   619  APR619     -0.4371
     26  O2B        7.6570   14.2250   46.6900 O.2   619  APR619     -0.5170
     27  O5D        8.8050   13.8060   48.6240 O.3   619  APR619     -0.3112
     28  C5D        9.6330   13.1260   49.5870 C.3   619  APR619      0.1813
     29  O4D        8.8940   15.3820   50.8300 O.3   619  APR619     -0.3237
     30  O1D        7.8910   15.8570   52.9640 O.3   619  APR619     -0.1869
     31  C1D        7.6910   15.2550   51.6410 C.3   619  APR619      0.3023
     32  O2D        6.7370   13.5170   52.9060 O.3   619  APR619     -0.2148
     33  C2D        7.4240   13.7420   51.7470 C.3   619  APR619      0.2433
     34  O3D        9.4510   13.0810   52.9910 O.3   619  APR619     -0.2175
     35  C3D        8.8490   13.0720   51.7330 C.3   619  APR619      0.2168
     36  C4D        9.6800   13.9240   50.8910 C.3   619  APR619      0.1807
@<TRIPOS>BOND
     1    15    14    1
     2    13    12    1
     3    14    12    1
     4    14    17    1
     5    12    11    1
     6    17    18    1
     7    17    16    1
     8    18    19    1
     9    21    20    2
    10    22    20    1
    11    11    16    1
    12    11    10    1
    13    20    19    1
    14    20    23    1
    15    23    24    1
    16    10     9    1
    17    10     4    1
    18    26    24    2
    19     9     8    1
    20     3     4    2
    21     3     2    1
    22     4     5    1
    23    24    25    1
    24    24    27    1
    25     8     5    2
    26     2     1    1
    27     5     6    1
    28    27    28    1
    29     1     6    2
    30    28    36    1
    31     6     7    1
    32    29    36    1
    33    29    31    1
    34    36    35    1
    35    31    33    1
    36    31    30    1
    37    35    33    1
    38    35    34    1
    39    33    32    1
