@<TRIPOS>MOLECULE
1v8m_APR_A_1.pdb
 36 39 0 0 0
SMALL
GASTEIGER

@<TRIPOS>ATOM
      1  N1        -5.4660    5.3340   29.1110 N.2   619  APR619      0.0021
      2  C2        -4.9710    5.3280   27.7800 C.3   619  APR619      0.5254
      3  N3        -5.2680    6.2210   26.8150 N.2   619  APR619     -0.0055
      4  C4        -6.1770    7.2530   27.2370 C.2   619  APR619      0.3518
      5  C5        -6.7640    7.4090   28.5210 C.2   619  APR619      0.2526
      6  C6        -6.3730    6.3690   29.5210 C.2   619  APR619      0.4393
      7  N6        -6.8180    6.3410   30.7870 N.pl3 619  APR619      0.2180
      8  N7        -7.5870    8.5260   28.5400 N.2   619  APR619     -0.2095
      9  C8        -7.5000    9.0320   27.2990 C.3   619  APR619      0.3377
     10  N9        -6.6690    8.3060   26.4800 N.pl3 619  APR619     -0.1439
     11  C1'       -6.2410    8.4940   24.9190 C.3   619  APR619      0.3186
     12  C2'       -7.4930    8.3980   24.0110 C.3   619  APR619      0.2570
     13  O2'       -7.3290    7.3180   23.1120 O.3   619  APR619     -0.2130
     14  C3'       -7.6160    9.7720   23.2500 C.3   619  APR619      0.2184
     15  O3'       -7.5920    9.6030   21.8340 O.3   619  APR619     -0.2174
     16  O4'       -5.7340    9.7650   24.6910 O.3   619  APR619     -0.3135
     17  C4'       -6.4960   10.6090   23.6960 C.3   619  APR619      0.1821
     18  C5'       -7.0380   11.8220   24.3430 C.3   619  APR619      0.1813
     19  O5'       -5.9770   12.4830   25.0370 O.3   619  APR619     -0.3112
     20  PA        -6.1920   13.8060   25.8250 P.3   619  APR619      0.2189
     21  O1A       -5.7660   14.8390   25.0290 O.2   619  APR619     -0.5170
     22  O2A       -5.4360   13.7170   26.9640 O.3   619  APR619     -0.4371
     23  O3A       -7.8040   14.0880   26.3030 O.3   619  APR619     -0.2703
     24  PB        -8.8580   13.2880   27.2200 P.3   619  APR619      0.2189
     25  O1B       -8.1720   12.2170   27.9800 O.3   619  APR619     -0.4371
     26  O2B       -9.9100   12.6910   26.3660 O.2   619  APR619     -0.5170
     27  O5D       -9.4860   14.3830   28.3410 O.3   619  APR619     -0.3112
     28  C5D       -8.3970   15.0370   29.1550 C.3   619  APR619      0.1813
     29  O4D      -10.2990   15.5580   30.8430 O.3   619  APR619     -0.3237
     30  O1D      -11.0080   13.5290   31.7090 O.3   619  APR619     -0.1869
     31  C1D      -10.4380   14.7660   32.0380 C.3   619  APR619      0.3023
     32  O2D       -8.9120   15.3960   33.8360 O.3   619  APR619     -0.2148
     33  C2D       -9.0440   14.5740   32.6590 C.3   619  APR619      0.2433
     34  O3D       -6.9330   15.8340   32.1530 O.3   619  APR619     -0.2175
     35  C3D       -8.0140   14.9570   31.5790 C.3   619  APR619      0.2168
     36  C4D       -8.7520   15.6920   30.5260 C.3   619  APR619      0.1807
@<TRIPOS>BOND
     1    15    14    1
     2    13    12    1
     3    14    17    1
     4    14    12    1
     5    17    18    1
     6    17    16    1
     7    12    11    1
     8    18    19    1
     9    16    11    1
    10    11    10    1
    11    21    20    2
    12    19    20    1
    13    20    23    1
    14    20    22    1
    15    23    24    1
    16    26    24    2
    17    10     4    1
    18    10     9    1
    19     3     4    2
    20     3     2    1
    21    24    25    1
    22    24    27    1
    23     4     5    1
    24     9     8    1
    25     2     1    1
    26    27    28    1
    27     5     8    2
    28     5     6    1
    29     1     6    2
    30    28    36    1
    31     6     7    1
    32    36    29    1
    33    36    35    1
    34    29    31    1
    35    35    34    1
    36    35    33    1
    37    30    31    1
    38    31    33    1
    39    33    32    1
