@<TRIPOS>MOLECULE
1v8r_APR_A_1.pdb
 36 39 0 0 0
SMALL
GASTEIGER

@<TRIPOS>ATOM
      1  N1         1.7760    5.7520   48.8740 N.2   619  APR619      0.0021
      2  C2         2.3100    5.0340   47.7700 C.3   619  APR619      0.5254
      3  N3         3.0080    5.5600   46.7460 N.2   619  APR619     -0.0055
      4  C4         3.1950    6.9840   46.8380 C.2   619  APR619      0.3518
      5  C5         2.7330    7.8500   47.8650 C.2   619  APR619      0.2526
      6  C6         1.9690    7.1750   48.9550 C.2   619  APR619      0.4393
      7  N6         1.4510    7.8160   50.0120 N.pl3 619  APR619      0.2180
      8  N7         3.1140    9.1610   47.5970 N.2   619  APR619     -0.2095
      9  C8         3.7900    9.0850   46.4380 C.3   619  APR619      0.3377
     10  N9         3.8650    7.8020   45.9460 N.pl3 619  APR619     -0.1439
     11  C1'        4.5550    7.1870   44.6110 C.3   619  APR619      0.3186
     12  C2'        4.0170    7.8980   43.3440 C.3   619  APR619      0.2570
     13  O2'        3.3750    6.9480   42.5130 O.3   619  APR619     -0.2130
     14  C3'        5.2590    8.5540   42.6290 C.3   619  APR619      0.2184
     15  O3'        5.4250    8.0740   41.2990 O.3   619  APR619     -0.2174
     16  O4'        5.9180    7.4270   44.6060 O.3   619  APR619     -0.3135
     17  C4'        6.4370    8.2410   43.4490 C.3   619  APR619      0.1821
     18  C5'        7.0340    9.5100   43.9160 C.3   619  APR619      0.1813
     19  O5'        8.3210    9.2340   44.4760 O.3   619  APR619     -0.3112
     20  PA         9.2370   10.3580   45.0460 P.3   619  APR619      0.2189
     21  O1A       10.1850   10.6400   44.0850 O.2   619  APR619     -0.5170
     22  O2A        9.8270    9.8660   46.1830 O.3   619  APR619     -0.4371
     23  O3A        8.4030   11.7920   45.4590 O.3   619  APR619     -0.2703
     24  PB         7.2160   12.1430   46.4960 P.3   619  APR619      0.2189
     25  O1B        7.1710   11.1180   47.5710 O.3   619  APR619     -0.4371
     26  O2B        5.9150   12.1720   45.7840 O.2   619  APR619     -0.5170
     27  O5D        7.5890   13.6320   47.2300 O.3   619  APR619     -0.3112
     28  C5D        9.0070   13.6540   47.7250 C.3   619  APR619      0.1813
     29  O4D        8.0860   14.6720   50.0190 O.3   619  APR619     -0.3237
     30  O1D        6.7270   13.6220   51.6220 O.3   619  APR619     -0.1869
     31  C1D        8.0360   13.8160   51.1830 C.3   619  APR619      0.3023
     32  O2D        9.0680   11.6970   51.8660 O.3   619  APR619     -0.2148
     33  C2D        8.7150   12.5160   50.7470 C.3   619  APR619      0.2433
     34  O3D       11.0360   13.4550   50.8460 O.3   619  APR619     -0.2175
     35  C3D        9.9150   13.0160   49.9280 C.3   619  APR619      0.2168
     36  C4D        9.3570   14.1620   49.1690 C.3   619  APR619      0.1807
@<TRIPOS>BOND
     1    15    14    1
     2    13    12    1
     3    14    12    1
     4    14    17    1
     5    12    11    1
     6    17    18    1
     7    17    16    1
     8    18    19    1
     9    21    20    2
    10    19    20    1
    11    16    11    1
    12    11    10    1
    13    20    23    1
    14    20    22    1
    15    23    24    1
    16    26    24    2
    17    10     9    1
    18    10     4    1
    19     9     8    1
    20    24    27    1
    21    24    25    1
    22     3     4    2
    23     3     2    1
    24     4     5    1
    25    27    28    1
    26     8     5    2
    27    28    36    1
    28     2     1    1
    29     5     6    1
    30     1     6    2
    31     6     7    1
    32    36    35    1
    33    36    29    1
    34    35    33    1
    35    35    34    1
    36    29    31    1
    37    33    31    1
    38    33    32    1
    39    31    30    1
