@<TRIPOS>MOLECULE
1v8s_AMP_A_1.pdb
 23 25 0 0 0
SMALL
GASTEIGER

@<TRIPOS>ATOM
      1  P          7.3740   11.3210   45.6410 P.3   619  AMP619      0.5327
      2  O1P        8.2280   11.1670   46.9140 O.3   619  AMP619     -0.1145
      3  O2P        7.7720   12.5500   44.9230 O.2   619  AMP619     -0.2224
      4  O3P        5.8820   11.3630   46.0150 O.3   619  AMP619     -0.1145
      5  O5'        7.5920   10.0290   44.6950 O.3   619  AMP619     -0.2675
      6  C5'        7.2860    8.7290   45.1650 C.3   619  AMP619      0.1860
      7  C4'        6.5130    7.8840   44.1320 C.3   619  AMP619      0.1823
      8  O4'        5.6970    6.9620   44.8560 O.3   619  AMP619     -0.3135
      9  C3'        5.5910    8.7260   43.2490 C.3   619  AMP619      0.2184
     10  O3'        5.9880    8.6890   41.9060 O.3   619  AMP619     -0.2174
     11  C2'        4.1840    8.1820   43.4750 C.3   619  AMP619      0.2570
     12  O2'        3.5940    7.6390   42.2990 O.3   619  AMP619     -0.2130
     13  C1'        4.3140    7.1350   44.6150 C.3   619  AMP619      0.3186
     14  N9         3.7040    7.5800   45.9280 N.pl3 619  AMP619     -0.1439
     15  C8         3.7200    8.8620   46.4280 C.3   619  AMP619      0.3377
     16  N7         3.0790    8.9180   47.6210 N.2   619  AMP619     -0.2095
     17  C5         2.6420    7.6820   47.9080 C.2   619  AMP619      0.2526
     18  C6         1.9240    7.2050   49.0170 C.2   619  AMP619      0.4393
     19  N6         1.5630    8.0270   50.0050 N.pl3 619  AMP619      0.2180
     20  N1         1.6060    5.8360   49.0380 N.2   619  AMP619      0.0021
     21  C2         1.9830    4.9690   48.0060 C.3   619  AMP619      0.5254
     22  N3         2.6990    5.4500   46.8980 N.2   619  AMP619     -0.0055
     23  C4         3.0220    6.8030   46.8610 C.2   619  AMP619      0.3518
@<TRIPOS>BOND
     1    10     9    1
     2    12    11    1
     3     9    11    1
     4     9     7    1
     5    11    13    1
     6     7     8    1
     7     7     6    1
     8    13     8    1
     9    13    14    1
    10     5     6    1
    11     5     1    1
    12     3     1    2
    13     1     4    1
    14     1     2    1
    15    14    15    1
    16    14    23    1
    17    15    16    1
    18    23    22    2
    19    23    17    1
    20    22    21    1
    21    16    17    2
    22    17    18    1
    23    21    20    1
    24    18    20    2
    25    18    19    1
