@<TRIPOS>MOLECULE
1v8t_R5P_A_1.pdb
 14 13 0 0 0
SMALL
GASTEIGER

@<TRIPOS>ATOM
      1  C1        -8.0220   13.1270   31.6530 C.2   601  R5P601      0.2427
      2  O1        -8.7830   13.1390   32.6200 O.2   601  R5P601     -0.2854
      3  C2        -6.5140   12.9470   31.8370 C.3   601  R5P601      0.2486
      4  O2        -5.8360   13.9030   31.0180 O.3   601  R5P601     -0.2118
      5  C3        -6.0790   11.5210   31.4780 C.3   601  R5P601      0.2224
      6  O3        -4.6680   11.3780   31.6620 O.3   601  R5P601     -0.2171
      7  C4        -6.4530   11.0750   30.0600 C.3   601  R5P601      0.2151
      8  O4        -5.9190    9.7710   29.8140 O.3   601  R5P601     -0.2176
      9  C5        -5.9460   12.0260   28.9740 C.3   601  R5P601      0.1892
     10  O5        -6.4140   11.6060   27.6900 O.3   601  R5P601     -0.2674
     11  P         -6.4490   12.6590   26.4720 P.3   601  R5P601      0.5327
     12  O1P       -5.1110   13.1820   26.1090 O.3   601  R5P601     -0.1145
     13  O2P       -7.1550   11.8950   25.2430 O.2   601  R5P601     -0.2224
     14  O3P       -7.4620   13.8280   26.9240 O.3   601  R5P601     -0.1145
@<TRIPOS>BOND
     1    13    11    2
     2    12    11    1
     3    11    14    1
     4    11    10    1
     5    10     9    1
     6     9     7    1
     7     8     7    1
     8     7     5    1
     9     4     3    1
    10     5     6    1
    11     5     3    1
    12     1     3    1
    13     1     2    2
