@<TRIPOS>MOLECULE
1v8v_APR_A_1.pdb
 36 39 0 0 0
SMALL
GASTEIGER

@<TRIPOS>ATOM
      1  N1         1.9480    6.1180   48.9210 N.2   619  APR619      0.0021
      2  C2         2.4170    5.4630   47.7490 C.3   619  APR619      0.5254
      3  N3         3.0390    6.0490   46.7060 N.2   619  APR619     -0.0055
      4  C4         3.2130    7.4690   46.8560 C.2   619  APR619      0.3518
      5  C5         2.8090    8.2760   47.9530 C.2   619  APR619      0.2526
      6  C6         2.1290    7.5380   49.0590 C.2   619  APR619      0.4393
      7  N6         1.6750    8.1170   50.1770 N.pl3 619  APR619      0.2180
      8  N7         3.1550    9.6040   47.7270 N.2   619  APR619     -0.2095
      9  C8         3.7520    9.5970   46.5220 C.3   619  APR619      0.3377
     10  N9         3.8110    8.3410   45.9610 N.pl3 619  APR619     -0.1439
     11  C1'        4.4160    7.7990   44.5530 C.3   619  APR619      0.3186
     12  C2'        3.8220    8.5890   43.3600 C.3   619  APR619      0.2570
     13  O2'        3.1160    7.6980   42.5110 O.3   619  APR619     -0.2130
     14  C3'        5.0340    9.2650   42.6150 C.3   619  APR619      0.2184
     15  O3'        5.1160    8.8490   41.2550 O.3   619  APR619     -0.2174
     16  O4'        5.7840    8.0170   44.4850 O.3   619  APR619     -0.3135
     17  C4'        6.2520    8.8870   43.3460 C.3   619  APR619      0.1821
     18  C5'        6.9160   10.1150   43.8470 C.3   619  APR619      0.1813
     19  O5'        8.2970    9.8060   44.0770 O.3   619  APR619     -0.3112
     20  PA         9.3500   10.8450   44.5960 P.3   619  APR619      0.2189
     21  O1A       10.3360   10.9350   43.6310 O.2   619  APR619     -0.5170
     22  O2A        9.8560   10.3550   45.7860 O.3   619  APR619     -0.4371
     23  O3A        8.7190   12.4070   44.8900 O.3   619  APR619     -0.2703
     24  PB         7.5840   12.9960   45.8840 P.3   619  APR619      0.2189
     25  O1B        6.8060   11.8850   46.5140 O.3   619  APR619     -0.4371
     26  O2B        6.6580   13.8770   45.1250 O.2   619  APR619     -0.5170
     27  O5D        8.3880   13.8340   47.1160 O.3   619  APR619     -0.3112
     28  C5D        9.0250   12.8960   48.1080 C.3   619  APR619      0.1813
     29  O4D        9.0450   14.9760   49.6770 O.3   619  APR619     -0.3237
     30  O1D        7.0700   15.9880   50.3570 O.3   619  APR619     -0.1869
     31  C1D        8.0680   15.0790   50.7280 C.3   619  APR619      0.3023
     32  O2D        7.1100   13.5000   52.3280 O.3   619  APR619     -0.2148
     33  C2D        7.4880   13.6740   50.9560 C.3   619  APR619      0.2433
     34  O3D        9.4310   12.2680   51.6910 O.3   619  APR619     -0.2175
     35  C3D        8.5880   12.6920   50.5170 C.3   619  APR619      0.2168
     36  C4D        9.4040   13.4300   49.5220 C.3   619  APR619      0.1807
@<TRIPOS>BOND
     1    15    14    1
     2    13    12    1
     3    14    17    1
     4    14    12    1
     5    17    18    1
     6    17    16    1
     7    12    11    1
     8    21    20    2
     9    18    19    1
    10    19    20    1
    11    16    11    1
    12    11    10    1
    13    20    23    1
    14    20    22    1
    15    23    24    1
    16    26    24    2
    17    24    25    1
    18    24    27    1
    19    10     9    1
    20    10     4    1
    21     9     8    1
    22     3     4    2
    23     3     2    1
    24     4     5    1
    25    27    28    1
    26     8     5    2
    27     2     1    1
    28     5     6    1
    29    28    36    1
    30     1     6    2
    31     6     7    1
    32    36    29    1
    33    36    35    1
    34    29    31    1
    35    30    31    1
    36    35    33    1
    37    35    34    1
    38    31    33    1
    39    33    32    1
