@<TRIPOS>MOLECULE
1v8x_HEM_A_1.pdb
 43 50 0 0 0
SMALL
GASTEIGER

@<TRIPOS>ATOM
      1 FE         23.8920   -9.2400    0.6650 Fe    901  HEM901      0.0000
      2  CHA       27.1450  -10.2600    1.1170 C.2   901  HEM901      0.0000
      3  CHB       24.5030   -6.3880    2.4580 C.2   901  HEM901      0.0000
      4  CHC       20.7520   -8.1250   -0.0270 C.2   901  HEM901      0.0000
      5  CHD       23.2570  -12.0450   -1.2700 C.2   901  HEM901      0.0000
      6  NA        25.5180   -8.4640    1.6010 N.2   901  HEM901      0.0000
      7  C1A       26.7800   -9.0430    1.6990 C.2   901  HEM901      0.0000
      8  C2A       27.6240   -8.2450    2.5520 C.2   901  HEM901      0.0000
      9  C3A       26.8750   -7.1940    2.8990 C.2   901  HEM901      0.0000
     10  C4A       25.5390   -7.3210    2.3400 C.2   901  HEM901      0.0000
     11  CMA       27.2630   -6.0600    3.7830 C.3   901  HEM901      0.0000
     12  CAA       29.0930   -8.5050    2.9180 C.3   901  HEM901      0.0000
     13  CBA       29.2130   -9.4320    4.1400 C.3   901  HEM901      0.0000
     14  CGA       30.6370   -9.5180    4.5400 C.2   901  HEM901      0.0000
     15  O1A       31.4350  -10.1280    3.8160 O.co2 901  HEM901      0.0000
     16  O2A       30.9920   -8.9230    5.5890 O.co2 901  HEM901      0.0000
     17  NB        22.8060   -7.5450    1.1150 N.ar  901  HEM901      0.0000
     18  C1B       23.2320   -6.5090    1.8970 C.ar  901  HEM901      0.0000
     19  C2B       22.1330   -5.5960    2.0470 C.ar  901  HEM901      0.0000
     20  C3B       21.1040   -6.0870    1.3600 C.ar  901  HEM901      0.0000
     21  C4B       21.5350   -7.3190    0.7460 C.ar  901  HEM901      0.0000
     22  CMB       22.2530   -4.3070    2.8670 C.3   901  HEM901      0.0000
     23  CAB       19.6950   -5.5510    1.1580 C.2   901  HEM901      0.0000
     24  CBB       19.4240   -4.2590    1.3980 C.2   901  HEM901      0.0000
     25  NC        22.3350   -9.9440   -0.4730 N.2   901  HEM901      0.0000
     26  C1C       21.0980   -9.3220   -0.5860 C.2   901  HEM901      0.0000
     27  C2C       20.3250   -9.9960   -1.5880 C.2   901  HEM901      0.0000
     28  C3C       20.9360  -11.1580   -1.7620 C.2   901  HEM901      0.0000
     29  C4C       22.2490  -11.1330   -1.1410 C.2   901  HEM901      0.0000
     30  CMC       18.8330   -9.7970   -1.8970 C.3   901  HEM901      0.0000
     31  CAC       20.3650  -12.2190   -2.6650 C.2   901  HEM901      0.0000
     32  CBC       21.1850  -13.0530   -3.2810 C.2   901  HEM901      0.0000
     33  ND        24.9760  -10.8220    0.0050 N.ar  901  HEM901      0.0000
     34  C1D       24.4980  -11.9200   -0.6830 C.ar  901  HEM901      0.0000
     35  C2D       25.5410  -12.9080   -0.7630 C.ar  901  HEM901      0.0000
     36  C3D       26.7370  -12.3670   -0.0180 C.ar  901  HEM901      0.0000
     37  C4D       26.3060  -11.0700    0.4140 C.ar  901  HEM901      0.0000
     38  CMD       25.5140  -14.2800   -1.4280 C.3   901  HEM901      0.0000
     39  CAD       28.1120  -13.0310    0.1430 C.3   901  HEM901      0.0000
     40  CBD       29.1530  -12.5330   -0.8900 C.3   901  HEM901      0.0000
     41  CGD       28.8190  -12.7250   -2.3440 C.2   901  HEM901      0.0000
     42  O1D       28.1490  -13.7180   -2.6460 O.co2 901  HEM901      0.0000
     43  O2D       29.2400  -11.9060   -3.2240 O.co2 901  HEM901      0.0000
@<TRIPOS>BOND
     1    32    31    2
     2    43    41   ar
     3    31    28    1
     4    42    41   ar
     5    41    40    1
     6    30    27    1
     7    28    27    2
     8    28    29    1
     9    27    26    1
    10    38    35    1
    11     5    29    1
    12     5    34    2
    13    29    25    2
    14    40    39    1
    15    35    34   ar
    16    35    36   ar
    17    34    33   ar
    18    26    25    1
    19    26     4    2
    20    25     1    1
    21     4    21    1
    22    36    39    1
    23    36    37   ar
    24    33    37   ar
    25    33     1    1
    26    37     2    2
    27     1    17    1
    28     1     6    1
    29    21    17   ar
    30    21    20   ar
    31    17    18   ar
    32     2     7    1
    33    23    20    1
    34    23    24    2
    35    20    19   ar
    36     6     7    2
    37     6    10    1
    38     7     8    1
    39    18    19   ar
    40    18     3    1
    41    19    22    1
    42    10     3    2
    43    10     9    1
    44     8     9    2
    45     8    12    1
    46     9    11    1
    47    12    13    1
    48    15    14   ar
    49    13    14    1
    50    14    16   ar
