@<TRIPOS>MOLECULE
1v8y_APR_A_1.pdb
 19 21 0 0 0
SMALL
GASTEIGER

@<TRIPOS>ATOM
      1  N1         1.7350    5.9710   49.2640 N.2   619  APR619      0.0021
      2  C2         2.0400    5.1390   48.1540 C.3   619  APR619      0.5254
      3  N3         2.6270    5.5280   47.0080 N.2   619  APR619     -0.0055
      4  C4         2.9490    6.9290   46.9660 C.2   619  APR619      0.3518
      5  C5         2.7160    7.8980   47.9780 C.2   619  APR619      0.2526
      6  C6         2.0620    7.3690   49.2120 C.2   619  APR619      0.4393
      7  N6         1.7570    8.1170   50.2800 N.pl3 619  APR619      0.2180
      8  N7         3.1690    9.1440   47.5630 N.2   619  APR619     -0.2095
      9  C8         3.6620    8.9310   46.3310 C.3   619  APR619      0.3377
     10  N9         3.5520    7.6200   45.9300 N.pl3 619  APR619     -0.1439
     11  C1'        3.9850    6.8550   44.5620 C.3   619  APR619      0.3186
     12  C2'        3.2400    7.4570   43.3450 C.3   619  APR619      0.2570
     13  O2'        2.4460    6.4510   42.7410 O.3   619  APR619     -0.2130
     14  C3'        4.3440    8.0010   42.3590 C.3   619  APR619      0.2186
     15  O3'        4.2590    7.3840   41.0770 O.3   619  APR619     -0.2174
     16  O4'        5.3300    7.0480   44.2910 O.3   619  APR619     -0.3134
     17  C4'        5.6470    7.7310   42.9840 C.3   619  APR619      0.1851
     18  C5'        6.3320    9.0160   43.2290 C.3   619  APR619      0.2143
     19  O5'        7.4940    9.0910   42.3940 O.3   619  APR619     -0.2176
@<TRIPOS>BOND
     1    15    14    1
     2    14    17    1
     3    14    12    1
     4    19    18    1
     5    13    12    1
     6    17    18    1
     7    17    16    1
     8    12    11    1
     9    16    11    1
    10    11    10    1
    11    10     9    1
    12    10     4    1
    13     9     8    1
    14     4     3    2
    15     4     5    1
    16     3     2    1
    17     8     5    2
    18     5     6    1
    19     2     1    1
    20     6     1    2
    21     6     7    1
