@<TRIPOS>MOLECULE
1v8z_PLP_A_1.pdb
 15 15 0 0 0
SMALL
GASTEIGER

@<TRIPOS>ATOM
      1  N1        -0.8730   43.2030   42.8800 N.ar  400  PLP400     -0.2452
      2  C2        -1.2880   42.1830   42.0470 C.ar  400  PLP400      0.0978
      3  C2A       -1.0400   42.4130   40.5580 C.3   400  PLP400      0.0555
      4  C3        -1.8870   41.0590   42.6260 C.ar  400  PLP400      0.2049
      5  O3        -2.2770   40.0820   41.7500 O.3   400  PLP400     -0.2857
      6  C4        -2.0770   40.9180   44.0200 C.ar  400  PLP400      0.0182
      7  C4A       -2.7400   39.6640   44.6330 C.3   400  PLP400      0.0342
      8  C5        -1.6530   41.9670   44.8740 C.ar  400  PLP400      0.0261
      9  C6        -1.0610   43.0690   44.2520 C.ar  400  PLP400      0.0965
     10  C5A       -1.7790   42.0170   46.3900 C.3   400  PLP400      0.1815
     11  O4P       -1.1740   40.9950   47.1590 O.3   400  PLP400     -0.2653
     12  P          0.1970   41.2060   47.8680 P.3   400  PLP400      0.5329
     13  O1P        0.4010   39.9050   48.5420 O.3   400  PLP400     -0.1145
     14  O2P        0.0060   42.3400   48.8180 O.3   400  PLP400     -0.1145
     15  O3P        1.2450   41.4720   46.8830 O.2   400  PLP400     -0.2224
@<TRIPOS>BOND
     1     3     2    1
     2     5     4    1
     3     2     4   ar
     4     2     1   ar
     5     4     6   ar
     6     1     9   ar
     7     6     7    1
     8     6     8   ar
     9     9     8   ar
    10     8    10    1
    11    10    11    1
    12    15    12    2
    13    11    12    1
    14    12    13    1
    15    12    14    1
