@<TRIPOS>MOLECULE
1v97_FYX_A_1.pdb
 19 21 0 0 0
SMALL
GASTEIGER

@<TRIPOS>ATOM
      1  CPO      151.7870   46.6800   35.8130 C.ar  3006  FYX3006     0.0318
      2  CPR      151.4560   46.9260   34.4650 C.ar  3006  FYX3006     0.0996
      3  NPS      152.2430   47.7780   33.7620 N.ar  3006  FYX3006    -0.2423
      4  CPT      153.3370   48.4250   34.2250 C.ar  3006  FYX3006     0.0996
      5  CPQ      153.7260   48.2210   35.5680 C.ar  3006  FYX3006     0.0318
      6  CPP      152.9280   47.3330   36.3590 C.ar  3006  FYX3006     0.0795
      7  CPM      153.2600   47.1040   37.6950 C.1   3006  FYX3006     0.1186
      8  NPJ      152.6100   46.2960   38.6050 N.2   3006  FYX3006    -0.2949
      9  NPN      154.3140   47.6390   38.3990 N.2   3006  FYX3006    -0.0712
     10  NPL      154.3140   47.2180   39.5950 N.2   3006  FYX3006    -0.0712
     11  CPK      153.2620   46.3580   39.8150 C.1   3006  FYX3006     0.1187
     12  CPH      152.9210   45.6930   41.0010 C.ar  3006  FYX3006     0.0802
     13  CPG      152.0850   44.5340   40.9870 C.ar  3006  FYX3006     0.0407
     14  CPI      153.4270   46.1980   42.2250 C.ar  3006  FYX3006     0.0318
     15  CPF      153.1020   45.5480   43.4420 C.ar  3006  FYX3006     0.1004
     16  NPE      152.3150   44.4620   43.3850 N.ar  3006  FYX3006    -0.2335
     17  CPD      151.7940   43.9270   42.2310 C.ar  3006  FYX3006     0.1499
     18  CPB      150.9900   42.7900   42.3180 C.1   3006  FYX3006     0.1198
     19  NPC      150.2980   41.7810   42.4130 N.1   3006  FYX3006    -0.1893
@<TRIPOS>BOND
     1     3     4   ar
     2     3     2   ar
     3     4     5   ar
     4     2     1   ar
     5     5     6   ar
     6     1     6   ar
     7     6     7    1
     8     7     9    2
     9     7     8    2
    10     9    10    1
    11     8    11    2
    12    10    11    2
    13    11    12    1
    14    13    12   ar
    15    13    17   ar
    16    12    14   ar
    17    14    15   ar
    18    17    18    1
    19    17    16   ar
    20    18    19    3
    21    16    15   ar
