@<TRIPOS>MOLECULE
1v9a_SAH_A_1.pdb
 26 28 0 0 0
SMALL
GASTEIGER

@<TRIPOS>ATOM
      1  N        -14.0270   82.9980   47.4760 N.3   501  SAH501     -0.1208
      2  CA       -15.1960   82.5980   46.6640 C.3   501  SAH501      0.1952
      3  CB       -14.9210   83.1490   45.2030 C.3   501  SAH501      0.0422
      4  CG       -14.8930   84.7280   45.0640 C.3   501  SAH501      0.0597
      5  SD       -14.5630   85.2290   43.3580 S.3   501  SAH501     -0.1375
      6  C        -15.3730   81.0720   46.7220 C.2   501  SAH501      0.3819
      7  O        -14.5310   80.3310   47.4260 O.co2 501  SAH501     -0.2441
      8  OXT      -16.3420   80.5320   46.0830 O.co2 501  SAH501     -0.2441
      9  C5'      -16.3150   85.3370   42.7710 C.3   501  SAH501      0.0899
     10  C4'      -16.6560   84.2570   41.7700 C.3   501  SAH501      0.1630
     11  O4'      -17.0250   83.0510   42.4610 O.3   501  SAH501     -0.3153
     12  C3'      -17.8640   84.4710   40.8190 C.3   501  SAH501      0.2168
     13  O3'      -17.5060   85.2420   39.6540 O.3   501  SAH501     -0.2175
     14  C2'      -18.2630   83.0530   40.4620 C.3   501  SAH501      0.2569
     15  O2'      -17.4460   82.5230   39.3940 O.3   501  SAH501     -0.2130
     16  C1'      -17.9770   82.2700   41.7560 C.3   501  SAH501      0.3185
     17  N9       -19.1350   82.1110   42.6090 N.pl3 501  SAH501     -0.1439
     18  C8       -19.3700   82.5910   43.8990 C.3   501  SAH501      0.3377
     19  N7       -20.5690   82.1880   44.3450 N.2   501  SAH501     -0.2095
     20  C5       -21.1150   81.4310   43.3270 C.2   501  SAH501      0.2526
     21  C6       -22.3270   80.7460   43.1500 C.2   501  SAH501      0.4393
     22  N6       -23.2470   80.7180   44.1260 N.pl3 501  SAH501      0.2180
     23  N1       -22.5800   80.0660   41.9680 N.2   501  SAH501      0.0021
     24  C2       -21.6320   80.1020   40.9910 C.3   501  SAH501      0.5254
     25  N3       -20.4230   80.7400   41.0530 N.2   501  SAH501     -0.0055
     26  C4       -20.2400   81.3860   42.2300 C.2   501  SAH501      0.3518
@<TRIPOS>BOND
     1    15    14    1
     2    13    12    1
     3    14    12    1
     4    14    16    1
     5    12    10    1
     6    24    25    1
     7    24    23    1
     8    25    26    2
     9    16    11    1
    10    16    17    1
    11    10    11    1
    12    10     9    1
    13    23    21    2
    14    26    17    1
    15    26    20    1
    16    17    18    1
    17     9     5    1
    18    21    20    1
    19    21    22    1
    20    20    19    2
    21     5     4    1
    22    18    19    1
    23     4     3    1
    24     3     2    1
    25     8     6   ar
    26     2     6    1
    27     2     1    1
    28     6     7   ar
