@<TRIPOS>MOLECULE
1v9h_U5P_A_1.pdb
 21 22 0 0 0
SMALL
GASTEIGER

@<TRIPOS>ATOM
      1  N1        11.4650  -40.4840   17.2510 N.am  1001  U5P1001    -0.1766
      2  C2        11.6790  -41.6400   16.4780 C.1   1001  U5P1001     0.2845
      3  N3        12.6170  -42.5150   16.9730 N.2   1001  U5P1001    -0.2452
      4  C4        13.3660  -42.3710   18.1520 C.1   1001  U5P1001     0.2182
      5  C5        13.0870  -41.1590   18.8860 C.2   1001  U5P1001     0.1242
      6  C6        12.1870  -40.2880   18.4380 C.2   1001  U5P1001     0.0929
      7  O2        11.0510  -41.8180   15.4370 O.2   1001  U5P1001    -0.1918
      8  O4        14.1540  -43.2470   18.4380 O.2   1001  U5P1001    -0.2085
      9  C1'       10.4530  -39.5180   16.7470 C.3   1001  U5P1001     0.2401
     10  C2'        9.2510  -39.2610   17.6510 C.3   1001  U5P1001     0.2319
     11  O2'        8.1900  -40.2200   17.4710 O.3   1001  U5P1001    -0.2157
     12  C3'        8.8350  -37.8040   17.3720 C.3   1001  U5P1001     0.2158
     13  C4'       10.1570  -37.1700   16.9410 C.3   1001  U5P1001     0.1801
     14  O3'        7.7490  -37.7290   16.4010 O.3   1001  U5P1001    -0.2175
     15  O4'       10.9830  -38.2520   16.4020 O.3   1001  U5P1001    -0.3320
     16  C5'       11.0250  -36.4730   17.9940 C.3   1001  U5P1001     0.1859
     17  O5'       12.1710  -35.7740   17.4580 O.3   1001  U5P1001    -0.2675
     18  P         12.1330  -34.1930   17.0990 P.3   1001  U5P1001     0.5327
     19  O1P       11.8060  -33.2160   18.1930 O.3   1001  U5P1001    -0.1145
     20  O2P       11.1140  -33.9070   16.0610 O.2   1001  U5P1001    -0.2224
     21  O3P       13.5980  -33.9930   16.3660 O.3   1001  U5P1001    -0.1145
@<TRIPOS>BOND
     1     7     2    2
     2    20    18    2
     3    21    18    1
     4    14    12    1
     5    15     9    1
     6    15    13    1
     7     2     3    2
     8     2     1   am
     9     9     1    1
    10     9    10    1
    11    13    12    1
    12    13    16    1
    13     3     4    2
    14    18    17    1
    15    18    19    1
    16     1     6    1
    17    12    10    1
    18    17    16    1
    19    11    10    1
    20     4     8    2
    21     4     5    1
    22     6     5    2
