@<TRIPOS>MOLECULE
1v9l_NAD_A_1.pdb
 44 48 0 0 0
SMALL
GASTEIGER

@<TRIPOS>ATOM
      1  PA        33.6060  119.8360   76.1950 P.3   430  NAD430      0.2189
      2  O1A       32.6310  119.1000   75.3600 O.2   430  NAD430     -0.5170
      3  O2A       34.9030  120.2930   75.5880 O.3   430  NAD430     -0.4371
      4  O5B       32.7870  121.0470   76.7990 O.3   430  NAD430     -0.3112
      5  C5B       33.1630  121.7960   78.0000 C.3   430  NAD430      0.1813
      6  C4B       32.1500  122.9280   78.1260 C.3   430  NAD430      0.1821
      7  O4B       32.5130  123.6770   79.3620 O.3   430  NAD430     -0.3135
      8  C3B       32.1400  124.0530   76.9980 C.3   430  NAD430      0.2184
      9  O3B       30.8690  124.0300   76.2570 O.3   430  NAD430     -0.2174
     10  C2B       32.4710  125.3760   77.7450 C.3   430  NAD430      0.2570
     11  O2B       31.9480  126.5970   77.2820 O.3   430  NAD430     -0.2130
     12  C1B       32.0860  125.0090   79.1800 C.3   430  NAD430      0.3186
     13  N9A       32.7910  125.8010   80.1990 N.pl3 430  NAD430     -0.1439
     14  C8A       34.1420  126.0670   80.4310 C.3   430  NAD430      0.3377
     15  N7A       34.3570  126.8370   81.4760 N.2   430  NAD430     -0.2095
     16  C5A       33.1650  127.1340   82.0160 C.2   430  NAD430      0.2526
     17  C6A       32.7610  127.9520   83.1770 C.2   430  NAD430      0.4393
     18  N6A       33.6500  128.5610   83.9320 N.pl3 430  NAD430      0.2180
     19  N1A       31.3910  128.0110   83.4080 N.2   430  NAD430      0.0021
     20  C2A       30.4470  127.4030   82.6660 C.3   430  NAD430      0.5254
     21  N3A       30.7720  126.6140   81.5450 N.2   430  NAD430     -0.0055
     22  C4A       32.1540  126.5140   81.2460 C.2   430  NAD430      0.3518
     23  O3        34.0020  118.9430   77.4330 O.3   430  NAD430     -0.2703
     24  PN        33.4390  117.5370   78.0080 P.3   430  NAD430      0.2189
     25  O1N       33.8070  116.4620   77.0780 O.2   430  NAD430     -0.5170
     26  O2N       32.0020  117.7740   78.3200 O.3   430  NAD430     -0.4371
     27  O5D       34.3640  117.4190   79.3310 O.3   430  NAD430     -0.3112
     28  C5D       34.1950  118.3830   80.4280 C.3   430  NAD430      0.1813
     29  C4D       34.7010  117.8210   81.7180 C.3   430  NAD430      0.1799
     30  O4D       34.0850  116.4750   81.9580 O.3   430  NAD430     -0.3327
     31  C3D       36.2210  117.5550   81.8010 C.3   430  NAD430      0.2158
     32  O3D       36.6870  117.8340   83.1520 O.3   430  NAD430     -0.2175
     33  C2D       36.3790  116.0690   81.4990 C.3   430  NAD430      0.2309
     34  O2D       37.6090  115.5570   81.9400 O.3   430  NAD430     -0.2158
     35  C1D       35.1180  115.4880   82.2340 C.3   430  NAD430      0.2261
     36  N1N       34.6100  114.1230   81.8130 N.pl3 430  NAD430     -0.2831
     37  C2N       34.4090  113.9740   80.3790 C.2   430  NAD430      0.0633
     38  C3N       34.4740  112.7720   79.7820 C.2   430  NAD430      0.0490
     39  C7N       34.2630  112.6020   78.3140 C.2   430  NAD430      0.2814
     40  O7N       35.2570  112.4210   77.5810 O.2   430  NAD430     -0.2670
     41  N7N       33.0030  112.6440   77.8340 N.am  430  NAD430     -0.0839
     42  C4N       34.7650  111.5000   80.5740 C.3   430  NAD430      0.0341
     43  C5N       35.6640  111.8430   81.7010 C.3   430  NAD430      0.0264
     44  C6N       35.2960  113.0050   82.4710 C.3   430  NAD430      0.0934
@<TRIPOS>BOND
     1     2     1    2
     2     3     1    1
     3     1     4    1
     4     1    23    1
     5     9     8    1
     6     4     5    1
     7     8    10    1
     8     8     6    1
     9    25    24    2
    10    11    10    1
    11    23    24    1
    12    40    39    2
    13    10    12    1
    14    41    39   am
    15     5     6    1
    16    24    26    1
    17    24    27    1
    18     6     7    1
    19    39    38    1
    20    12     7    1
    21    12    13    1
    22    27    28    1
    23    38    37    2
    24    38    42    1
    25    13    14    1
    26    13    22    1
    27    37    36    1
    28    28    29    1
    29    14    15    1
    30    42    43    1
    31    22    21    2
    32    22    16    1
    33    15    16    2
    34    33    31    1
    35    33    34    1
    36    33    35    1
    37    21    20    1
    38    43    44    1
    39    29    31    1
    40    29    30    1
    41    31    32    1
    42    36    35    1
    43    36    44    1
    44    30    35    1
    45    16    17    1
    46    20    19    1
    47    17    19    2
    48    17    18    1
