@<TRIPOS>MOLECULE
1v9n_NDP_A_1.pdb
 48 52 0 0 0
SMALL
GASTEIGER

@<TRIPOS>ATOM
      1  PA        19.9360   67.3910   94.6630 P.3   401  NDP401      0.2189
      2  O1A       20.1810   67.7140   93.2780 O.2   401  NDP401     -0.5170
      3  O2A       21.0340   67.2340   95.6800 O.3   401  NDP401     -0.4371
      4  O5B       18.8530   68.4900   95.2200 O.3   401  NDP401     -0.3112
      5  C5B       18.3610   68.4400   96.5720 C.3   401  NDP401      0.1813
      6  C4B       17.3540   69.6000   96.6880 C.3   401  NDP401      0.1820
      7  O4B       18.1230   70.6960   97.2150 O.3   401  NDP401     -0.3136
      8  C3B       16.7020   70.1130   95.4340 C.3   401  NDP401      0.2157
      9  O3B       15.3230   70.4640   95.7590 O.3   401  NDP401     -0.2175
     10  C2B       17.4670   71.3160   95.0090 C.3   401  NDP401      0.2314
     11  O2B       16.7840   72.2900   94.2010 O.3   401  NDP401     -0.2630
     12  C1B       17.9750   71.8050   96.3300 C.3   401  NDP401      0.3158
     13  N9A       19.3150   72.4530   96.2930 N.pl3 401  NDP401     -0.1439
     14  C8A       20.4640   72.1120   95.5240 C.3   401  NDP401      0.3377
     15  N7A       21.4670   72.9160   95.7930 N.2   401  NDP401     -0.2095
     16  C5A       21.0190   73.7980   96.7340 C.2   401  NDP401      0.2526
     17  C6A       21.5970   74.8980   97.4450 C.2   401  NDP401      0.4393
     18  N6A       22.8710   75.2430   97.2280 N.pl3 401  NDP401      0.2180
     19  N1A       20.8400   75.6000   98.3580 N.2   401  NDP401      0.0021
     20  C2A       19.5330   75.2510   98.5910 C.3   401  NDP401      0.5254
     21  N3A       18.9000   74.2300   97.9770 N.2   401  NDP401     -0.0055
     22  C4A       19.7020   73.5350   97.0510 C.2   401  NDP401      0.3518
     23  O3        19.0230   66.1260   94.8530 O.3   401  NDP401     -0.2703
     24  PN        19.0780   64.5660   94.5710 P.3   401  NDP401      0.2189
     25  O1N       18.9410   63.9350   95.8800 O.3   401  NDP401     -0.4371
     26  O2N       20.3840   64.4030   93.8460 O.2   401  NDP401     -0.5170
     27  O5D       17.8080   64.3830   93.6300 O.3   401  NDP401     -0.3112
     28  C5D       17.8360   63.5790   92.4170 C.3   401  NDP401      0.1813
     29  C4D       16.4240   63.5900   91.7150 C.3   401  NDP401      0.1799
     30  O4D       16.0800   62.2360   91.4820 O.3   401  NDP401     -0.3327
     31  C3D       15.2400   64.1800   92.5210 C.3   401  NDP401      0.2158
     32  O3D       14.4460   64.9710   91.6270 O.3   401  NDP401     -0.2175
     33  C2D       14.5060   62.9830   93.1000 C.3   401  NDP401      0.2309
     34  O2D       13.1370   63.2620   93.3050 O.3   401  NDP401     -0.2158
     35  C1D       14.8000   61.9050   92.0240 C.3   401  NDP401      0.2263
     36  N1N       14.8500   60.5150   92.5520 N.pl3 401  NDP401     -0.2787
     37  C2N       13.8390   59.6270   92.0890 C.3   401  NDP401      0.1244
     38  C3N       13.8860   58.2620   92.5920 C.2   401  NDP401      0.0544
     39  C7N       12.8780   57.2950   92.1450 C.2   401  NDP401      0.2818
     40  O7N       12.8560   56.1170   92.5220 O.2   401  NDP401     -0.2670
     41  N7N       11.9010   57.6720   91.2760 N.am  401  NDP401     -0.0839
     42  C4N       14.9310   57.9080   93.4990 C.2   401  NDP401      0.0033
     43  C5N       15.9040   58.7940   93.9420 C.2   401  NDP401      0.0157
     44  C6N       15.8720   60.1030   93.4660 C.2   401  NDP401      0.0633
     45  P2B       16.9060   72.4470   92.6600 P.3   401  NDP401      0.5328
     46  O1X       16.9660   73.9090   92.5020 O.3   401  NDP401     -0.1145
     47  O2X       15.6980   71.8720   91.9920 O.2   401  NDP401     -0.2224
     48  O3X       18.1790   71.7640   92.1700 O.3   401  NDP401     -0.1145
@<TRIPOS>BOND
     1    41    39   am
     2    30    29    1
     3    30    35    1
     4    32    31    1
     5    29    28    1
     6    29    31    1
     7    47    45    2
     8    35    36    1
     9    35    33    1
    10    37    36    1
    11    37    38    1
    12    39    40    2
    13    39    38    1
    14    48    45    1
    15    28    27    1
    16    46    45    1
    17    31    33    1
    18    36    44    1
    19    38    42    2
    20    45    11    1
    21    33    34    1
    22     2     1    2
    23    44    43    2
    24    42    43    1
    25    27    24    1
    26    26    24    2
    27    11    10    1
    28    24    23    1
    29    24    25    1
    30     1    23    1
    31     1     4    1
    32     1     3    1
    33    10     8    1
    34    10    12    1
    35     4     5    1
    36     8     9    1
    37     8     6    1
    38    14    15    1
    39    14    13    1
    40    15    16    2
    41    13    12    1
    42    13    22    1
    43    12     7    1
    44     5     6    1
    45     6     7    1
    46    16    22    1
    47    16    17    1
    48    22    21    2
    49    18    17    1
    50    17    19    2
    51    21    20    1
    52    19    20    1
