@<TRIPOS>MOLECULE
1v9o_ADP_A_1.pdb
 27 29 0 0 0
SMALL
GASTEIGER

@<TRIPOS>ATOM
      1  PB         1.3950    5.1760   -6.0990 P.3   200  ADP200      0.5373
      2  O1B        1.0330    4.2640   -4.9910 O.3   200  ADP200     -0.1143
      3  O2B        1.8800    4.3930   -7.4200 O.2   200  ADP200     -0.2221
      4  O3B        0.1630    6.1060   -6.5600 O.3   200  ADP200     -0.1143
      5  PA         2.7570    7.5840   -6.4810 P.3   200  ADP200      0.2231
      6  O1A        2.3390    7.3820   -7.8870 O.2   200  ADP200     -0.5169
      7  O2A        2.0620    8.6210   -5.6860 O.3   200  ADP200     -0.4370
      8  O3A        2.5990    6.1760   -5.7180 O.3   200  ADP200     -0.2261
      9  O5'        4.3440    7.8550   -6.4440 O.3   200  ADP200     -0.3111
     10  C5'        4.8820    8.6760   -5.4050 C.3   200  ADP200      0.1813
     11  C4'        5.9060    9.6790   -5.9410 C.3   200  ADP200      0.1821
     12  O4'        5.4110   10.4490   -7.0530 O.3   200  ADP200     -0.3135
     13  C3'        6.2300   10.6760   -4.8280 C.3   200  ADP200      0.2184
     14  O3'        7.3600   10.1890   -4.0990 O.3   200  ADP200     -0.2174
     15  C2'        6.6360   11.8940   -5.6550 C.3   200  ADP200      0.2570
     16  O2'        7.9350   11.6950   -6.2200 O.3   200  ADP200     -0.2130
     17  C1'        5.5730   11.8480   -6.7550 C.3   200  ADP200      0.3186
     18  N9         4.2650   12.3860   -6.3090 N.pl3 200  ADP200     -0.1439
     19  C8         3.2190   11.6700   -5.9020 C.3   200  ADP200      0.3377
     20  N7         2.1870   12.4740   -5.6570 N.2   200  ADP200     -0.2095
     21  C5         2.5780   13.7210   -5.9050 C.2   200  ADP200      0.2526
     22  C6         1.9630   14.9650   -5.8350 C.2   200  ADP200      0.4393
     23  N6         0.6900   15.0710   -5.4640 N.pl3 200  ADP200      0.2180
     24  N1         2.6670   16.0610   -6.1590 N.2   200  ADP200      0.0021
     25  C2         3.9290   15.9740   -6.5450 C.3   200  ADP200      0.5254
     26  N3         4.5420   14.8050   -6.6260 N.2   200  ADP200     -0.0055
     27  C4         3.9030   13.6670   -6.3170 C.2   200  ADP200      0.3518
@<TRIPOS>BOND
     1     6     5    2
     2     3     1    2
     3    12    17    1
     4    12    11    1
     5    17    18    1
     6    17    15    1
     7    26    25    1
     8    26    27    2
     9     4     1    1
    10    25    24    1
    11     5     9    1
    12     5     8    1
    13     5     7    1
    14     9    10    1
    15    27    18    1
    16    27    21    1
    17    18    19    1
    18    16    15    1
    19    24    22    2
    20     1     8    1
    21     1     2    1
    22    11    10    1
    23    11    13    1
    24    21    22    1
    25    21    20    2
    26    19    20    1
    27    22    23    1
    28    15    13    1
    29    13    14    1
