@<TRIPOS>MOLECULE
1v9p_AMP_A_1.pdb
 22 24 0 0 0
SMALL
GASTEIGER

@<TRIPOS>ATOM
      1  P         22.9520   11.2220   18.4630 P.3   700  AMP700      0.3942
      2  O1P       22.0610   12.3600   18.1800 O.3   700  AMP700     -0.1425
      3  O2P       22.5240   10.4560   19.6480 O.3   700  AMP700     -0.1425
      4  O5'       23.0840   10.2450   17.2090 O.3   700  AMP700     -0.2926
      5  C5'       23.4880   10.8000   15.9510 C.3   700  AMP700      0.1831
      6  C4'       23.5500    9.7080   14.8820 C.3   700  AMP700      0.1822
      7  O4'       24.2900   10.2860   13.8080 O.3   700  AMP700     -0.3135
      8  C3'       24.3070    8.4700   15.3210 C.3   700  AMP700      0.2184
      9  O3'       23.4820    7.2980   15.2730 O.3   700  AMP700     -0.2174
     10  C2'       25.5370    8.3460   14.4070 C.3   700  AMP700      0.2570
     11  O2'       25.6080    7.1200   13.6620 O.3   700  AMP700     -0.2130
     12  C1'       25.4820    9.5450   13.5010 C.3   700  AMP700      0.3186
     13  N9        26.6980   10.4470   13.6940 N.pl3 700  AMP700     -0.1439
     14  C8        26.6560   11.7380   14.0910 C.3   700  AMP700      0.3377
     15  N7        27.8950   12.2380   14.1580 N.2   700  AMP700     -0.2095
     16  C5        28.7390   11.3070   13.8160 C.2   700  AMP700      0.2526
     17  C6        30.1330   11.2170   13.6900 C.2   700  AMP700      0.4393
     18  N6        30.9020   12.2760   13.9570 N.pl3 700  AMP700      0.2180
     19  N1        30.7160   10.0430   13.2930 N.2   700  AMP700      0.0021
     20  C2        29.9730    8.9390   13.0110 C.3   700  AMP700      0.5254
     21  N3        28.6240    9.0080   13.1260 N.2   700  AMP700     -0.0055
     22  C4        27.9770   10.1390   13.5140 C.2   700  AMP700      0.3518
@<TRIPOS>BOND
     1    20    21    1
     2    20    19    1
     3    21    22    2
     4    19    17    2
     5    12    13    1
     6    12     7    1
     7    12    10    1
     8    22    13    1
     9    22    16    1
    10    11    10    1
    11    17    16    1
    12    17    18    1
    13    13    14    1
    14     7     6    1
    15    16    15    2
    16    14    15    1
    17    10     8    1
    18     6     8    1
    19     6     5    1
    20     9     8    1
    21     5     4    1
    22     4     1    1
    23     2     1    1
    24     1     3    1
