@<TRIPOS>MOLECULE
1v9q_CZM_A_1.pdb
 26 28 0 0 0
SMALL
GASTEIGER

@<TRIPOS>ATOM
      1  OA         1.0360    5.7820    4.9110 O.3   180  CZM180     -0.2869
      2  CA2        1.8940    6.7930    5.2820 C.ar  180  CZM180      0.1931
      3  CA3        2.0460    7.0540    6.6460 C.ar  180  CZM180      0.0171
      4  CA4        2.9030    8.0750    7.0390 C.ar  180  CZM180     -0.0011
      5  CA5        3.5980    8.8280    6.1070 C.ar  180  CZM180     -0.0001
      6  CA6        3.4460    8.5660    4.7580 C.ar  180  CZM180      0.0047
      7  CA1        2.6060    7.5630    4.3080 C.ar  180  CZM180      0.0577
      8  CA         2.4550    7.3250    2.9010 C.2   180  CZM180      0.1020
      9  NA         1.6260    6.5000    2.3520 N.2   180  CZM180     -0.2422
     10  CC1        1.5390    6.3400    0.9290 C.ar  180  CZM180      0.0989
     11  CC6        2.3250    7.0640    0.0220 C.ar  180  CZM180      0.0206
     12  CC5        2.1910    6.8810   -1.3600 C.ar  180  CZM180      0.0016
     13  CC4        1.2520    5.9630   -1.8400 C.ar  180  CZM180      0.0016
     14  CC3        0.4670    5.2410   -0.9320 C.ar  180  CZM180      0.0206
     15  CC2        0.6070    5.4200    0.4480 C.ar  180  CZM180      0.0989
     16  NB        -0.1070    4.6450    1.4230 N.2   180  CZM180     -0.2422
     17  CB        -0.5900    3.4840    1.1290 C.2   180  CZM180      0.1020
     18  CB1       -1.2950    2.5820    2.0000 C.ar  180  CZM180      0.0577
     19  CB6       -1.6670    1.3320    1.5310 C.ar  180  CZM180      0.0047
     20  CB5       -2.2080    0.3740    2.3730 C.ar  180  CZM180     -0.0001
     21  CB4       -2.3880    0.6640    3.7180 C.ar  180  CZM180     -0.0011
     22  CB3       -2.0460    1.9030    4.2400 C.ar  180  CZM180      0.0171
     23  CB2       -1.5090    2.8690    3.3880 C.ar  180  CZM180      0.1931
     24  OB        -1.2450    4.1060    3.9210 O.3   180  CZM180     -0.2869
     25  CB7       -2.2300    2.1410    5.7060 C.3   180  CZM180      0.0344
     26  CA7        1.3200    6.2810    7.7000 C.3   180  CZM180      0.0344
@<TRIPOS>BOND
     1    13    12   ar
     2    13    14   ar
     3    12    11   ar
     4    14    15   ar
     5    11    10   ar
     6    15    10   ar
     7    15    16    1
     8    10     9    1
     9    17    16    2
    10    17    18    1
    11    19    18   ar
    12    19    20   ar
    13    18    23   ar
    14     9     8    2
    15    20    21   ar
    16     8     7    1
    17    23    24    1
    18    23    22   ar
    19    21    22   ar
    20    22    25    1
    21     7     6   ar
    22     7     2   ar
    23     6     5   ar
    24     1     2    1
    25     2     3   ar
    26     5     4   ar
    27     3     4   ar
    28     3    26    1
