@<TRIPOS>MOLECULE
1v9t_III_C_1.pdb
 34 35 0 0 0
SMALL
GASTEIGER

@<TRIPOS>ATOM
      1  C1         8.0560   33.2050   18.5390 C.2     1  SIN1        0.3654
      2  O1         8.8040   32.2580   18.2160 O.co2   1  SIN1       -0.2456
      3  O2         7.9960   33.5760   19.7320 O.co2   1  SIN1       -0.2456
      4  C2         7.2240   33.8960   17.4790 C.3     1  SIN1        0.1237
      5  C3         7.8370   35.1840   16.9450 C.3     1  SIN1        0.0986
      6  C4         6.9670   35.8390   15.9220 C.2     1  SIN1        0.2423
      7  O3         5.7400   35.8830   16.0150 O.2     1  SIN1       -0.2733
      8  N          7.6300   36.3710   14.9020 N.am    2  ALA2       -0.1978
      9  CA         6.9320   37.0680   13.8300 C.3     2  ALA2        0.1713
     10  C          7.8520   37.3950   12.6620 C.2     2  ALA2        0.2458
     11  O          8.4730   38.4600   12.6300 O.2     2  ALA2       -0.2730
     12  CB         6.2930   38.3460   14.3630 C.3     2  ALA2        0.0333
     13  N          7.7910   36.5720   11.6010 N.am    3  PRO3       -0.2716
     14  CA         8.5820   36.8010   10.3890 C.3     3  PRO3        0.1536
     15  C          8.2870   38.1850    9.8400 C.2     3  PRO3        0.2598
     16  O          7.1320   38.5340    9.5970 O.2     3  PRO3       -0.2715
     17  CB         8.1030   35.7060    9.4360 C.3     3  PRO3        0.0310
     18  CG         6.7490   35.3080    9.9700 C.3     3  PRO3        0.0237
     19  CD         6.9210   35.3950   11.4560 C.3     3  PRO3        0.0939
     20  N          9.3130   39.0220    9.7910 N.am    4  ALA4       -0.1964
     21  CA         9.1500   40.3650    9.2640 C.3     4  ALA4        0.1732
     22  C          9.3360   40.3020    7.7630 C.2     4  ALA4        0.2654
     23  O         10.1480   39.5130    7.2740 O.2     4  ALA4       -0.2711
     24  CB        10.1760   41.3040    9.8820 C.3     4  ALA4        0.0334
     25  N1         8.4850   41.0290    7.0420 N.am    5  NIT5       -0.1778
     26  C1         8.6000   41.2730    5.5940 C.ar    5  NIT5        0.0735
     27  C2         7.4390   41.5380    4.8060 C.ar    5  NIT5        0.0183
     28  C3         7.5900   41.8160    3.4100 C.ar    5  NIT5        0.0254
     29  C4         8.9150   41.8200    2.8280 C.ar    5  NIT5        0.1430
     30  N4         9.1290   42.0790    1.3740 N.pl3   5  NIT5        0.0577
     31  ON1        8.1720   41.8970    0.6220 O.2     5  NIT5       -0.1261
     32  ON2       10.2560   42.4110    0.9720 O.2     5  NIT5       -0.1261
     33  C5        10.0730   41.5560    3.6220 C.ar    5  NIT5        0.0254
     34  C6         9.9060   41.2860    4.9950 C.ar    5  NIT5        0.0183
@<TRIPOS>BOND
     1    31    30    2
     2    32    30    2
     3    30    29    1
     4    29    28   ar
     5    29    33   ar
     6    28    27   ar
     7    33    34   ar
     8    27    26   ar
     9    34    26   ar
    10    26    25    1
    11    25    22   am
    12    23    22    2
    13    22    21    1
    14    21    20    1
    15    21    24    1
    16    17    18    1
    17    17    14    1
    18    16    15    2
    19    20    15   am
    20    15    14    1
    21    18    19    1
    22    14    13    1
    23    19    13    1
    24    13    10   am
    25    11    10    2
    26    10     9    1
    27     9    12    1
    28     9     8    1
    29     8     6   am
    30     6     7    2
    31     6     5    1
    32     5     4    1
    33     4     1    1
    34     2     1   ar
    35     1     3   ar
