@<TRIPOS>MOLECULE
1v9y_HEM_A_1.pdb
 43 50 0 0 0
SMALL
GASTEIGER

@<TRIPOS>ATOM
      1  CHA       -3.5930  -17.9450  -12.7870 C.2   1140  HEM1140     0.0000
      2  CHB        0.2960  -20.6030  -13.6850 C.2   1140  HEM1140     0.0000
      3  CHC        2.5700  -16.6870  -15.4220 C.2   1140  HEM1140     0.0000
      4  CHD       -1.2850  -14.0210  -14.3770 C.2   1140  HEM1140     0.0000
      5  C1A       -2.7760  -19.0160  -12.9000 C.2   1140  HEM1140     0.0000
      6  C2A       -3.0660  -20.3920  -12.4960 C.2   1140  HEM1140     0.0000
      7  C3A       -1.9740  -21.1060  -12.7040 C.2   1140  HEM1140     0.0000
      8  C4A       -0.9860  -20.2330  -13.3130 C.2   1140  HEM1140     0.0000
      9  CMA       -1.7480  -22.6150  -12.5750 C.3   1140  HEM1140     0.0000
     10  CAA       -4.4630  -20.8960  -12.0770 C.3   1140  HEM1140     0.0000
     11  CBA       -4.7290  -20.6010  -10.5990 C.3   1140  HEM1140     0.0000
     12  CGA       -3.7680  -21.1710   -9.6070 C.2   1140  HEM1140     0.0000
     13  O1A       -4.2530  -22.2930   -9.1600 O.co2 1140  HEM1140     0.0000
     14  O2A       -2.7150  -20.6400   -9.2620 O.co2 1140  HEM1140     0.0000
     15  C1B        1.2410  -19.7990  -14.2990 C.ar  1140  HEM1140     0.0000
     16  C2B        2.5980  -20.2190  -14.6280 C.ar  1140  HEM1140     0.0000
     17  C3B        3.1650  -19.1340  -15.1930 C.ar  1140  HEM1140     0.0000
     18  C4B        2.2620  -18.0080  -15.0950 C.ar  1140  HEM1140     0.0000
     19  CMB        3.1550  -21.6330  -14.4460 C.3   1140  HEM1140     0.0000
     20  CAB        4.5460  -18.9120  -15.7820 C.3   1140  HEM1140     0.0000
     21  CBB        5.7030  -19.7200  -15.2460 C.3   1140  HEM1140     0.0000
     22  C1C        1.7130  -15.6310  -15.1940 C.2   1140  HEM1140     0.0000
     23  C2C        2.0880  -14.2340  -15.4910 C.2   1140  HEM1140     0.0000
     24  C3C        1.0340  -13.4930  -15.1680 C.2   1140  HEM1140     0.0000
     25  C4C       -0.0030  -14.3980  -14.7010 C.2   1140  HEM1140     0.0000
     26  CMC        3.4770  -13.8810  -16.0810 C.3   1140  HEM1140     0.0000
     27  CAC        0.7290  -11.9850  -15.2230 C.3   1140  HEM1140     0.0000
     28  CBC        1.9610  -11.0780  -15.2520 C.3   1140  HEM1140     0.0000
     29  C1D       -2.2820  -14.8480  -13.9200 C.ar  1140  HEM1140     0.0000
     30  C2D       -3.5730  -14.4220  -13.4220 C.ar  1140  HEM1140     0.0000
     31  C3D       -4.2400  -15.5380  -13.0600 C.ar  1140  HEM1140     0.0000
     32  C4D       -3.2860  -16.6330  -13.0810 C.ar  1140  HEM1140     0.0000
     33  CMD       -4.0700  -12.9690  -13.3540 C.3   1140  HEM1140     0.0000
     34  CAD       -5.6450  -15.6000  -12.4810 C.3   1140  HEM1140     0.0000
     35  CBD       -5.5050  -14.9500  -11.0750 C.3   1140  HEM1140     0.0000
     36  CGD       -6.2550  -15.7850  -10.0970 C.2   1140  HEM1140     0.0000
     37  O1D       -5.6240  -16.7680   -9.6850 O.co2 1140  HEM1140     0.0000
     38  O2D       -7.3760  -15.2840   -9.9320 O.co2 1140  HEM1140     0.0000
     39  NA        -1.4980  -18.9390  -13.4020 N.2   1140  HEM1140     0.0000
     40  NB         1.0780  -18.4370  -14.5150 N.ar  1140  HEM1140     0.0000
     41  NC         0.4310  -15.7110  -14.7420 N.2   1140  HEM1140     0.0000
     42  ND        -2.1170  -16.2120  -13.7250 N.ar  1140  HEM1140     0.0000
     43 FE         -0.5390  -17.3260  -14.1290 Fe    1140  HEM1140     0.0000
@<TRIPOS>BOND
     1    26    23    1
     2    20    21    1
     3    20    17    1
     4    23    22    1
     5    23    24    2
     6     3    22    2
     7     3    18    1
     8    28    27    1
     9    27    24    1
    10    22    41    1
    11    17    18   ar
    12    17    16   ar
    13    24    25    1
    14    18    40   ar
    15    41    25    2
    16    41    43    1
    17    25     4    1
    18    16    19    1
    19    16    15   ar
    20    40    15   ar
    21    40    43    1
    22     4    29    2
    23    15     2    1
    24    43    42    1
    25    43    39    1
    26    29    42   ar
    27    29    30   ar
    28    42    32   ar
    29     2     8    2
    30    30    33    1
    31    30    31   ar
    32    39     8    1
    33    39     5    2
    34     8     7    1
    35    32    31   ar
    36    32     1    2
    37    31    34    1
    38     5     1    1
    39     5     6    1
    40     7     9    1
    41     7     6    2
    42     6    10    1
    43    34    35    1
    44    10    11    1
    45    35    36    1
    46    11    12    1
    47    36    38   ar
    48    36    37   ar
    49    12    14   ar
    50    12    13   ar
