@<TRIPOS>MOLECULE
1v9z_HEM_A_1.pdb
 43 50 0 0 0
SMALL
GASTEIGER

@<TRIPOS>ATOM
      1  CHA       -3.6460  -17.4840  -12.4850 C.2   1140  HEM1140     0.0000
      2  CHB        0.2820  -20.2890  -13.2560 C.2   1140  HEM1140     0.0000
      3  CHC        2.7550  -16.4120  -14.7720 C.2   1140  HEM1140     0.0000
      4  CHD       -1.1220  -13.6030  -14.0480 C.2   1140  HEM1140     0.0000
      5  C1A       -2.7610  -18.6120  -12.5590 C.2   1140  HEM1140     0.0000
      6  C2A       -3.1350  -19.9740  -12.1500 C.2   1140  HEM1140     0.0000
      7  C3A       -2.0160  -20.7640  -12.3730 C.2   1140  HEM1140     0.0000
      8  C4A       -0.9950  -19.8880  -12.9040 C.2   1140  HEM1140     0.0000
      9  CMA       -1.8950  -22.2840  -12.1040 C.3   1140  HEM1140     0.0000
     10  CAA       -4.5180  -20.4120  -11.6290 C.3   1140  HEM1140     0.0000
     11  CBA       -4.4550  -21.0210  -10.2280 C.3   1140  HEM1140     0.0000
     12  CGA       -3.9720  -20.0580   -9.1600 C.2   1140  HEM1140     0.0000
     13  O1A       -3.0940  -20.4590   -8.3870 O.co2 1140  HEM1140     0.0000
     14  O2A       -4.4680  -18.9120   -9.1080 O.co2 1140  HEM1140     0.0000
     15  C1B        1.2840  -19.4830  -13.7440 C.ar  1140  HEM1140     0.0000
     16  C2B        2.5950  -19.9580  -14.0680 C.ar  1140  HEM1140     0.0000
     17  C3B        3.3540  -18.8840  -14.5140 C.ar  1140  HEM1140     0.0000
     18  C4B        2.4230  -17.7250  -14.4300 C.ar  1140  HEM1140     0.0000
     19  CMB        3.0290  -21.4410  -13.9180 C.3   1140  HEM1140     0.0000
     20  CAB        4.7200  -18.9480  -14.9410 C.3   1140  HEM1140     0.0000
     21  CBB        5.8480  -19.6640  -14.4460 C.3   1140  HEM1140     0.0000
     22  C1C        1.9030  -15.3120  -14.6960 C.2   1140  HEM1140     0.0000
     23  C2C        2.3470  -13.9610  -15.0570 C.2   1140  HEM1140     0.0000
     24  C3C        1.2330  -13.1390  -14.8540 C.2   1140  HEM1140     0.0000
     25  C4C        0.1630  -14.0260  -14.3740 C.2   1140  HEM1140     0.0000
     26  CMC        3.7700  -13.6000  -15.5530 C.3   1140  HEM1140     0.0000
     27  CAC        1.0720  -11.7210  -15.0430 C.3   1140  HEM1140     0.0000
     28  CBC        1.9790  -10.6510  -14.8440 C.3   1140  HEM1140     0.0000
     29  C1D       -2.1530  -14.4060  -13.5760 C.ar  1140  HEM1140     0.0000
     30  C2D       -3.4750  -13.9180  -13.2330 C.ar  1140  HEM1140     0.0000
     31  C3D       -4.1780  -15.0050  -12.7930 C.ar  1140  HEM1140     0.0000
     32  C4D       -3.2810  -16.1570  -12.8700 C.ar  1140  HEM1140     0.0000
     33  CMD       -3.9990  -12.4710  -13.3340 C.3   1140  HEM1140     0.0000
     34  CAD       -5.6170  -15.0210  -12.3010 C.3   1140  HEM1140     0.0000
     35  CBD       -5.5520  -14.5580  -10.8540 C.3   1140  HEM1140     0.0000
     36  CGD       -6.2730  -15.4670   -9.8900 C.2   1140  HEM1140     0.0000
     37  O1D       -7.1570  -14.9560   -9.1600 O.co2 1140  HEM1140     0.0000
     38  O2D       -5.9440  -16.6810   -9.8660 O.co2 1140  HEM1140     0.0000
     39  NA        -1.4560  -18.5820  -13.0150 N.2   1140  HEM1140     0.0000
     40  NB         1.1610  -18.0950  -13.9730 N.ar  1140  HEM1140     0.0000
     41  NC         0.5820  -15.3660  -14.2790 N.2   1140  HEM1140     0.0000
     42  ND        -2.0440  -15.7800  -13.3540 N.ar  1140  HEM1140     0.0000
     43 FE         -0.5060  -16.9780  -13.6800 Fe    1140  HEM1140     0.0000
@<TRIPOS>BOND
     1    26    23    1
     2    23    24    2
     3    23    22    1
     4    27    24    1
     5    27    28    1
     6    20    17    1
     7    20    21    1
     8    24    25    1
     9     3    22    2
    10     3    18    1
    11    22    41    1
    12    17    18   ar
    13    17    16   ar
    14    18    40   ar
    15    25    41    2
    16    25     4    1
    17    41    43    1
    18    16    19    1
    19    16    15   ar
    20     4    29    2
    21    40    15   ar
    22    40    43    1
    23    15     2    1
    24    43    42    1
    25    43    39    1
    26    29    42   ar
    27    29    30   ar
    28    42    32   ar
    29    33    30    1
    30     2     8    2
    31    30    31   ar
    32    39     8    1
    33    39     5    2
    34     8     7    1
    35    32    31   ar
    36    32     1    2
    37    31    34    1
    38     5     1    1
    39     5     6    1
    40     7     6    2
    41     7     9    1
    42    34    35    1
    43     6    10    1
    44    10    11    1
    45    35    36    1
    46    11    12    1
    47    36    38   ar
    48    36    37   ar
    49    12    14   ar
    50    12    13   ar
