@<TRIPOS>MOLECULE
1va6_ADP_A_1.pdb
 27 29 0 0 0
SMALL
GASTEIGER

@<TRIPOS>ATOM
      1  PB        32.6680   -0.9100    2.8150 P.3   521  ADP521      0.5373
      2  O1B       32.7450    0.0730    1.7770 O.2   521  ADP521     -0.2221
      3  O2B       33.0510   -2.2820    2.2520 O.3   521  ADP521     -0.1143
      4  O3B       31.1350   -0.9740    3.3370 O.3   521  ADP521     -0.1143
      5  PA        33.9340    0.8920    4.6190 P.3   521  ADP521      0.2231
      6  O1A       35.4110    1.1510    4.6860 O.3   521  ADP521     -0.4370
      7  O2A       33.2170    1.9830    3.8670 O.2   521  ADP521     -0.5169
      8  O3A       33.7080   -0.5660    3.9560 O.3   521  ADP521     -0.2261
      9  O5'       33.3120    0.8140    6.0860 O.3   521  ADP521     -0.3111
     10  C5'       33.7900   -0.1010    7.0260 C.3   521  ADP521      0.1813
     11  C4'       32.9450   -0.0480    8.2790 C.3   521  ADP521      0.1821
     12  O4'       32.9140   -1.1980    9.0470 O.3   521  ADP521     -0.3135
     13  C3'       33.5450    0.9870    9.1920 C.3   521  ADP521      0.2184
     14  O3'       32.5430    1.9830    9.3470 O.3   521  ADP521     -0.2174
     15  C2'       34.0330    0.3320   10.4330 C.3   521  ADP521      0.2570
     16  O2'       33.8660    1.1850   11.5160 O.3   521  ADP521     -0.2130
     17  C1'       33.2150   -0.9190   10.4050 C.3   521  ADP521      0.3186
     18  N9        33.9150   -2.0240   11.0910 N.pl3 521  ADP521     -0.1439
     19  C8        35.2090   -2.4110   10.8500 C.3   521  ADP521      0.3377
     20  N7        35.4870   -3.4430   11.6580 N.2   521  ADP521     -0.2095
     21  C5        34.3770   -3.6720   12.4440 C.2   521  ADP521      0.2526
     22  C6        34.1240   -4.6020   13.4030 C.2   521  ADP521      0.4393
     23  N6        35.1100   -5.3500   13.9190 N.pl3 521  ADP521      0.2180
     24  N1        32.8840   -4.6220   13.9950 N.2   521  ADP521      0.0021
     25  C2        31.9290   -3.7310   13.6160 C.3   521  ADP521      0.5254
     26  N3        32.1750   -2.8160   12.6460 N.2   521  ADP521     -0.0055
     27  C4        33.4010   -2.7820   12.0690 C.2   521  ADP521      0.3518
@<TRIPOS>BOND
     1     2     1    2
     2     3     1    1
     3     1     4    1
     4     1     8    1
     5     7     5    2
     6     8     5    1
     7     5     6    1
     8     5     9    1
     9     9    10    1
    10    10    11    1
    11    11    12    1
    12    11    13    1
    13    12    17    1
    14    13    14    1
    15    13    15    1
    16    17    15    1
    17    17    18    1
    18    15    16    1
    19    19    18    1
    20    19    20    1
    21    18    27    1
    22    20    21    2
    23    27    21    1
    24    27    26    2
    25    21    22    1
    26    26    25    1
    27    22    23    1
    28    22    24    2
    29    25    24    1
