@<TRIPOS>MOLECULE
1va6_P2S_A_1.pdb
 21 20 0 0 0
SMALL
GASTEIGER

@<TRIPOS>ATOM
      1  OP3       29.6530   -0.3710    0.8830 O.3   520  P2S520     -0.1237
      2  P         30.1620    0.4970   -0.3110 P.3   520  P2S520      0.4896
      3  OP1       31.0170    1.6600    0.2550 O.3   520  P2S520     -0.1237
      4  OP2       31.0760   -0.4290   -1.3490 O.2   520  P2S520     -0.2328
      5  NS        28.8640    1.2010   -1.0400 N.3   520  P2S520     -0.0523
      6  S         28.4340    0.6250   -2.4980 S.3   520  P2S520      0.0018
      7  OS        28.2540   -0.9410   -2.4140 O.3   520  P2S520     -0.1552
      8  CD        29.6760    0.9700   -3.7330 C.3   520  P2S520      0.0950
      9  CE        29.4930    0.4670   -5.0550 C.3   520  P2S520      0.1161
     10  C2        30.3690   -0.5930   -5.4240 C.2   520  P2S520      0.3652
     11  O2T       31.3920   -0.8970   -4.7020 O.co2 520  P2S520     -0.2456
     12  O2        30.0930   -1.3080   -6.4480 O.co2 520  P2S520     -0.2456
     13  CF        29.6510    1.4890   -6.0390 C.3   520  P2S520      0.0122
     14  CH        30.9940    1.8620   -6.0470 C.3   520  P2S520      0.0006
     15  CG        26.9890    1.4500   -2.8510 C.3   520  P2S520      0.0858
     16  CB        25.9010    1.2910   -1.9180 C.3   520  P2S520      0.0443
     17  CA        24.7200    1.8680   -2.4860 C.3   520  P2S520      0.1953
     18  N         24.8480    3.1910   -2.7730 N.3   520  P2S520     -0.1208
     19  C1        23.6170    1.7340   -1.5800 C.2   520  P2S520      0.3819
     20  O1        23.5690    0.7600   -0.7520 O.co2 520  P2S520     -0.2441
     21  O1T       22.6490    2.5730   -1.6300 O.co2 520  P2S520     -0.2441
@<TRIPOS>BOND
     1    12    10   ar
     2    14    13    1
     3    13     9    1
     4    10     9    1
     5    10    11   ar
     6     9     8    1
     7     8     6    1
     8    15     6    1
     9    15    16    1
    10    18    17    1
    11     6     7    1
    12     6     5    1
    13    17    16    1
    14    17    19    1
    15    21    19   ar
    16    19    20   ar
    17     4     2    2
    18     5     2    1
    19     2     3    1
    20     2     1    1
