@<TRIPOS>MOLECULE
1vaf_ARR_A_1.pdb
 25 27 0 0 0
SMALL
GASTEIGER

@<TRIPOS>ATOM
      1  S        -55.6370  133.7310   47.2360 S.2   902  ARR902     -0.0789
      2  C1       -55.0920  132.4130   46.8740 C.ar  902  ARR902      0.0357
      3  C2       -54.3960  132.4340   45.7450 C.ar  902  ARR902      0.0077
      4  C3       -54.4030  133.6720   45.2720 C.ar  902  ARR902      0.0147
      5  C4       -55.1240  134.4950   46.0880 C.ar  902  ARR902      0.1204
      6  C5       -55.3240  135.8640   45.9360 C.2   902  ARR902      0.4239
      7  N3       -55.8340  136.5740   46.9020 N.2   902  ARR902      0.1981
      8  N1       -55.1070  136.5210   44.7560 N.pl3 902  ARR902     -0.0016
      9  C6       -54.0590  136.3250   43.8650 C.ar  902  ARR902      0.1835
     10  C10      -52.9240  135.4780   44.1760 C.ar  902  ARR902      0.0441
     11  C11      -51.8780  135.2900   43.2420 C.ar  902  ARR902     -0.0006
     12  C9       -51.9220  135.9350   41.9800 C.ar  902  ARR902     -0.0205
     13  C8       -53.0440  136.7660   41.6800 C.ar  902  ARR902     -0.0006
     14  C7       -54.1120  136.9730   42.5950 C.ar  902  ARR902      0.0441
     15  C12      -50.8180  135.7400   40.9760 C.3   902  ARR902      0.0452
     16  C13      -50.2690  137.0690   40.4540 C.3   902  ARR902      0.0938
     17  N2       -48.9030  136.8790   40.0410 N.3   902  ARR902     -0.2129
     18  C14      -48.6390  137.3000   38.6810 C.3   902  ARR902      0.1150
     19  C15      -47.5020  136.5050   38.0610 C.ar  902  ARR902     -0.0040
     20  C20      -47.3610  135.0970   38.3220 C.ar  902  ARR902      0.0085
     21  C19      -46.2950  134.3520   37.7360 C.ar  902  ARR902      0.0574
     22  C18      -45.3580  135.0070   36.8830 C.ar  902  ARR902      0.0114
     23  C17      -45.4880  136.4030   36.6160 C.ar  902  ARR902      0.0006
     24  C16      -46.5500  137.1420   37.2010 C.ar  902  ARR902     -0.0028
     25 CL        -46.1380  132.6620   38.0590 Cl    902  ARR902     -0.0823
@<TRIPOS>BOND
     1    23    22   ar
     2    23    24   ar
     3    22    21   ar
     4    24    19   ar
     5    21    25    1
     6    21    20   ar
     7    19    20   ar
     8    19    18    1
     9    18    17    1
    10    17    16    1
    11    16    15    1
    12    15    12    1
    13    13    12   ar
    14    13    14   ar
    15    12    11   ar
    16    14     9   ar
    17    11    10   ar
    18     9    10   ar
    19     9     8    1
    20     8     6    1
    21     4     3   ar
    22     4     5   ar
    23     3     2   ar
    24     6     5    1
    25     6     7    2
    26     5     1   ar
    27     2     1   ar
