@<TRIPOS>MOLECULE
1vaf_H4B_A_1.pdb
 17 18 0 0 0
SMALL
GASTEIGER

@<TRIPOS>ATOM
      1  N1       -47.2790  144.1070   45.4330 N.2   901  H4B901     -0.2683
      2  C2       -48.2420  143.2020   45.1440 C.1   901  H4B901      0.2608
      3  N2       -49.0220  142.6910   46.0600 N.pl3 901  H4B901     -0.0220
      4  N3       -48.3840  142.8260   43.8500 N.2   901  H4B901     -0.2474
      5  C4       -47.6070  143.3000   42.7650 C.1   901  H4B901      0.2441
      6  O4       -47.8440  142.8760   41.6250 O.2   901  H4B901     -0.2063
      7  C4A      -46.6160  144.2400   43.1450 C.2   901  H4B901      0.2463
      8  C8A      -46.4530  144.6440   44.4640 C.1   901  H4B901      0.1270
      9  N5       -45.7450  144.8040   42.1020 N.2   901  H4B901     -0.2460
     10  N8       -45.5180  145.5390   44.8270 N.2   901  H4B901     -0.2054
     11  C6       -44.3830  145.2240   42.6460 C.3   901  H4B901      0.1627
     12  C7       -44.6060  146.1420   43.8270 C.3   901  H4B901      0.1643
     13  C9       -43.5990  145.8210   41.4620 C.3   901  H4B901      0.2063
     14  O9       -44.2630  146.9380   40.9010 O.3   901  H4B901     -0.2183
     15  C10      -42.1900  146.2860   41.8630 C.3   901  H4B901      0.1842
     16  C11      -41.4310  146.8460   40.7190 C.3   901  H4B901      0.0383
     17  O10      -41.5600  145.1310   42.4260 O.3   901  H4B901     -0.2204
@<TRIPOS>BOND
     1    16    15    1
     2    14    13    1
     3    13    15    1
     4    13    11    1
     5     6     5    2
     6    15    17    1
     7     9    11    1
     8     9     7    2
     9    11    12    1
    10     5     7    1
    11     5     4    2
    12     7     8    1
    13    12    10    1
    14     4     2    2
    15     8    10    2
    16     8     1    2
    17     2     1    2
    18     2     3    1
