@<TRIPOS>MOLECULE
1vaf_HEM_A_1.pdb
 43 50 0 0 0
SMALL
GASTEIGER

@<TRIPOS>ATOM
      1  CHA      -50.1300  136.5050   46.9450 C.2   900  HEM900      0.0000
      2  CHB      -53.8540  137.6860   49.6810 C.2   900  HEM900      0.0000
      3  CHC      -54.4460  133.0070   50.4570 C.2   900  HEM900      0.0000
      4  CHD      -50.2330  131.9860   48.4970 C.2   900  HEM900      0.0000
      5  C1A      -51.1510  137.2390   47.5340 C.2   900  HEM900      0.0000
      6  C2A      -51.5190  138.6160   47.2060 C.2   900  HEM900      0.0000
      7  C3A      -52.4890  138.9510   48.0750 C.2   900  HEM900      0.0000
      8  C4A      -52.7500  137.7950   48.8910 C.2   900  HEM900      0.0000
      9  CMA      -53.2080  140.2850   48.1370 C.3   900  HEM900      0.0000
     10  CAA      -51.0570  139.5610   46.1060 C.3   900  HEM900      0.0000
     11  CBA      -51.0270  139.0800   44.6640 C.3   900  HEM900      0.0000
     12  CGA      -50.7510  140.2050   43.6840 C.2   900  HEM900      0.0000
     13  O1A      -50.4990  139.9200   42.4920 O.co2 900  HEM900      0.0000
     14  O2A      -50.7910  141.3800   44.1060 O.co2 900  HEM900      0.0000
     15  C1B      -54.3100  136.5020   50.1690 C.ar  900  HEM900      0.0000
     16  C2B      -55.5520  136.3940   50.8720 C.ar  900  HEM900      0.0000
     17  C3B      -55.7190  135.0880   51.1150 C.ar  900  HEM900      0.0000
     18  C4B      -54.6000  134.3760   50.5290 C.ar  900  HEM900      0.0000
     19  CMB      -56.5110  137.5140   51.2440 C.3   900  HEM900      0.0000
     20  CAB      -56.8230  134.6050   51.7550 C.2   900  HEM900      0.0000
     21  CBB      -56.8890  133.4880   52.5460 C.2   900  HEM900      0.0000
     22  C1C      -53.4000  132.3240   49.9250 C.2   900  HEM900      0.0000
     23  C2C      -53.3480  130.8870   49.7810 C.2   900  HEM900      0.0000
     24  C3C      -52.1370  130.5500   49.2630 C.2   900  HEM900      0.0000
     25  C4C      -51.4880  131.8480   49.0560 C.2   900  HEM900      0.0000
     26  CMC      -54.4770  129.9350   50.1150 C.3   900  HEM900      0.0000
     27  CAC      -51.6010  129.2860   48.9500 C.3   900  HEM900      0.0000
     28  CBC      -51.8260  128.0820   49.5850 C.3   900  HEM900      0.0000
     29  C1D      -49.6980  133.1680   48.0580 C.ar  900  HEM900      0.0000
     30  C2D      -48.4980  133.2710   47.2090 C.ar  900  HEM900      0.0000
     31  C3D      -48.5340  134.5130   46.7170 C.ar  900  HEM900      0.0000
     32  C4D      -49.7300  135.1890   47.2470 C.ar  900  HEM900      0.0000
     33  CMD      -47.4120  132.2380   46.9130 C.3   900  HEM900      0.0000
     34  CAD      -47.4830  135.0700   45.8100 C.3   900  HEM900      0.0000
     35  CBD      -48.0150  135.1900   44.4070 C.3   900  HEM900      0.0000
     36  CGD      -46.9860  135.7410   43.4660 C.2   900  HEM900      0.0000
     37  O1D      -47.2940  135.9290   42.2780 O.co2 900  HEM900      0.0000
     38  O2D      -45.8590  135.9850   43.9190 O.co2 900  HEM900      0.0000
     39  NA       -51.9360  136.7320   48.5500 N.2   900  HEM900      0.0000
     40  NB       -53.7030  135.2560   49.9850 N.ar  900  HEM900      0.0000
     41  NC       -52.2950  132.9200   49.4230 N.2   900  HEM900      0.0000
     42  ND       -50.4040  134.3610   48.1290 N.ar  900  HEM900      0.0000
     43 FE        -51.9660  134.7980   49.2520 Fe    900  HEM900      0.0000
@<TRIPOS>BOND
     1    37    36   ar
     2    13    12   ar
     3    36    38   ar
     4    36    35    1
     5    12    14   ar
     6    12    11    1
     7    35    34    1
     8    11    10    1
     9    34    31    1
    10    10     6    1
    11    31    30   ar
    12    31    32   ar
    13    33    30    1
    14     1    32    2
    15     1     5    1
    16     6     5    1
    17     6     7    2
    18    30    29   ar
    19    32    42   ar
    20     5    39    2
    21    29    42   ar
    22    29     4    2
    23     7     9    1
    24     7     8    1
    25    42    43    1
    26     4    25    1
    27    39     8    1
    28    39    43    1
    29     8     2    2
    30    27    24    1
    31    27    28    1
    32    25    24    1
    33    25    41    2
    34    43    41    1
    35    43    40    1
    36    24    23    2
    37    41    22    1
    38     2    15    1
    39    23    22    1
    40    23    26    1
    41    22     3    2
    42    40    15   ar
    43    40    18   ar
    44    15    16   ar
    45     3    18    1
    46    18    17   ar
    47    16    17   ar
    48    16    19    1
    49    17    20    1
    50    20    21    2
