@<TRIPOS>MOLECULE
1vag_H4B_A_1.pdb
 17 18 0 0 0
SMALL
GASTEIGER

@<TRIPOS>ATOM
      1  N1         2.2410    3.3030   48.5670 N.2   901  H4B901     -0.2683
      2  C2         2.2210    2.8890   49.8710 C.1   901  H4B901      0.2608
      3  N2         1.1090    2.4840   50.4700 N.pl3 901  H4B901     -0.0220
      4  N3         3.4120    2.9040   50.5570 N.2   901  H4B901     -0.2474
      5  C4         4.6690    3.3200   50.0170 C.1   901  H4B901      0.2441
      6  O4         5.6860    3.2870   50.7360 O.2   901  H4B901     -0.2063
      7  C4A        4.5950    3.7340   48.6580 C.2   901  H4B901      0.2463
      8  C8A        3.3980    3.7270   47.9320 C.1   901  H4B901      0.1270
      9  N5         5.8320    4.1730   48.0160 N.2   901  H4B901     -0.2460
     10  N8         3.3290    4.1110   46.6350 N.2   901  H4B901     -0.2054
     11  C6         5.5820    5.1320   46.8550 C.3   901  H4B901      0.1627
     12  C7         4.5420    4.5550   45.9160 C.3   901  H4B901      0.1643
     13  C9         6.9850    5.4360   46.2890 C.3   901  H4B901      0.2063
     14  O9         7.6780    4.2520   45.9390 O.3   901  H4B901     -0.2183
     15  C10        6.9540    6.3700   45.0460 C.3   901  H4B901      0.1842
     16  C11        8.3080    6.6830   44.5270 C.3   901  H4B901      0.0383
     17  O10        6.2440    7.5440   45.4470 O.3   901  H4B901     -0.2204
@<TRIPOS>BOND
     1    16    15    1
     2    15    17    1
     3    15    13    1
     4    12    10    1
     5    12    11    1
     6    14    13    1
     7    13    11    1
     8    10     8    2
     9    11     9    1
    10     8     1    2
    11     8     7    1
    12     9     7    2
    13     1     2    2
    14     7     5    1
    15     2     3    1
    16     2     4    2
    17     5     4    2
    18     5     6    2
