@<TRIPOS>MOLECULE
1vag_HEM_A_1.pdb
 43 50 0 0 0
SMALL
GASTEIGER

@<TRIPOS>ATOM
      1  CHA       -1.1000    4.6330   55.8770 C.2   900  HEM900      0.0000
      2  CHB       -3.9770    0.8630   56.5160 C.2   900  HEM900      0.0000
      3  CHC       -5.5680    2.7130   60.6670 C.2   900  HEM900      0.0000
      4  CHD       -2.9560    6.7100   59.8710 C.2   900  HEM900      0.0000
      5  C1A       -1.6670    3.3760   55.7390 C.ar  900  HEM900      0.0000
      6  C2A       -1.1990    2.2970   54.8840 C.ar  900  HEM900      0.0000
      7  C3A       -2.0660    1.2920   54.9830 C.ar  900  HEM900      0.0000
      8  C4A       -3.0230    1.6990   55.9890 C.ar  900  HEM900      0.0000
      9  CMA       -2.0430    0.0080   54.1590 C.3   900  HEM900      0.0000
     10  CAA        0.0830    2.2170   54.0650 C.3   900  HEM900      0.0000
     11  CBA        1.2910    2.0740   54.9700 C.3   900  HEM900      0.0000
     12  CGA        2.5840    2.0430   54.2030 C.2   900  HEM900      0.0000
     13  O1A        3.6470    2.1890   54.8380 O.co2 900  HEM900      0.0000
     14  O2A        2.5400    1.8680   52.9690 O.co2 900  HEM900      0.0000
     15  C1B       -4.7730    1.0890   57.6170 C.2   900  HEM900      0.0000
     16  C2B       -5.6260    0.0790   58.1740 C.2   900  HEM900      0.0000
     17  C3B       -6.1370    0.5900   59.3600 C.2   900  HEM900      0.0000
     18  C4B       -5.5360    1.9320   59.5050 C.2   900  HEM900      0.0000
     19  CMB       -5.8800   -1.2630   57.4980 C.3   900  HEM900      0.0000
     20  CAB       -7.0160   -0.0820   60.2360 C.3   900  HEM900      0.0000
     21  CBB       -8.0410    0.4940   60.9820 C.3   900  HEM900      0.0000
     22  C1C       -4.8830    3.9030   60.8960 C.ar  900  HEM900      0.0000
     23  C2C       -4.9010    4.6660   62.1550 C.ar  900  HEM900      0.0000
     24  C3C       -4.2460    5.8710   61.8920 C.ar  900  HEM900      0.0000
     25  C4C       -3.7330    5.7580   60.5210 C.ar  900  HEM900      0.0000
     26  CMC       -5.4590    4.1760   63.4960 C.3   900  HEM900      0.0000
     27  CAC       -4.1060    7.0100   62.6830 C.3   900  HEM900      0.0000
     28  CBC       -4.9010    7.3290   63.7640 C.3   900  HEM900      0.0000
     29  C1D       -2.2910    6.5200   58.6620 C.2   900  HEM900      0.0000
     30  C2D       -1.3370    7.4580   58.1190 C.2   900  HEM900      0.0000
     31  C3D       -0.8040    6.8780   57.0060 C.2   900  HEM900      0.0000
     32  C4D       -1.4100    5.5710   56.8640 C.2   900  HEM900      0.0000
     33  CMD       -0.9120    8.7930   58.7450 C.3   900  HEM900      0.0000
     34  CAD        0.2400    7.5740   56.1580 C.3   900  HEM900      0.0000
     35  CBD        1.6640    7.1610   56.4760 C.3   900  HEM900      0.0000
     36  CGD        2.6840    8.0410   55.7750 C.2   900  HEM900      0.0000
     37  O1D        3.8860    7.6970   55.7970 O.co2 900  HEM900      0.0000
     38  O2D        2.2740    9.0770   55.2130 O.co2 900  HEM900      0.0000
     39  NA        -2.7620    2.9530   56.4640 N.ar  900  HEM900      0.0000
     40  NB        -4.7400    2.2290   58.4010 N.2   900  HEM900      0.0000
     41  NC        -4.1090    4.5470   59.9320 N.ar  900  HEM900      0.0000
     42  ND        -2.3610    5.3680   57.8750 N.2   900  HEM900      0.0000
     43 FE         -3.7110    3.9410   57.9890 Fe    900  HEM900      0.0000
@<TRIPOS>BOND
     1    14    12   ar
     2    10     6    1
     3    10    11    1
     4     9     7    1
     5    12    13   ar
     6    12    11    1
     7     6     7   ar
     8     6     5   ar
     9     7     8   ar
    10    38    36   ar
    11     5     1    2
    12     5    39   ar
    13    36    37   ar
    14    36    35    1
    15     1    32    1
    16     8    39   ar
    17     8     2    2
    18    34    35    1
    19    34    31    1
    20    39    43    1
    21     2    15    1
    22    32    31    1
    23    32    42    2
    24    31    30    2
    25    19    16    1
    26    15    16    1
    27    15    40    2
    28    42    43    1
    29    42    29    1
    30    43    40    1
    31    43    41    1
    32    30    29    1
    33    30    33    1
    34    16    17    2
    35    40    18    1
    36    29     4    2
    37    17    18    1
    38    17    20    1
    39    18     3    2
    40     4    25    1
    41    41    25   ar
    42    41    22   ar
    43    20    21    1
    44    25    24   ar
    45     3    22    1
    46    22    23   ar
    47    24    23   ar
    48    24    27    1
    49    23    26    1
    50    27    28    1
