@<TRIPOS>MOLECULE
1vag_ARR_A_1.pdb
 25 27 0 0 0
SMALL
GASTEIGER

@<TRIPOS>ATOM
      1  S         -2.4100    1.1540   60.8770 S.2   902  ARR902     -0.0789
      2  C1        -2.1840    1.9720   62.0790 C.ar  902  ARR902      0.0357
      3  C2        -0.9000    2.2190   62.3020 C.ar  902  ARR902      0.0077
      4  C3        -0.1900    1.6380   61.3460 C.ar  902  ARR902      0.0147
      5  C4        -1.0060    0.9780   60.4730 C.ar  902  ARR902      0.1204
      6  C5        -0.6260    0.2840   59.3280 C.2   902  ARR902      0.4239
      7  N3        -1.4780   -0.4670   58.6910 N.2   902  ARR902      0.1981
      8  N1         0.6630    0.2550   58.8690 N.pl3 902  ARR902     -0.0016
      9  C6         1.4970    1.3420   58.6370 C.ar  902  ARR902      0.1835
     10  C10        0.9890    2.6910   58.4810 C.ar  902  ARR902      0.0441
     11  C11        1.8660    3.7780   58.2550 C.ar  902  ARR902     -0.0006
     12  C9         3.2650    3.5620   58.1740 C.ar  902  ARR902     -0.0205
     13  C8         3.7580    2.2320   58.3310 C.ar  902  ARR902     -0.0006
     14  C7         2.9050    1.1190   58.5610 C.ar  902  ARR902      0.0441
     15  C12        4.2090    4.7110   57.9400 C.3   902  ARR902      0.0452
     16  C13        4.9230    4.6070   56.5900 C.3   902  ARR902      0.0938
     17  N2         5.8040    5.7350   56.4420 N.3   902  ARR902     -0.2129
     18  C14        6.5450    5.7380   55.1980 C.3   902  ARR902      0.1150
     19  C15        7.4030    6.9850   55.0610 C.ar  902  ARR902     -0.0040
     20  C20        8.2490    7.4180   56.1410 C.ar  902  ARR902      0.0085
     21  C19        9.0550    8.5870   56.0100 C.ar  902  ARR902      0.0574
     22  C18        9.0260    9.3370   54.7970 C.ar  902  ARR902      0.0114
     23  C17        8.1910    8.9170   53.7180 C.ar  902  ARR902      0.0006
     24  C16        7.3880    7.7520   53.8520 C.ar  902  ARR902     -0.0028
     25 CL         10.0650    9.0950   57.3160 Cl    902  ARR902     -0.0823
@<TRIPOS>BOND
     1    23    24   ar
     2    23    22   ar
     3    24    19   ar
     4    22    21   ar
     5    19    18    1
     6    19    20   ar
     7    18    17    1
     8    21    20   ar
     9    21    25    1
    10    17    16    1
    11    16    15    1
    12    15    12    1
    13    12    11   ar
    14    12    13   ar
    15    11    10   ar
    16    13    14   ar
    17    10     9   ar
    18    14     9   ar
    19     9     8    1
    20     7     6    2
    21     8     6    1
    22     6     5    1
    23     5     1   ar
    24     5     4   ar
    25     1     2   ar
    26     4     3   ar
    27     2     3   ar
