@<TRIPOS>MOLECULE
1vah_NPO_A_1.pdb
 10 10 0 0 0
SMALL
GASTEIGER

@<TRIPOS>ATOM
      1  C1        -3.1570   42.9070   19.0580 C.ar  701  NPO701      0.1431
      2  C2        -4.0620   41.9430   18.6450 C.ar  701  NPO701      0.0274
      3  C3        -5.3190   41.8760   19.2140 C.ar  701  NPO701      0.0437
      4  C4        -5.6730   42.7810   20.2040 C.ar  701  NPO701      0.1958
      5  C5        -4.7760   43.7540   20.6320 C.ar  701  NPO701      0.0437
      6  C6        -3.5150   43.8130   20.0520 C.ar  701  NPO701      0.0274
      7  OH        -6.8470   42.5800   20.8890 O.3   701  NPO701     -0.2866
      8  N1        -1.9440   42.9740   18.4870 N.pl3 701  NPO701      0.0577
      9  O2        -1.2780   44.2150   18.5780 O.2   701  NPO701     -0.1261
     10  O3        -1.6810   42.0330   17.4680 O.2   701  NPO701     -0.1261
@<TRIPOS>BOND
     1    10     8    2
     2     8     9    2
     3     8     1    1
     4     2     1   ar
     5     2     3   ar
     6     1     6   ar
     7     3     4   ar
     8     6     5   ar
     9     4     5   ar
    10     4     7    1
