@<TRIPOS>MOLECULE
1vai_III_C_1.pdb
 38 40 0 0 0
SMALL
GASTEIGER

@<TRIPOS>ATOM
      1  C          7.5320   33.6340   18.8230 C.2     1  ACE1        0.2423
      2  O          7.8730   34.2360   19.8500 O.2     1  ACE1       -0.2733
      3  CH3        7.9620   32.1830   18.5980 C.3     1  ACE1        0.0964
      4  N          6.7670   34.1900   17.8810 N.am    2  ALA2       -0.1978
      5  CA         7.5310   34.4800   16.6720 C.3     2  ALA2        0.1728
      6  C          6.8100   35.4760   15.7670 C.2     2  ALA2        0.2616
      7  O          5.7020   35.9310   16.0700 O.2     2  ALA2       -0.2715
      8  CB         7.7610   33.2170   15.9150 C.3     2  ALA2        0.0334
      9  N          7.4410   35.8000   14.6450 N.am    3  ALA3       -0.1964
     10  CA         6.8630   36.7320   13.6870 C.3     3  ALA3        0.1713
     11  C          7.7740   36.9490   12.4860 C.2     3  ALA3        0.2458
     12  O          8.6030   37.8590   12.4860 O.2     3  ALA3       -0.2730
     13  CB         6.5750   38.0680   14.3660 C.3     3  ALA3        0.0333
     14  N          7.6330   36.1100   11.4450 N.am    4  PRO4       -0.2716
     15  CA         8.4650   36.2530   10.2490 C.3     4  PRO4        0.1536
     16  C          8.3860   37.6770    9.7300 C.2     4  PRO4        0.2598
     17  O          7.3060   38.1760    9.4140 O.2     4  PRO4       -0.2715
     18  CB         7.8640   35.2510    9.2610 C.3     4  PRO4        0.0310
     19  CG         6.5220   34.8970    9.8210 C.3     4  PRO4        0.0237
     20  CD         6.6870   34.9920   11.3090 C.3     4  PRO4        0.0939
     21  N          9.5410   38.3260    9.6580 N.am    5  ALA5       -0.1964
     22  CA         9.6340   39.6980    9.1860 C.3     5  ALA5        0.1732
     23  C          9.5230   39.7370    7.6720 C.2     5  ALA5        0.2654
     24  O         10.1920   38.9660    6.9790 O.2     5  ALA5       -0.2711
     25  CB        10.9600   40.3090    9.6290 C.3     5  ALA5        0.0334
     26  N          8.6570   40.6570    7.2120 N.am    6  MCM6       -0.1777
     27  CA         8.5220   40.9990    5.7840 C.ar    6  MCM6        0.0765
     28  C2         9.7330   41.2140    5.0390 C.ar    6  MCM6        0.0542
     29  C3         9.6910   41.4240    3.6420 C.ar    6  MCM6        0.1497
     30  C4        11.0090   41.8110    1.4760 C.ar    6  MCM6        0.3456
     31  C5         9.7080   41.8050    0.6790 C.ar    6  MCM6        0.0781
     32  C6         8.3840   41.6220    1.5130 C.ar    6  MCM6       -0.0125
     33  C7         8.3870   41.4620    2.9580 C.ar    6  MCM6        0.0310
     34  C8         7.1760   41.3150    3.7510 C.ar    6  MCM6        0.0041
     35  C9         7.2420   41.1030    5.1580 C.ar    6  MCM6        0.0168
     36  C10        7.1150   41.5010    0.6700 C.3     6  MCM6        0.0313
     37  O1        10.9250   41.6150    2.8990 O.2     6  MCM6       -0.4210
     38  O2        12.0840   42.0280    0.9010 O.2     6  MCM6       -0.2445
@<TRIPOS>BOND
     1    36    32    1
     2    31    30   ar
     3    31    32   ar
     4    38    30    2
     5    30    37   ar
     6    32    33   ar
     7    37    29   ar
     8    33    29   ar
     9    33    34   ar
    10    29    28   ar
    11    34    35   ar
    12    28    27   ar
    13    35    27   ar
    14    27    26    1
    15    24    23    2
    16    26    23   am
    17    23    22    1
    18    22    25    1
    19    22    21    1
    20    18    19    1
    21    18    15    1
    22    17    16    2
    23    21    16   am
    24    16    15    1
    25    19    20    1
    26    15    14    1
    27    20    14    1
    28    14    11   am
    29    12    11    2
    30    11    10    1
    31    10    13    1
    32    10     9    1
    33     9     6   am
    34     6     7    2
    35     6     5    1
    36     8     5    1
    37     5     4    1
    38     4     1   am
    39     3     1    1
    40     1     2    2
