@<TRIPOS>MOLECULE
1vam_PNA_A_1.pdb
 21 22 0 0 0
SMALL
GASTEIGER

@<TRIPOS>ATOM
      1  C1        37.8120    5.5500   29.9590 C.3   240  PNA240      0.3218
      2  C2        37.9760    6.6790   30.9620 C.3   240  PNA240      0.2542
      3  C3        36.6000    7.1960   31.3110 C.3   240  PNA240      0.2211
      4  C4        35.9370    7.7000   30.0370 C.3   240  PNA240      0.2145
      5  C5        35.9050    6.6130   28.9670 C.3   240  PNA240      0.1846
      6  C6        35.3990    7.0980   27.6080 C.3   240  PNA240      0.2142
      7  C7        36.8110    3.3090   29.9180 C.ar  240  PNA240      0.1415
      8  C8        36.2550    2.2860   30.6650 C.ar  240  PNA240      0.0387
      9  C9        36.0700    1.0380   30.1280 C.ar  240  PNA240      0.0272
     10  C10       36.4390    0.7960   28.8140 C.ar  240  PNA240      0.1431
     11  C11       37.0030    1.8250   28.0560 C.ar  240  PNA240      0.0272
     12  C12       37.1800    3.0720   28.6070 C.ar  240  PNA240      0.0387
     13  N1        36.2660   -0.4400   28.2200 N.pl3 240  PNA240      0.0577
     14  O1        36.9910    4.5770   30.5450 O.3   240  PNA240     -0.4505
     15  O2        38.7380    7.7370   30.3870 O.3   240  PNA240     -0.2135
     16  O3        36.7250    8.2600   32.2350 O.3   240  PNA240     -0.2173
     17  O4        34.6210    8.1190   30.3350 O.3   240  PNA240     -0.2176
     18  O5        37.2290    6.0740   28.7720 O.3   240  PNA240     -0.3157
     19  O6        36.4000    7.8070   26.8750 O.3   240  PNA240     -0.2176
     20  O7        36.5780   -0.6220   27.0650 O.2   240  PNA240     -0.1261
     21  O8        35.7850   -1.3200   28.8890 O.2   240  PNA240     -0.1261
@<TRIPOS>BOND
     1    19     6    1
     2    20    13    2
     3     6     5    1
     4    11    12   ar
     5    11    10   ar
     6    13    10    1
     7    13    21    2
     8    12     7   ar
     9    18     5    1
    10    18     1    1
    11    10     9   ar
    12     5     4    1
    13     7    14    1
    14     7     8   ar
    15     1    14    1
    16     1     2    1
    17     4    17    1
    18     4     3    1
    19     9     8   ar
    20    15     2    1
    21     2     3    1
    22     3    16    1
