@<TRIPOS>MOLECULE
1vay_AZA_A_1.pdb
 11 12 0 0 0
SMALL
GASTEIGER

@<TRIPOS>ATOM
      1  N1        16.7520  123.1170  158.9540 N.2   1304  AZA1304    -0.2300
      2  C2        16.9890  121.8720  158.4200 C.1   1304  AZA1304     0.3745
      3  O2        16.1230  121.0250  158.3990 O.2   1304  AZA1304    -0.1738
      4  N3        18.2180  121.5890  157.9150 N.2   1304  AZA1304    -0.2491
      5  C4        19.1680  122.5120  157.9340 C.1   1304  AZA1304     0.1531
      6  C5        18.9570  123.7640  158.4590 C.2   1304  AZA1304     0.2717
      7  C6        17.6640  124.1430  159.0270 C.1   1304  AZA1304     0.2477
      8  O6        17.3460  125.2220  159.5280 O.2   1304  AZA1304    -0.2062
      9  N7        20.0870  124.4570  158.3370 N.2   1304  AZA1304    -0.1149
     10  N8        20.9280  123.5880  157.7420 N.pl3 1304  AZA1304    -0.0026
     11  N9        20.4030  122.3860  157.4790 N.2   1304  AZA1304    -0.0705
@<TRIPOS>BOND
     1    11    10    1
     2    11     5    2
     3    10     9    1
     4     4     5    2
     5     4     2    2
     6     5     6    1
     7     9     6    2
     8     3     2    2
     9     2     1    2
    10     6     7    1
    11     1     7    2
    12     7     8    2
