@<TRIPOS>MOLECULE
1vb3_KPA_A_1.pdb
 12 11 0 0 0
SMALL
GASTEIGER

@<TRIPOS>ATOM
      1  OA        -1.3150   50.6680   18.1490 O.2   500  KPA500     -0.2843
      2  CA        -1.4070   49.3970   18.1430 C.2   500  KPA500      0.2520
      3  C         -2.4530   48.8180   19.1400 C.2   500  KPA500      0.4219
      4  O         -2.5900   47.5910   19.1700 O.co2 500  KPA500     -0.2373
      5  OXT       -3.1000   49.5620   19.8700 O.co2 500  KPA500     -0.2373
      6  CB        -0.5580   48.7100   17.2390 C.3   500  KPA500      0.0767
      7  CG        -0.6520   47.4420   16.3420 C.3   500  KPA500      0.0160
      8  CP        -2.0980   47.0860   15.9780 C.3   500  KPA500      0.0594
      9  P         -2.6400   47.5860   14.3200 P.3   500  KPA500      0.1172
     10  O1        -2.2710   49.0320   14.0620 O.3   500  KPA500     -0.3571
     11  O2        -1.9330   46.6590   13.3600 O.2   500  KPA500     -0.4601
     12  O3        -4.1150   47.5010   14.2720 O.3   500  KPA500     -0.3571
@<TRIPOS>BOND
     1    11     9    2
     2    10     9    1
     3    12     9    1
     4     9     8    1
     5     8     7    1
     6     7     6    1
     7     6     2    1
     8     2     1    2
     9     2     3    1
    10     3     4   ar
    11     3     5   ar
