@<TRIPOS>MOLECULE
1vb6_HEM_A_1.pdb
 43 50 0 0 0
SMALL
GASTEIGER

@<TRIPOS>ATOM
      1  CHA       -3.4880  -18.1470  -11.8410 C.2   1140  HEM1140     0.0000
      2  CHB        0.4750  -20.8550  -12.6470 C.2   1140  HEM1140     0.0000
      3  CHC        2.8120  -16.9670  -14.3440 C.2   1140  HEM1140     0.0000
      4  CHD       -1.1200  -14.2310  -13.5490 C.2   1140  HEM1140     0.0000
      5  C1A       -2.5870  -19.2480  -11.9350 C.2   1140  HEM1140     0.0000
      6  C2A       -2.9320  -20.6000  -11.5060 C.2   1140  HEM1140     0.0000
      7  C3A       -1.8050  -21.3670  -11.7270 C.2   1140  HEM1140     0.0000
      8  C4A       -0.8020  -20.4810  -12.2830 C.2   1140  HEM1140     0.0000
      9  CMA       -1.6570  -22.8760  -11.4340 C.3   1140  HEM1140     0.0000
     10  CAA       -4.3270  -21.0630  -11.0460 C.3   1140  HEM1140     0.0000
     11  CBA       -4.3310  -21.5630   -9.6090 C.3   1140  HEM1140     0.0000
     12  CGA       -3.9500  -20.4990   -8.6050 C.2   1140  HEM1140     0.0000
     13  O1A       -2.9920  -20.7370   -7.8670 O.co2 1140  HEM1140     0.0000
     14  O2A       -4.6030  -19.4320   -8.5720 O.co2 1140  HEM1140     0.0000
     15  C1B        1.4520  -20.0340  -13.1730 C.ar  1140  HEM1140     0.0000
     16  C2B        2.7690  -20.4870  -13.5230 C.ar  1140  HEM1140     0.0000
     17  C3B        3.4870  -19.4110  -14.0270 C.ar  1140  HEM1140     0.0000
     18  C4B        2.5260  -18.2720  -13.9510 C.ar  1140  HEM1140     0.0000
     19  CMB        3.2480  -21.9540  -13.3370 C.3   1140  HEM1140     0.0000
     20  CAB        4.8480  -19.4580  -14.4940 C.3   1140  HEM1140     0.0000
     21  CBB        6.0230  -20.0970  -13.9920 C.3   1140  HEM1140     0.0000
     22  C1C        1.9310  -15.8890  -14.2700 C.2   1140  HEM1140     0.0000
     23  C2C        2.3220  -14.5390  -14.6880 C.2   1140  HEM1140     0.0000
     24  C3C        1.1940  -13.7390  -14.4650 C.2   1140  HEM1140     0.0000
     25  C4C        0.1670  -14.6340  -13.9180 C.2   1140  HEM1140     0.0000
     26  CMC        3.7170  -14.1580  -15.2460 C.3   1140  HEM1140     0.0000
     27  CAC        0.9950  -12.3330  -14.6850 C.3   1140  HEM1140     0.0000
     28  CBC        1.8910  -11.2480  -14.5390 C.3   1140  HEM1140     0.0000
     29  C1D       -2.1160  -15.0470  -13.0080 C.ar  1140  HEM1140     0.0000
     30  C2D       -3.4430  -14.5900  -12.6100 C.ar  1140  HEM1140     0.0000
     31  C3D       -4.0990  -15.6870  -12.1250 C.ar  1140  HEM1140     0.0000
     32  C4D       -3.1740  -16.8190  -12.2450 C.ar  1140  HEM1140     0.0000
     33  CMD       -4.0010  -13.1560  -12.6900 C.3   1140  HEM1140     0.0000
     34  CAD       -5.5250  -15.7400  -11.5620 C.3   1140  HEM1140     0.0000
     35  CBD       -5.3570  -15.7640  -10.0370 C.3   1140  HEM1140     0.0000
     36  CGD       -6.5850  -15.3490   -9.2330 C.2   1140  HEM1140     0.0000
     37  O1D       -6.4450  -15.2220   -7.9880 O.co2 1140  HEM1140     0.0000
     38  O2D       -7.6680  -15.1540   -9.8380 O.co2 1140  HEM1140     0.0000
     39  NA        -1.2920  -19.1940  -12.4110 N.2   1140  HEM1140     0.0000
     40  NB         1.2840  -18.6550  -13.4420 N.ar  1140  HEM1140     0.0000
     41  NC         0.6290  -15.9620  -13.8070 N.2   1140  HEM1140     0.0000
     42  ND        -1.9640  -16.4150  -12.7780 N.ar  1140  HEM1140     0.0000
     43 FE         -0.4020  -17.5720  -13.1230 Fe    1140  HEM1140     0.0000
@<TRIPOS>BOND
     1    26    23    1
     2    23    24    2
     3    23    22    1
     4    27    28    1
     5    27    24    1
     6    20    17    1
     7    20    21    1
     8    24    25    1
     9     3    22    2
    10     3    18    1
    11    22    41    1
    12    17    18   ar
    13    17    16   ar
    14    18    40   ar
    15    25    41    2
    16    25     4    1
    17    41    43    1
    18     4    29    2
    19    16    19    1
    20    16    15   ar
    21    40    15   ar
    22    40    43    1
    23    15     2    1
    24    43    42    1
    25    43    39    1
    26    29    42   ar
    27    29    30   ar
    28    42    32   ar
    29    33    30    1
    30     2     8    2
    31    30    31   ar
    32    39     8    1
    33    39     5    2
    34     8     7    1
    35    32    31   ar
    36    32     1    2
    37    31    34    1
    38     5     1    1
    39     5     6    1
    40     7     6    2
    41     7     9    1
    42    34    35    1
    43     6    10    1
    44    10    11    1
    45    35    36    1
    46    38    36   ar
    47    11    12    1
    48    36    37   ar
    49    12    14   ar
    50    12    13   ar
