@<TRIPOS>MOLECULE
1vb9_GLC_A_1.pdb
 11 11 0 0 0
SMALL
GASTEIGER

@<TRIPOS>ATOM
      1  C1        39.6530   57.0520   66.6800 C.3   701  GLC701      0.1777
      2  C2        39.7390   57.9660   67.9110 C.3   701  GLC701      0.2141
      3  C3        39.8370   59.4290   67.4670 C.3   701  GLC701      0.2173
      4  C4        41.0160   59.6110   66.5110 C.3   701  GLC701      0.2142
      5  C5        40.9060   58.6270   65.3390 C.3   701  GLC701      0.1810
      6  C6        42.1320   58.6580   64.4510 C.3   701  GLC701      0.2141
      7  O2        38.5870   57.7910   68.7220 O.3   701  GLC701     -0.2176
      8  O3        39.9980   60.2700   68.6010 O.3   701  GLC701     -0.2175
      9  O4        41.0180   60.9380   66.0130 O.3   701  GLC701     -0.2176
     10  O5        40.7770   57.2750   65.8280 O.3   701  GLC701     -0.3481
     11  O6        42.0130   57.7270   63.3830 O.3   701  GLC701     -0.2176
@<TRIPOS>BOND
     1    11     6    1
     2     6     5    1
     3     5    10    1
     4     5     4    1
     5    10     1    1
     6     9     4    1
     7     4     3    1
     8     1     2    1
     9     3     2    1
    10     3     8    1
    11     2     7    1
