@<TRIPOS>MOLECULE
1vba_J78_1_1.pdb
 28 30 0 0 0
SMALL
GASTEIGER

@<TRIPOS>ATOM
      1  C1        22.3400   66.4480  111.7130 C.3   500  J78500      0.0540
      2  C2        23.2140   65.2290  111.6990 C.ar  500  J78500      0.0810
      3  C3        24.1390   65.0920  110.6760 C.ar  500  J78500      0.0194
      4  C4        25.0000   64.0010  110.7000 C.ar  500  J78500      0.0374
      5  C5        24.8990   63.0750  111.7460 C.ar  500  J78500      0.1534
      6  N4        23.9300   63.2590  112.6720 N.ar  500  J78500     -0.1332
      7  N3        23.0950   64.3130  112.6510 N.ar  500  J78500     -0.1512
      8  N6        25.7420   62.0380  111.8080 N.pl3 500  J78500     -0.2919
      9  C7        26.7310   61.8160  110.7410 C.3   500  J78500      0.0922
     10  C8        27.8720   60.8970  111.0960 C.3   500  J78500      0.0215
     11  C9        27.5840   59.8070  112.0820 C.3   500  J78500      0.0035
     12  C10       26.8660   60.3380  113.2790 C.3   500  J78500      0.0215
     13  C11       25.6220   61.1480  112.9680 C.3   500  J78500      0.0922
     14  C12       28.8960   59.1730  112.4320 C.3   500  J78500      0.0039
     15  C13       28.6950   57.9470  113.2450 C.3   500  J78500      0.0473
     16  C14       28.1060   56.8350  112.4110 C.3   500  J78500      0.2054
     17  O15       27.4770   55.8640  113.2500 O.3   500  J78500     -0.4755
     18  C16       28.3290   55.1660  114.0290 C.ar  500  J78500      0.1386
     19  C17       28.1020   55.2020  115.4050 C.ar  500  J78500      0.0371
     20  C18       28.9000   54.4560  116.2510 C.ar  500  J78500      0.0096
     21  C19       29.9260   53.6650  115.7350 C.ar  500  J78500      0.0758
     22  C20       30.1290   53.6290  114.3510 C.ar  500  J78500      0.0096
     23  C21       29.3350   54.3870  113.4940 C.ar  500  J78500      0.0371
     24  C22       30.9660   53.3100  116.5920 C.2   500  J78500      0.3412
     25  O23       31.9010   52.6200  116.1540 O.2   500  J78500     -0.2449
     26  O24       30.9020   53.7270  117.9880 O.3   500  J78500     -0.4454
     27  C25       32.0590   53.7610  118.7580 C.3   500  J78500      0.2089
     28  C26       33.0820   52.6080  118.9420 C.3   500  J78500      0.0513
@<TRIPOS>BOND
     1     3     4   ar
     2     3     2   ar
     3     4     5   ar
     4     9    10    1
     5     9     8    1
     6    10    11    1
     7     2     1    1
     8     2     7   ar
     9     5     8    1
    10     5     6   ar
    11     8    13    1
    12    11    14    1
    13    11    12    1
    14    16    15    1
    15    16    17    1
    16    14    15    1
    17     7     6   ar
    18    13    12    1
    19    17    18    1
    20    23    18   ar
    21    23    22   ar
    22    18    19   ar
    23    22    21   ar
    24    19    20   ar
    25    21    20   ar
    26    21    24    1
    27    25    24    2
    28    24    26    1
    29    26    27    1
    30    27    28    1
