@<TRIPOS>MOLECULE
1vba_III_0_1.pdb
 30 29 0 0 0
SMALL
GASTEIGER

@<TRIPOS>ATOM
      1  N          7.0640   49.4040   87.1370 N.3     6  ILE6       -0.1231
      2  CA         7.0800   48.6660   88.4060 C.3     6  ILE6        0.1692
      3  C          7.9750   47.4170   88.4230 C.2     6  ILE6        0.2593
      4  O          8.3860   46.8930   87.3790 O.2     6  ILE6       -0.2718
      5  CB         5.6500   48.1940   88.8270 C.3     6  ILE6        0.0266
      6  CG1        5.1700   47.0230   87.9770 C.3     6  ILE6        0.0019
      7  CG2        4.7120   49.3880   88.7260 C.3     6  ILE6        0.0020
      8  CD1        4.2130   46.1130   88.7770 C.3     6  ILE6        0.0001
      9  N          8.2680   46.8840   89.6150 N.am    7  SER7       -0.1938
     10  CA         9.0540   45.6620   89.7570 C.3     7  SER7        0.2055
     11  C          8.5300   44.6990   90.8440 C.2     7  SER7        0.2643
     12  O          8.8380   44.7330   92.0370 O.2     7  SER7       -0.2714
     13  CB        10.5140   46.0430   90.0490 C.3     7  SER7        0.2130
     14  OG        11.3600   44.9430   90.3580 O.3     7  SER7       -0.2179
     15  N          7.6470   43.8180   90.4080 N.am    8  GLU8       -0.1963
     16  CA         7.0540   42.7610   91.2360 C.3     8  GLU8        0.1733
     17  C          7.9650   41.5400   91.4580 C.2     8  GLU8        0.2616
     18  O          8.1540   40.7280   90.5580 O.2     8  GLU8       -0.2715
     19  CB         5.7210   42.3940   90.5400 C.3     8  GLU8        0.0429
     20  CG         5.1090   40.9880   90.5820 C.3     8  GLU8        0.1163
     21  CD         4.8830   40.3340   91.9550 C.2     8  GLU8        0.3649
     22  OE1        3.8910   40.6550   92.6230 O.co2   8  GLU8       -0.2457
     23  OE2        5.6860   39.4930   92.3280 O.co2   8  GLU8       -0.2457
     24  N          8.5740   41.3720   92.6410 N.am    9  VAL9       -0.1977
     25  CA         9.4330   40.2010   92.9200 C.3     9  VAL9        0.1596
     26  C          8.7520   38.8300   92.9770 C.2     9  VAL9        0.2287
     27  O          8.0460   38.4710   93.9430 O.2     9  VAL9       -0.2864
     28  CB        10.2250   40.3420   94.2620 C.3     9  VAL9        0.0276
     29  CG1       11.4800   41.1760   94.0160 C.3     9  VAL9        0.0022
     30  CG2        9.3860   40.9960   95.3390 C.3     9  VAL9        0.0022
@<TRIPOS>BOND
     1     1     2    1
     2     4     3    2
     3     6     8    1
     4     6     5    1
     5     2     3    1
     6     2     5    1
     7     3     9   am
     8     7     5    1
     9     9    10    1
    10    10    13    1
    11    10    11    1
    12    13    14    1
    13    15    11   am
    14    15    16    1
    15    19    20    1
    16    19    16    1
    17    18    17    2
    18    20    21    1
    19    11    12    2
    20    16    17    1
    21    17    24   am
    22    21    23   ar
    23    21    22   ar
    24    24    25    1
    25    25    26    1
    26    25    28    1
    27    26    27    2
    28    29    28    1
    29    28    30    1
