@<TRIPOS>MOLECULE
1vbb_III_0_1.pdb
 30 29 0 0 0
SMALL
GASTEIGER

@<TRIPOS>ATOM
      1  N          6.5990   49.1950   87.1570 N.3     6  ILE6       -0.1231
      2  CA         6.8650   48.5230   88.4370 C.3     6  ILE6        0.1692
      3  C          7.9650   47.4630   88.3720 C.2     6  ILE6        0.2593
      4  O          8.4150   47.0130   87.3040 O.2     6  ILE6       -0.2718
      5  CB         5.5840   47.7900   89.0270 C.3     6  ILE6        0.0266
      6  CG1        5.2940   46.4610   88.3180 C.3     6  ILE6        0.0019
      7  CG2        4.3720   48.7310   88.8710 C.3     6  ILE6        0.0020
      8  CD1        4.1410   45.6450   88.9800 C.3     6  ILE6        0.0001
      9  N          8.4040   46.9930   89.5510 N.am    7  SER7       -0.1938
     10  CA         9.4040   45.9340   89.6580 C.3     7  SER7        0.2055
     11  C          8.8720   44.7710   90.5200 C.2     7  SER7        0.2643
     12  O          9.6250   44.1790   91.3120 O.2     7  SER7       -0.2714
     13  CB        10.6730   46.5240   90.2970 C.3     7  SER7        0.2130
     14  OG        11.7380   45.5750   90.5020 O.3     7  SER7       -0.2179
     15  N          7.5670   44.4440   90.4890 N.am    8  GLU8       -0.1963
     16  CA         6.9810   43.3230   91.2820 C.3     8  GLU8        0.1733
     17  C          7.8550   42.0600   91.4660 C.2     8  GLU8        0.2616
     18  O          7.9960   41.2630   90.5340 O.2     8  GLU8       -0.2715
     19  CB         5.6410   42.9920   90.5760 C.3     8  GLU8        0.0429
     20  CG         5.0520   41.5770   90.4340 C.3     8  GLU8        0.1163
     21  CD         4.6690   40.8560   91.7320 C.2     8  GLU8        0.3649
     22  OE1        5.5330   40.2700   92.3870 O.co2   8  GLU8       -0.2457
     23  OE2        3.4670   40.8620   92.0650 O.co2   8  GLU8       -0.2457
     24  N          8.4960   41.8120   92.6340 N.am    9  VAL9       -0.1977
     25  CA         9.4000   40.6520   92.7470 C.3     9  VAL9        0.1596
     26  C          8.7450   39.2790   92.6130 C.2     9  VAL9        0.2287
     27  O          7.9840   38.7960   93.4740 O.2     9  VAL9       -0.2864
     28  CB        10.1770   40.6470   94.1220 C.3     9  VAL9        0.0276
     29  CG1       11.1780   41.7890   94.0810 C.3     9  VAL9        0.0022
     30  CG2        9.2600   40.8140   95.3280 C.3     9  VAL9        0.0022
@<TRIPOS>BOND
     1     1     2    1
     2     4     3    2
     3     6     8    1
     4     6     5    1
     5     3     2    1
     6     3     9   am
     7     2     5    1
     8     7     5    1
     9     9    10    1
    10    10    13    1
    11    10    11    1
    12    13    14    1
    13    20    19    1
    14    20    21    1
    15    15    11   am
    16    15    16    1
    17    11    12    2
    18    18    17    2
    19    19    16    1
    20    16    17    1
    21    17    24   am
    22    21    23   ar
    23    21    22   ar
    24    26    25    1
    25    26    27    2
    26    24    25    1
    27    25    28    1
    28    29    28    1
    29    28    30    1
