@<TRIPOS>MOLECULE
1vbb_J80_1_1.pdb
 29 31 0 0 0
SMALL
GASTEIGER

@<TRIPOS>ATOM
      1  C1        22.1110   66.6860  111.7510 C.3   500  J80500      0.0540
      2  C2        22.9100   65.4210  111.8240 C.ar  500  J80500      0.0810
      3  C3        23.9450   65.3330  110.9460 C.ar  500  J80500      0.0194
      4  C4        24.7710   64.2180  111.0300 C.ar  500  J80500      0.0374
      5  C5        24.5190   63.2290  111.9780 C.ar  500  J80500      0.1534
      6  N4        23.4680   63.4000  112.8080 N.ar  500  J80500     -0.1332
      7  N3        22.6650   64.4760  112.7400 N.ar  500  J80500     -0.1512
      8  N6        25.4270   62.2480  112.0840 N.pl3 500  J80500     -0.2919
      9  C7        25.3450   61.3670  113.2480 C.3   500  J80500      0.0922
     10  C8        26.3560   60.2290  113.2230 C.3   500  J80500      0.0215
     11  C9        27.6910   60.6220  112.6660 C.3   500  J80500      0.0034
     12  C10       27.5570   61.0590  111.2570 C.3   500  J80500      0.0215
     13  C11       26.4620   62.0950  111.0280 C.3   500  J80500      0.0922
     14  C12       28.7210   59.5410  112.8730 C.3   500  J80500      0.0002
     15  C13       28.4970   58.3480  111.9880 C.3   500  J80500      0.0038
     16  C14       29.1900   57.1330  112.5390 C.3   500  J80500      0.0473
     17  C15       28.3090   56.5560  113.6130 C.3   500  J80500      0.2054
     18  O16       28.3210   55.1300  113.5130 O.3   500  J80500     -0.4755
     19  C17       29.0910   54.4670  114.4210 C.ar  500  J80500      0.1386
     20  C18       29.1590   54.8490  115.7520 C.ar  500  J80500      0.0371
     21  C19       30.1090   54.2590  116.5780 C.ar  500  J80500      0.0096
     22  C20       30.9910   53.2990  116.0890 C.ar  500  J80500      0.0758
     23  C21       30.9050   52.9110  114.7560 C.ar  500  J80500      0.0096
     24  C22       29.9440   53.5060  113.9250 C.ar  500  J80500      0.0371
     25  C23       31.9890   52.8010  116.9060 C.2   500  J80500      0.3412
     26  O24       32.9570   52.1880  116.4360 O.2   500  J80500     -0.2449
     27  O25       31.8050   52.9940  118.3340 O.3   500  J80500     -0.4454
     28  C26       32.9150   53.1550  119.1470 C.3   500  J80500      0.2089
     29  C27       33.5980   54.5320  119.3980 C.3   500  J80500      0.0513
@<TRIPOS>BOND
     1     3     4   ar
     2     3     2   ar
     3    13    12    1
     4    13     8    1
     5     4     5   ar
     6    12    11    1
     7     1     2    1
     8     2     7   ar
     9     5     8    1
    10     5     6   ar
    11    15    16    1
    12    15    14    1
    13     8     9    1
    14    16    17    1
    15    11    14    1
    16    11    10    1
    17     7     6   ar
    18    10     9    1
    19    18    17    1
    20    18    19    1
    21    24    19   ar
    22    24    23   ar
    23    19    20   ar
    24    23    22   ar
    25    20    21   ar
    26    22    21   ar
    27    22    25    1
    28    26    25    2
    29    25    27    1
    30    27    28    1
    31    28    29    1
