@<TRIPOS>MOLECULE
1vbc_J77_1_1.pdb
 27 29 0 0 0
SMALL
GASTEIGER

@<TRIPOS>ATOM
      1  C1        22.6580   65.6670  111.7900 C.3   500  J77500      0.0540
      2  C2        23.6690   64.5330  111.8160 C.ar  500  J77500      0.0810
      3  C3        24.5120   64.3080  110.7500 C.ar  500  J77500      0.0194
      4  C4        25.4570   63.2880  110.8540 C.ar  500  J77500      0.0377
      5  C5        25.5490   62.5400  112.0180 C.ar  500  J77500      0.1572
      6  N4        24.6860   62.8340  113.0040 N.ar  500  J77500     -0.1329
      7  N3        23.7690   63.8110  112.9240 N.ar  500  J77500     -0.1512
      8  N6        26.4950   61.5970  112.1770 N.pl3 500  J77500     -0.2702
      9  C7        26.5170   60.8940  113.4790 C.3   500  J77500      0.0974
     10  C8        27.1620   59.5290  113.4520 C.3   500  J77500      0.0263
     11  C9        28.5010   59.5020  112.7880 C.3   500  J77500      0.0288
     12  C10       28.5200   60.1730  111.4360 C.2   500  J77500     -0.0102
     13  C11       27.4800   61.2770  111.1240 C.2   500  J77500      0.0618
     14  C12       29.1940   58.1620  112.8610 C.3   500  J77500      0.0518
     15  C13       28.3760   56.8920  112.6110 C.3   500  J77500      0.2057
     16  O14       27.8870   56.3480  113.8560 O.3   500  J77500     -0.4755
     17  C15       28.6330   55.3220  114.3490 C.ar  500  J77500      0.1386
     18  C16       29.0600   55.3490  115.6820 C.ar  500  J77500      0.0371
     19  C17       29.8410   54.3050  116.2010 C.ar  500  J77500      0.0096
     20  C18       30.1990   53.2290  115.3950 C.ar  500  J77500      0.0758
     21  C19       29.7580   53.2040  114.0730 C.ar  500  J77500      0.0096
     22  C20       28.9880   54.2400  113.5470 C.ar  500  J77500      0.0371
     23  C21       31.2200   52.3610  115.7440 C.2   500  J77500      0.3412
     24  O22       31.3320   51.2800  115.1550 O.2   500  J77500     -0.2449
     25  O23       32.1200   52.7200  116.7860 O.3   500  J77500     -0.4454
     26  C24       33.2640   51.9460  117.0020 C.3   500  J77500      0.2089
     27  C25       34.6100   52.1180  116.2530 C.3   500  J77500      0.0513
@<TRIPOS>BOND
     1     3     4   ar
     2     3     2   ar
     3     4     5   ar
     4    13    12    2
     5    13     8    1
     6    12    11    1
     7     1     2    1
     8     2     7   ar
     9     5     8    1
    10     5     6   ar
    11     8     9    1
    12    15    14    1
    13    15    16    1
    14    11    14    1
    15    11    10    1
    16     7     6   ar
    17    10     9    1
    18    22    21   ar
    19    22    17   ar
    20    16    17    1
    21    21    20   ar
    22    17    18   ar
    23    24    23    2
    24    20    23    1
    25    20    19   ar
    26    18    19   ar
    27    23    25    1
    28    27    26    1
    29    25    26    1
