@<TRIPOS>MOLECULE
1vbc_III_0_1.pdb
 30 29 0 0 0
SMALL
GASTEIGER

@<TRIPOS>ATOM
      1  N          6.9060   49.1080   87.3340 N.3     6  ILE6       -0.1231
      2  CA         6.9460   48.4610   88.6440 C.3     6  ILE6        0.1692
      3  C          7.9370   47.2910   88.7130 C.2     6  ILE6        0.2593
      4  O          8.6210   46.9720   87.7320 O.2     6  ILE6       -0.2718
      5  CB         5.5150   47.9110   89.0710 C.3     6  ILE6        0.0266
      6  CG1        5.1040   46.6750   88.3010 C.3     6  ILE6        0.0019
      7  CG2        4.4710   48.9970   88.8160 C.3     6  ILE6        0.0020
      8  CD1        4.0830   45.8460   89.1090 C.3     6  ILE6        0.0001
      9  N          8.0770   46.5980   89.8340 N.am    7  SER7       -0.1938
     10  CA         8.9340   45.4160   89.9370 C.3     7  SER7        0.2055
     11  C          8.3810   44.4500   91.0010 C.2     7  SER7        0.2643
     12  O          8.4340   44.6570   92.2180 O.2     7  SER7       -0.2714
     13  CB        10.3680   45.8850   90.2900 C.3     7  SER7        0.2130
     14  OG        11.3670   44.8570   90.2740 O.3     7  SER7       -0.2179
     15  N          7.7580   43.3860   90.4920 N.am    8  GLU8       -0.1963
     16  CA         7.0370   42.4010   91.3160 C.3     8  GLU8        0.1733
     17  C          7.7710   41.1220   91.7150 C.2     8  GLU8        0.2616
     18  O          7.9300   40.2390   90.8600 O.2     8  GLU8       -0.2715
     19  CB         5.7300   42.1260   90.5460 C.3     8  GLU8        0.0429
     20  CG         4.9260   40.8340   90.7140 C.3     8  GLU8        0.1163
     21  CD         4.4210   40.5020   92.0950 C.2     8  GLU8        0.3649
     22  OE1        3.4220   41.0770   92.5220 O.co2   8  GLU8       -0.2457
     23  OE2        5.0200   39.6500   92.7440 O.co2   8  GLU8       -0.2457
     24  N          8.2250   40.9150   92.9590 N.am    9  VAL9       -0.1977
     25  CA         8.9350   39.6550   93.2650 C.3     9  VAL9        0.1596
     26  C          8.1360   38.5050   93.8880 C.2     9  VAL9        0.2287
     27  O          7.3990   38.6540   94.8690 O.2     9  VAL9       -0.2864
     28  CB        10.2030   39.9400   94.1700 C.3     9  VAL9        0.0276
     29  CG1       11.0260   41.0330   93.4660 C.3     9  VAL9        0.0022
     30  CG2        9.8560   40.3870   95.5850 C.3     9  VAL9        0.0022
@<TRIPOS>BOND
     1     1     2    1
     2     4     3    2
     3     6     5    1
     4     6     8    1
     5     2     3    1
     6     2     5    1
     7     3     9   am
     8     7     5    1
     9     9    10    1
    10    10    13    1
    11    10    11    1
    12    14    13    1
    13    15    11   am
    14    15    16    1
    15    19    20    1
    16    19    16    1
    17    20    21    1
    18    18    17    2
    19    11    12    2
    20    16    17    1
    21    17    24   am
    22    21    22   ar
    23    21    23   ar
    24    24    25    1
    25    25    26    1
    26    25    28    1
    27    29    28    1
    28    26    27    2
    29    28    30    1
