@<TRIPOS>MOLECULE
1vbd_III_0_1.pdb
 29 28 0 0 0
SMALL
GASTEIGER

@<TRIPOS>ATOM
      1  N          7.3340   50.5200   83.9640 N.3     6  GLY6       -0.1210
      2  CA         6.4690   50.6860   85.1240 C.3     6  GLY6        0.1956
      3  C          7.0580   50.2110   86.4670 C.2     6  GLY6        0.2613
      4  O          8.1330   50.6120   86.9320 O.2     6  GLY6       -0.2717
      5  N          6.3070   49.3450   87.1400 N.am    7  SER7       -0.1938
      6  CA         6.6700   48.8290   88.4480 C.3     7  SER7        0.2055
      7  C          7.1140   47.3520   88.5530 C.2     7  SER7        0.2644
      8  O          6.2990   46.4270   88.4790 O.2     7  SER7       -0.2714
      9  CB         5.4970   49.0360   89.3830 C.3     7  SER7        0.2130
     10  OG         4.3430   48.2790   89.0010 O.3     7  SER7       -0.2179
     11  N          8.4050   47.1140   88.7510 N.am    8  SER8       -0.1935
     12  CA         8.9490   45.7620   88.9760 C.3     8  SER8        0.2055
     13  C          8.4570   45.0410   90.2480 C.2     8  SER8        0.2644
     14  O          8.7920   45.3970   91.3710 O.2     8  SER8       -0.2714
     15  CB        10.4780   45.8080   89.0430 C.3     8  SER8        0.2130
     16  OG        11.1150   44.6460   89.5660 O.3     8  SER8       -0.2179
     17  N          7.5540   44.0880   90.0540 N.am    9  SER9       -0.1935
     18  CA         7.0280   43.2250   91.1140 C.3     9  SER9        0.2055
     19  C          8.0900   42.4660   91.9230 C.2     9  SER9        0.2643
     20  O          8.7960   43.1370   92.6730 O.2     9  SER9       -0.2714
     21  CB         6.0210   42.2380   90.4510 C.3     9  SER9        0.2130
     22  OG         5.6550   41.0930   91.2110 O.3     9  SER9       -0.2179
     23  N          8.2460   41.1420   91.8830 N.am   10  THR10      -0.1950
     24  CA         9.2890   40.3590   92.5720 C.3    10  THR10       0.1897
     25  C          8.9580   38.8760   92.4680 C.2    10  THR10       0.2313
     26  O          7.8370   38.4510   92.7660 O.2    10  THR10      -0.2863
     27  CB         9.4670   40.6460   94.1070 C.3    10  THR10       0.1794
     28  OG1       10.4960   41.6060   94.1040 O.3    10  THR10      -0.2208
     29  CG2        9.9580   39.5410   95.0380 C.3    10  THR10       0.0378
@<TRIPOS>BOND
     1     1     2    1
     2     2     3    1
     3     3     4    2
     4     3     5   am
     5     5     6    1
     6     6     7    1
     7     6     9    1
     8     8     7    2
     9     7    11   am
    10    11    12    1
    11    12    15    1
    12    12    13    1
    13    10     9    1
    14    15    16    1
    15    17    13   am
    16    17    18    1
    17    13    14    2
    18    21    18    1
    19    21    22    1
    20    18    19    1
    21    23    19   am
    22    23    24    1
    23    19    20    2
    24    25    24    1
    25    25    26    2
    26    24    27    1
    27    28    27    1
    28    27    29    1
