@<TRIPOS>MOLECULE
1vbd_J78_1_1.pdb
 28 30 0 0 0
SMALL
GASTEIGER

@<TRIPOS>ATOM
      1  C1        22.1960   66.6830  111.8900 C.3   500  J78500      0.0540
      2  C2        23.1180   65.4900  111.7840 C.ar  500  J78500      0.0810
      3  C3        23.8380   65.2710  110.6370 C.ar  500  J78500      0.0194
      4  C4        24.6910   64.1780  110.5990 C.ar  500  J78500      0.0374
      5  C5        24.7980   63.3540  111.7090 C.ar  500  J78500      0.1534
      6  N4        24.0450   63.6400  112.7830 N.ar  500  J78500     -0.1332
      7  N3        23.2130   64.6900  112.8360 N.ar  500  J78500     -0.1512
      8  N6        25.6770   62.3330  111.7320 N.pl3 500  J78500     -0.2919
      9  C7        25.8740   61.6320  113.0070 C.3   500  J78500      0.0922
     10  C8        26.5080   60.2750  112.8410 C.3   500  J78500      0.0215
     11  C9        27.7780   60.3530  112.0310 C.3   500  J78500      0.0035
     12  C10       27.6670   61.1180  110.7390 C.3   500  J78500      0.0215
     13  C11       26.4180   61.9640  110.5130 C.3   500  J78500      0.0922
     14  C12       28.3600   58.9920  111.7900 C.3   500  J78500      0.0039
     15  C13       28.9070   58.4710  113.0720 C.3   500  J78500      0.0473
     16  C14       29.4050   57.0650  112.8720 C.3   500  J78500      0.2054
     17  O15       28.3860   56.1540  113.2050 O.3   500  J78500     -0.4755
     18  C16       28.8370   55.1640  114.0240 C.ar  500  J78500      0.1386
     19  C17       29.7410   54.2350  113.5530 C.ar  500  J78500      0.0371
     20  C18       30.4690   53.4690  114.4490 C.ar  500  J78500      0.0096
     21  C19       30.2930   53.6320  115.8140 C.ar  500  J78500      0.0758
     22  C20       29.3640   54.5540  116.2830 C.ar  500  J78500      0.0096
     23  C21       28.6360   55.3250  115.3930 C.ar  500  J78500      0.0371
     24  C22       31.0930   52.9540  116.7100 C.2   500  J78500      0.3412
     25  O23       31.9550   52.1560  116.3210 O.2   500  J78500     -0.2449
     26  O24       30.8890   53.2000  118.1320 O.3   500  J78500     -0.4454
     27  C25       31.8830   53.8550  118.8410 C.3   500  J78500      0.2089
     28  C26       33.3670   53.4220  118.9820 C.3   500  J78500      0.0513
@<TRIPOS>BOND
     1    13    12    1
     2    13     8    1
     3     4     3   ar
     4     4     5   ar
     5     3     2   ar
     6    12    11    1
     7     5     8    1
     8     5     6   ar
     9     8     9    1
    10     2     1    1
    11     2     7   ar
    12    14    11    1
    13    14    15    1
    14    11    10    1
    15     6     7   ar
    16    10     9    1
    17    16    15    1
    18    16    17    1
    19    17    18    1
    20    19    18   ar
    21    19    20   ar
    22    18    23   ar
    23    20    21   ar
    24    23    22   ar
    25    21    22   ar
    26    21    24    1
    27    25    24    2
    28    24    26    1
    29    26    27    1
    30    27    28    1
