@<TRIPOS>MOLECULE
1vbe_J78_1_1.pdb
 28 30 0 0 0
SMALL
GASTEIGER

@<TRIPOS>ATOM
      1  C1        22.3890   66.5990  111.6640 C.3   500  J78500      0.0540
      2  C2        23.2730   65.3750  111.6660 C.ar  500  J78500      0.0810
      3  C3        24.0620   65.1100  110.5630 C.ar  500  J78500      0.0194
      4  C4        24.8780   64.0000  110.5980 C.ar  500  J78500      0.0377
      5  C5        24.8910   63.1900  111.7290 C.ar  500  J78500      0.1572
      6  N4        24.0680   63.5180  112.7420 N.ar  500  J78500     -0.1329
      7  N3        23.2670   64.5950  112.7280 N.ar  500  J78500     -0.1512
      8  N6        25.7150   62.1360  111.8260 N.pl3 500  J78500     -0.2702
      9  C7        26.5920   61.7770  110.7110 C.3   500  J78500      0.0974
     10  C8        27.7990   60.9910  111.1240 C.3   500  J78500      0.0262
     11  C9        27.5370   59.8270  112.0510 C.3   500  J78500      0.0252
     12  C10       26.6130   60.1630  113.1990 C.2   500  J78500     -0.0103
     13  C11       25.6980   61.3890  113.1030 C.2   500  J78500      0.0618
     14  C12       28.8920   59.3910  112.5400 C.3   500  J78500      0.0083
     15  C13       28.8850   58.1290  113.3490 C.3   500  J78500      0.0477
     16  C14       28.5760   56.9610  112.4680 C.3   500  J78500      0.2054
     17  O15       27.6460   56.1370  113.1660 O.3   500  J78500     -0.4755
     18  C16       28.1960   55.1460  113.9260 C.ar  500  J78500      0.1386
     19  C17       29.1600   54.2950  113.3840 C.ar  500  J78500      0.0371
     20  C18       30.0030   53.5980  114.2240 C.ar  500  J78500      0.0096
     21  C19       29.9070   53.7470  115.6020 C.ar  500  J78500      0.0758
     22  C20       28.9470   54.5900  116.1370 C.ar  500  J78500      0.0096
     23  C21       28.0930   55.2970  115.3080 C.ar  500  J78500      0.0371
     24  C22       30.8000   53.1120  116.4400 C.2   500  J78500      0.3412
     25  O23       31.5400   52.2140  116.0300 O.2   500  J78500     -0.2449
     26  O24       30.8350   53.5400  117.8290 O.3   500  J78500     -0.4454
     27  C25       32.0720   53.7330  118.4370 C.3   500  J78500      0.2089
     28  C26       33.1580   52.6590  118.6510 C.3   500  J78500      0.0513
@<TRIPOS>BOND
     1     3     4   ar
     2     3     2   ar
     3     4     5   ar
     4     9    10    1
     5     9     8    1
     6    10    11    1
     7     1     2    1
     8     2     7   ar
     9     5     8    1
    10     5     6   ar
    11     8    13    1
    12    11    14    1
    13    11    12    1
    14    16    17    1
    15    16    15    1
    16    14    15    1
    17     7     6   ar
    18    13    12    2
    19    17    18    1
    20    19    18   ar
    21    19    20   ar
    22    18    23   ar
    23    20    21   ar
    24    23    22   ar
    25    21    22   ar
    26    21    24    1
    27    25    24    2
    28    24    26    1
    29    26    27    1
    30    27    28    1
