@<TRIPOS>MOLECULE
1vbe_III_0_1.pdb
 30 29 0 0 0
SMALL
GASTEIGER

@<TRIPOS>ATOM
      1  N          6.9140   49.1090   87.3840 N.3     6  ILE6       -0.1231
      2  CA         7.0170   48.3430   88.6350 C.3     6  ILE6        0.1692
      3  C          7.9900   47.1510   88.5660 C.2     6  ILE6        0.2593
      4  O          8.3900   46.6720   87.4920 O.2     6  ILE6       -0.2718
      5  CB         5.6240   47.7530   89.1110 C.3     6  ILE6        0.0266
      6  CG1        5.2230   46.4810   88.3600 C.3     6  ILE6        0.0019
      7  CG2        4.5610   48.8490   88.8990 C.3     6  ILE6        0.0020
      8  CD1        4.0920   45.6890   89.0730 C.3     6  ILE6        0.0001
      9  N          8.4170   46.6730   89.7330 N.am    7  SER7       -0.1938
     10  CA         9.2520   45.4860   89.8460 C.3     7  SER7        0.2055
     11  C          8.6030   44.5830   90.9100 C.2     7  SER7        0.2643
     12  O          8.7400   44.7350   92.1290 O.2     7  SER7       -0.2714
     13  CB        10.6670   45.8880   90.2610 C.3     7  SER7        0.2130
     14  OG        11.5080   44.7520   90.4820 O.3     7  SER7       -0.2179
     15  N          7.7190   43.7180   90.4270 N.am    8  GLU8       -0.1963
     16  CA         7.0300   42.7740   91.3160 C.3     8  GLU8        0.1733
     17  C          7.9160   41.5710   91.6820 C.2     8  GLU8        0.2616
     18  O          8.1560   40.6920   90.8420 O.2     8  GLU8       -0.2715
     19  CB         5.7100   42.3470   90.6010 C.3     8  GLU8        0.0429
     20  CG         5.1320   40.9210   90.7120 C.3     8  GLU8        0.1163
     21  CD         4.9720   40.3260   92.1180 C.2     8  GLU8        0.3649
     22  OE1        4.1530   40.8330   92.8960 O.co2   8  GLU8       -0.2457
     23  OE2        5.6690   39.3590   92.4390 O.co2   8  GLU8       -0.2457
     24  N          8.4320   41.4870   92.9140 N.am    9  VAL9       -0.1977
     25  CA         9.2650   40.3350   93.2660 C.3     9  VAL9        0.1596
     26  C          8.6020   39.1570   94.0070 C.2     9  VAL9        0.2287
     27  O          7.9200   39.2350   95.0450 O.2     9  VAL9       -0.2864
     28  CB        10.4970   40.8360   94.0890 C.3     9  VAL9        0.0276
     29  CG1       11.1940   41.9130   93.2430 C.3     9  VAL9        0.0022
     30  CG2       10.1140   41.3370   95.4850 C.3     9  VAL9        0.0022
@<TRIPOS>BOND
     1     1     2    1
     2     4     3    2
     3     6     8    1
     4     6     5    1
     5     3     2    1
     6     3     9   am
     7     2     5    1
     8     7     5    1
     9     9    10    1
    10    10    13    1
    11    10    11    1
    12    13    14    1
    13    15    11   am
    14    15    16    1
    15    19    20    1
    16    19    16    1
    17    20    21    1
    18    18    17    2
    19    11    12    2
    20    16    17    1
    21    17    24   am
    22    21    23   ar
    23    21    22   ar
    24    24    25    1
    25    29    28    1
    26    25    26    1
    27    25    28    1
    28    26    27    2
    29    28    30    1
