@<TRIPOS>MOLECULE
1vbh_PEP_A_1.pdb
 10 9 0 0 0
SMALL
GASTEIGER

@<TRIPOS>ATOM
      1  C1        12.7730   44.7770    0.8690 C.2   3000  PEP3000     0.4216
      2  O1        12.7920   43.8190    1.6880 O.co2 3000  PEP3000    -0.2371
      3  O2'       11.7300   45.2110    0.5800 O.co2 3000  PEP3000    -0.2371
      4  C2        14.1730   45.2720    0.3510 C.2   3000  PEP3000     0.2283
      5  C3        15.3710   44.7300    0.7180 C.2   3000  PEP3000     0.0477
      6  O2        14.0500   46.3790   -0.5430 O.2   3000  PEP3000    -0.3930
      7  P         13.8490   47.9720   -0.1590 P.3   3000  PEP3000     0.5889
      8  O1P       14.9150   48.7880   -0.7110 O.2   3000  PEP3000    -0.2114
      9  O2P       13.8020   48.0160    1.3060 O.3   3000  PEP3000    -0.1039
     10  O3P       12.4510   48.3700   -0.7030 O.3   3000  PEP3000    -0.1039
@<TRIPOS>BOND
     1     8     7    2
     2    10     7    1
     3     6     7    1
     4     6     4    1
     5     7     9    1
     6     4     5    2
     7     4     1    1
     8     3     1   ar
     9     1     2   ar
