@<TRIPOS>MOLECULE
1vbi_NAD_A_1.pdb
 44 48 0 0 0
SMALL
GASTEIGER

@<TRIPOS>ATOM
      1  PA         1.2570   68.3840   10.8170 P.3   401  NAD401      0.2189
      2  O1A        0.8540   68.4180   12.2260 O.3   401  NAD401     -0.4371
      3  O2A        0.1020   68.3140    9.9140 O.2   401  NAD401     -0.5170
      4  O5B        2.0680   69.6830   10.3270 O.3   401  NAD401     -0.3112
      5  C5B        2.9790   69.6930    9.1690 C.3   401  NAD401      0.1813
      6  C4B        3.7510   70.9910    9.2190 C.3   401  NAD401      0.1821
      7  O4B        2.7270   72.0010    9.3490 O.3   401  NAD401     -0.3135
      8  C3B        4.6250   71.1320   10.4750 C.3   401  NAD401      0.2184
      9  O3B        5.9620   71.4790   10.0910 O.3   401  NAD401     -0.2174
     10  C2B        3.9120   72.2200   11.3020 C.3   401  NAD401      0.2570
     11  O2B        4.8270   73.0610   12.0510 O.3   401  NAD401     -0.2130
     12  C1B        3.1220   72.9830   10.2600 C.3   401  NAD401      0.3186
     13  N9A        1.9060   73.5490   10.8080 N.pl3 401  NAD401     -0.1439
     14  C8A        0.8220   72.8890   11.3630 C.3   401  NAD401      0.3377
     15  N7A       -0.1690   73.7150   11.7790 N.2   401  NAD401     -0.2095
     16  C5A        0.3400   74.9810   11.4590 C.2   401  NAD401      0.2526
     17  C6A       -0.2090   76.3010   11.6340 C.2   401  NAD401      0.4393
     18  N6A       -1.4040   76.5190   12.1840 N.pl3 401  NAD401      0.2180
     19  N1A        0.5750   77.3650   11.1960 N.2   401  NAD401      0.0021
     20  C2A        1.8190   77.1230   10.6240 C.3   401  NAD401      0.5254
     21  N3A        2.4040   75.9450   10.4220 N.2   401  NAD401     -0.0055
     22  C4A        1.6210   74.9020   10.8590 C.2   401  NAD401      0.3518
     23  O3         2.2660   67.2330   10.5690 O.3   401  NAD401     -0.2703
     24  PN         2.1790   65.6470   10.7050 P.3   401  NAD401      0.2189
     25  O1N        2.4950   65.1010    9.3630 O.2   401  NAD401     -0.5170
     26  O2N        0.8260   65.3100   11.1880 O.3   401  NAD401     -0.4371
     27  O5D        3.3620   65.3030   11.7010 O.3   401  NAD401     -0.3112
     28  C5D        3.5400   63.9280   12.0510 C.3   401  NAD401      0.1813
     29  C4D        4.7100   63.7770   13.0010 C.3   401  NAD401      0.1799
     30  O4D        4.9730   62.3550   13.0510 O.3   401  NAD401     -0.3327
     31  C3D        6.0080   64.4610   12.5570 C.3   401  NAD401      0.2158
     32  O3D        6.7440   65.0440   13.6510 O.3   401  NAD401     -0.2175
     33  C2D        6.7510   63.3160   11.8490 C.3   401  NAD401      0.2309
     34  O2D        8.1850   63.5310   11.8500 O.3   401  NAD401     -0.2158
     35  C1D        6.3030   62.1180   12.6500 C.3   401  NAD401      0.2263
     36  N1N        6.3450   60.8600   11.8920 N.pl3 401  NAD401     -0.2787
     37  C2N        7.3750   60.0110   12.2670 C.3   401  NAD401      0.1244
     38  C3N        7.4540   58.8030   11.5910 C.2   401  NAD401      0.0544
     39  C7N        8.5310   57.7740   11.9020 C.2   401  NAD401      0.2818
     40  O7N        8.5330   56.7300   11.2650 O.2   401  NAD401     -0.2670
     41  N7N        9.4490   58.0220   12.8630 N.am  401  NAD401     -0.0839
     42  C4N        6.5070   58.4520   10.5410 C.2   401  NAD401      0.0033
     43  C5N        5.5050   59.4230   10.2610 C.2   401  NAD401      0.0157
     44  C6N        5.3610   60.6270   10.8820 C.2   401  NAD401      0.0633
@<TRIPOS>BOND
     1     5     6    1
     2     5     4    1
     3     6     7    1
     4     6     8    1
     5     7    12    1
     6    25    24    2
     7     3     1    2
     8     9     8    1
     9    12    13    1
    10    12    10    1
    11    43    42    1
    12    43    44    2
    13     4     1    1
    14    21    20    1
    15    21    22    2
    16     8    10    1
    17    42    38    2
    18    23    24    1
    19    23     1    1
    20    20    19    1
    21    24    26    1
    22    24    27    1
    23    13    22    1
    24    13    14    1
    25     1     2    1
    26    22    16    1
    27    44    36    1
    28    19    17    2
    29    40    39    2
    30    10    11    1
    31    14    15    1
    32    16    17    1
    33    16    15    2
    34    38    39    1
    35    38    37    1
    36    17    18    1
    37    27    28    1
    38    33    34    1
    39    33    31    1
    40    33    35    1
    41    36    37    1
    42    36    35    1
    43    39    41   am
    44    28    29    1
    45    31    29    1
    46    31    32    1
    47    35    30    1
    48    29    30    1
