@<TRIPOS>MOLECULE
1vbj_NAP_A_1.pdb
 48 52 0 0 0
SMALL
GASTEIGER

@<TRIPOS>ATOM
      1  PA       102.3580   60.8290    6.3460 P.3   3001  NAP3001     0.2189
      2  O1A      101.0980   60.1950    6.2240 O.2   3001  NAP3001    -0.5170
      3  O2A      102.8640   61.5150    7.5900 O.3   3001  NAP3001    -0.4371
      4  O5B      102.5530   61.9330    5.1750 O.3   3001  NAP3001    -0.3112
      5  C5B      101.5150   62.9050    4.9990 C.3   3001  NAP3001     0.1813
      6  C4B      101.8570   63.6920    3.6650 C.3   3001  NAP3001     0.1820
      7  O4B      100.6950   64.5780    3.6310 O.3   3001  NAP3001    -0.3136
      8  C3B      103.0540   64.6860    3.7270 C.3   3001  NAP3001     0.2157
      9  O3B      103.6780   64.5540    2.4530 O.3   3001  NAP3001    -0.2175
     10  C2B      102.4860   66.0880    3.9010 C.3   3001  NAP3001     0.2314
     11  O2B      102.9850   67.0870    2.9980 O.3   3001  NAP3001    -0.2630
     12  C1B      100.9550   65.9420    3.7080 C.3   3001  NAP3001     0.3158
     13  N9A      100.2450   66.4560    4.8410 N.pl3 3001  NAP3001    -0.1439
     14  C8A      100.5450   66.4520    6.1840 C.3   3001  NAP3001     0.3377
     15  N7A       99.6330   67.0100    6.9410 N.2   3001  NAP3001    -0.2095
     16  C5A       98.6740   67.4080    6.0220 C.2   3001  NAP3001     0.2526
     17  C6A       97.4580   68.0550    6.2290 C.2   3001  NAP3001     0.4393
     18  N6A       96.9520   68.4500    7.4050 N.pl3 3001  NAP3001     0.2180
     19  N1A       96.6830   68.3350    5.0960 N.2   3001  NAP3001     0.0021
     20  C2A       97.1150   67.9650    3.8050 C.3   3001  NAP3001     0.5254
     21  N3A       98.3190   67.3180    3.5780 N.2   3001  NAP3001    -0.0055
     22  C4A       99.0580   67.0580    4.7220 C.2   3001  NAP3001     0.3518
     23  O3       103.4560   59.7820    5.9180 O.3   3001  NAP3001    -0.2703
     24  PN       104.9820   59.5580    6.2320 P.3   3001  NAP3001     0.2189
     25  O1N      105.6890   60.8420    6.4040 O.3   3001  NAP3001    -0.4371
     26  O2N      105.4740   58.6710    5.1630 O.2   3001  NAP3001    -0.5170
     27  O5D      104.9410   58.8010    7.6190 O.3   3001  NAP3001    -0.3112
     28  C5D      104.7350   59.5470    8.8230 C.3   3001  NAP3001     0.1813
     29  C4D      105.9740   59.4440    9.6640 C.3   3001  NAP3001     0.1799
     30  O4D      106.1490   58.1280   10.2730 O.3   3001  NAP3001    -0.3327
     31  C3D      107.3710   59.7640    9.0010 C.3   3001  NAP3001     0.2158
     32  O3D      107.6990   61.1610    8.9520 O.3   3001  NAP3001    -0.2175
     33  C2D      108.3440   58.9270    9.8190 C.3   3001  NAP3001     0.2309
     34  O2D      108.7870   59.6100   10.9740 O.3   3001  NAP3001    -0.2158
     35  C1D      107.5550   57.7180   10.1920 C.3   3001  NAP3001     0.2263
     36  N1N      107.7200   56.5190    9.3020 N.pl3 3001  NAP3001    -0.2787
     37  C2N      108.2550   55.3200    9.8350 C.3   3001  NAP3001     0.1244
     38  C3N      108.4390   54.2360    8.9960 C.2   3001  NAP3001     0.0544
     39  C7N      109.0240   52.9510    9.5870 C.2   3001  NAP3001     0.2818
     40  O7N      109.1950   52.0350    8.8160 O.2   3001  NAP3001    -0.2670
     41  N7N      109.3280   52.8640   10.8630 N.am  3001  NAP3001    -0.0839
     42  C4N      108.0990   54.3070    7.5720 C.2   3001  NAP3001     0.0033
     43  C5N      107.5550   55.5290    7.0720 C.2   3001  NAP3001     0.0157
     44  C6N      107.3570   56.6510    7.9160 C.2   3001  NAP3001     0.0633
     45  P2B      103.7580   68.4570    3.4890 P.3   3001  NAP3001     0.5328
     46  O1X      103.8960   69.3360    2.2410 O.2   3001  NAP3001    -0.2224
     47  O2X      102.7970   69.0120    4.4910 O.3   3001  NAP3001    -0.1145
     48  O3X      105.1210   68.0200    4.0030 O.3   3001  NAP3001    -0.1145
@<TRIPOS>BOND
     1    46    45    2
     2     9     8    1
     3    11    45    1
     4    11    10    1
     5    45    48    1
     6    45    47    1
     7    21    20    1
     8    21    22    2
     9     7     6    1
    10     7    12    1
    11     6     8    1
    12     6     5    1
    13    12    10    1
    14    12    13    1
    15     8    10    1
    16    20    19    1
    17    22    13    1
    18    22    16    1
    19    13    14    1
    20     5     4    1
    21    19    17    2
    22    26    24    2
    23     4     1    1
    24    23    24    1
    25    23     1    1
    26    16    17    1
    27    16    15    2
    28    14    15    1
    29     2     1    2
    30    17    18    1
    31    24    25    1
    32    24    27    1
    33     1     3    1
    34    43    42    1
    35    43    44    2
    36    42    38    2
    37    27    28    1
    38    44    36    1
    39    40    39    2
    40    28    29    1
    41    32    31    1
    42    38    39    1
    43    38    37    1
    44    31    29    1
    45    31    33    1
    46    36    37    1
    47    36    35    1
    48    39    41   am
    49    29    30    1
    50    33    35    1
    51    33    34    1
    52    35    30    1
