@<TRIPOS>MOLECULE
1vbm_YSA_A_1.pdb
 35 38 0 0 0
SMALL
GASTEIGER

@<TRIPOS>ATOM
      1  CD1        8.9690  173.3470  243.2510 C.ar  3001  YSA3001    -0.0009
      2  CE1       10.3410  173.1500  243.3820 C.ar  3001  YSA3001     0.0417
      3  CZ        10.8460  172.4820  244.4950 C.ar  3001  YSA3001     0.1957
      4  OH        12.1860  172.2880  244.6260 O.3   3001  YSA3001    -0.2866
      5  CE2        9.9790  172.0080  245.4730 C.ar  3001  YSA3001     0.0417
      6  CD2        8.6070  172.2040  245.3420 C.ar  3001  YSA3001    -0.0009
      7  CG         8.1020  172.8760  244.2310 C.ar  3001  YSA3001    -0.0200
      8  CB         6.5970  173.1140  244.1000 C.3   3001  YSA3001     0.0548
      9  CA         5.8120  171.8160  243.8910 C.3   3001  YSA3001     0.1753
     10  N          6.1820  171.2080  242.6040 N.3   3001  YSA3001    -0.1226
     11  C          4.3190  172.1360  243.8840 C.2   3001  YSA3001     0.2801
     12  O          3.5950  171.7490  242.9660 O.2   3001  YSA3001    -0.2701
     13  NAT        3.9040  172.8660  244.9170 N.am  3001  YSA3001    -0.0576
     14  SBI        2.3480  173.3150  245.0890 S.3   3001  YSA3001     0.0852
     15  OAD        1.4680  172.1050  245.2050 O.3   3001  YSA3001    -0.0508
     16  OAE        1.9350  174.1250  243.8950 O.3   3001  YSA3001    -0.0508
     17  O5'        2.2260  174.1560  246.3260 O.3   3001  YSA3001    -0.2230
     18  C5'        1.4270  173.7550  247.4430 C.3   3001  YSA3001     0.2064
     19  C4'        2.2200  172.9720  248.4950 C.3   3001  YSA3001     0.1842
     20  O4'        1.3590  172.7040  249.6170 O.3   3001  YSA3001    -0.3135
     21  C3'        2.6630  171.5940  247.9980 C.3   3001  YSA3001     0.2185
     22  O3'        3.6530  171.0490  248.8750 O.3   3001  YSA3001    -0.2174
     23  C2'        1.3510  170.8280  248.1600 C.3   3001  YSA3001     0.2570
     24  O2'        1.6370  169.4290  248.2330 O.3   3001  YSA3001    -0.2130
     25  C1'        0.9080  171.3390  249.5330 C.3   3001  YSA3001     0.3186
     26  N9        -0.5610  171.2430  249.7070 N.pl3 3001  YSA3001    -0.1439
     27  C8        -1.4790  171.7570  248.8880 C.3   3001  YSA3001     0.3377
     28  N7        -2.6990  171.4920  249.3470 N.2   3001  YSA3001    -0.2095
     29  C5        -2.5640  170.8080  250.4780 C.2   3001  YSA3001     0.2526
     30  C4        -1.2040  170.6490  250.7090 C.2   3001  YSA3001     0.3518
     31  N3        -0.7970  169.9970  251.8090 N.2   3001  YSA3001    -0.0055
     32  C2        -1.6690  169.5070  252.6750 C.3   3001  YSA3001     0.5254
     33  N1        -2.9710  169.6420  252.4830 N.2   3001  YSA3001     0.0021
     34  C6        -3.4540  170.2780  251.4060 C.2   3001  YSA3001     0.4393
     35  N6        -4.7670  170.4020  251.2310 N.pl3 3001  YSA3001     0.2180
@<TRIPOS>BOND
     1    10     9    1
     2    12    11    2
     3     1     2   ar
     4     1     7   ar
     5     2     3   ar
     6    11     9    1
     7    11    13   am
     8     9     8    1
     9    16    14    1
    10     8     7    1
    11     7     6   ar
    12     3     4    1
    13     3     5   ar
    14    13    14    1
    15    14    15    1
    16    14    17    1
    17     6     5   ar
    18    17    18    1
    19    18    19    1
    20    21    23    1
    21    21    19    1
    22    21    22    1
    23    23    24    1
    24    23    25    1
    25    19    20    1
    26    27    28    1
    27    27    26    1
    28    28    29    2
    29    25    20    1
    30    25    26    1
    31    26    30    1
    32    29    30    1
    33    29    34    1
    34    30    31    2
    35    35    34    1
    36    34    33    2
    37    31    32    1
    38    33    32    1
