@<TRIPOS>MOLECULE
1vbn_YSA_A_1.pdb
 35 38 0 0 0
SMALL
GASTEIGER

@<TRIPOS>ATOM
      1  CD1      113.7740    7.2810  183.5380 C.ar  1001  YSA1001    -0.0009
      2  CE1      114.3400    6.0130  183.6410 C.ar  1001  YSA1001     0.0417
      3  CZ       114.0320    5.1970  184.7260 C.ar  1001  YSA1001     0.1957
      4  OH       114.6230    3.9790  184.8530 O.3   1001  YSA1001    -0.2866
      5  CE2      113.1480    5.6470  185.7030 C.ar  1001  YSA1001     0.0417
      6  CD2      112.5830    6.9160  185.5990 C.ar  1001  YSA1001    -0.0009
      7  CG       112.8980    7.7370  184.5200 C.ar  1001  YSA1001    -0.0200
      8  CB       112.3270    9.1560  184.4390 C.3   1001  YSA1001     0.0548
      9  CA       110.8100    9.1870  184.2340 C.3   1001  YSA1001     0.1753
     10  N        110.4640    8.5590  182.9500 N.3   1001  YSA1001    -0.1226
     11  C        110.3320   10.6420  184.2650 C.2   1001  YSA1001     0.2801
     12  O        109.6240   11.1150  183.3760 O.2   1001  YSA1001    -0.2701
     13  NAT      110.7360   11.3260  185.3320 N.am  1001  YSA1001    -0.0576
     14  SBI      110.3510   12.8940  185.5520 S.3   1001  YSA1001     0.0852
     15  OAD      108.8630   13.0740  185.6240 O.3   1001  YSA1001    -0.0508
     16  OAE      110.9160   13.7010  184.4200 O.3   1001  YSA1001    -0.0508
     17  O5'      110.9920   13.3400  186.8300 O.3   1001  YSA1001    -0.2230
     18  C5'      110.1990   13.6540  187.9760 C.3   1001  YSA1001     0.2064
     19  C4'      109.9940   12.4270  188.8660 C.3   1001  YSA1001     0.1842
     20  O4'      109.3460   12.8740  190.0680 O.3   1001  YSA1001    -0.3135
     21  C3'      109.0330   11.3980  188.2690 C.3   1001  YSA1001     0.2185
     22  O3'      109.0920   10.1740  189.0070 O.3   1001  YSA1001    -0.2174
     23  C2'      107.6900   12.0810  188.5200 C.3   1001  YSA1001     0.2570
     24  O2'      106.6780   11.0830  188.6820 O.3   1001  YSA1001    -0.2130
     25  C1'      107.9240   12.7560  189.8740 C.3   1001  YSA1001     0.3186
     26  N9       107.2000   14.0480  189.9410 N.pl3 1001  YSA1001    -0.1439
     27  C8       107.2360   15.0390  189.0520 C.3   1001  YSA1001     0.3377
     28  N7       106.4480   16.0350  189.4540 N.2   1001  YSA1001    -0.2095
     29  C5       105.8980   15.6710  190.6070 C.2   1001  YSA1001     0.2526
     30  C4       106.3730   14.4050  190.9190 C.2   1001  YSA1001     0.3518
     31  N3       105.9900   13.8160  192.0610 N.2   1001  YSA1001    -0.0055
     32  C2       105.1710   14.4290  192.9000 C.3   1001  YSA1001     0.5254
     33  N1       104.7080   15.6400  192.6440 N.2   1001  YSA1001     0.0021
     34  C6       105.0430   16.2860  191.5160 C.2   1001  YSA1001     0.4393
     35  N6       104.5700   17.5030  191.2660 N.pl3 1001  YSA1001     0.2180
@<TRIPOS>BOND
     1    10     9    1
     2    12    11    2
     3     1     2   ar
     4     1     7   ar
     5     2     3   ar
     6     9    11    1
     7     9     8    1
     8    11    13   am
     9    16    14    1
    10     8     7    1
    11     7     6   ar
    12     3     4    1
    13     3     5   ar
    14    13    14    1
    15    14    15    1
    16    14    17    1
    17     6     5   ar
    18    17    18    1
    19    18    19    1
    20    21    23    1
    21    21    19    1
    22    21    22    1
    23    23    24    1
    24    23    25    1
    25    19    20    1
    26    27    28    1
    27    27    26    1
    28    28    29    2
    29    25    26    1
    30    25    20    1
    31    26    30    1
    32    29    30    1
    33    29    34    1
    34    30    31    2
    35    35    34    1
    36    34    33    2
    37    31    32    1
    38    33    32    1
