@<TRIPOS>MOLECULE
1vbo_MAN_A_1.pdb
 11 11 0 0 0
SMALL
GASTEIGER

@<TRIPOS>ATOM
      1  C1        18.7110   62.0490   48.2960 C.3   405  MAN405      0.1777
      2  C2        19.9060   62.4180   47.4060 C.3   405  MAN405      0.2141
      3  C3        19.7330   61.8270   46.0000 C.3   405  MAN405      0.2173
      4  C4        19.4450   60.3180   46.0770 C.3   405  MAN405      0.2142
      5  C5        18.2710   60.0350   47.0250 C.3   405  MAN405      0.1810
      6  C6        18.0510   58.5510   47.2470 C.3   405  MAN405      0.2141
      7  O2        21.1150   61.9500   47.9840 O.3   405  MAN405     -0.2176
      8  O3        20.9030   62.0690   45.2260 O.3   405  MAN405     -0.2175
      9  O4        19.1260   59.8350   44.7850 O.3   405  MAN405     -0.2176
     10  O5        18.5220   60.6320   48.3210 O.3   405  MAN405     -0.3481
     11  O6        19.0830   57.9950   48.0540 O.3   405  MAN405     -0.2176
@<TRIPOS>BOND
     1     9     4    1
     2     8     3    1
     3     3     4    1
     4     3     2    1
     5     4     5    1
     6     5     6    1
     7     5    10    1
     8     6    11    1
     9     2     7    1
    10     2     1    1
    11     1    10    1
