@<TRIPOS>MOLECULE
1vbp_MAN_A_1.pdb
 11 11 0 0 0
SMALL
GASTEIGER

@<TRIPOS>ATOM
      1  C1       113.1910  107.2780  128.1390 C.3   405  MAN405      0.1777
      2  C2       112.5610  107.0610  129.5120 C.3   405  MAN405      0.2141
      3  C3       112.4980  108.4050  130.2210 C.3   405  MAN405      0.2173
      4  C4       113.9150  108.9300  130.3950 C.3   405  MAN405      0.2142
      5  C5       114.6230  109.0240  129.0360 C.3   405  MAN405      0.1810
      6  C6       116.0990  109.2840  129.2070 C.3   405  MAN405      0.2141
      7  O2       113.3870  106.1740  130.2570 O.3   405  MAN405     -0.2176
      8  O3       111.8680  108.2700  131.4870 O.3   405  MAN405     -0.2175
      9  O4       113.8570  110.2170  130.9880 O.3   405  MAN405     -0.2176
     10  O5       114.5170  107.7820  128.3050 O.3   405  MAN405     -0.3481
     11  O6       116.7880  108.0800  129.4990 O.3   405  MAN405     -0.2176
@<TRIPOS>BOND
     1     1    10    1
     2     1     2    1
     3    10     5    1
     4     5     6    1
     5     5     4    1
     6     6    11    1
     7     2     3    1
     8     2     7    1
     9     3     4    1
    10     3     8    1
    11     4     9    1
