@<TRIPOS>MOLECULE
1vbr_XYP_A_1.pdb
 10 10 0 0 0
SMALL
GASTEIGER

@<TRIPOS>ATOM
      1  O4A       -5.3050    5.8280   -0.4020 O.3     2  XYP2       -0.1869
      2  C1B       -5.5100    5.4130    0.9000 C.3     2  XYP2        0.3024
      3  C2B       -4.3470    5.8620    1.7880 C.3     2  XYP2        0.2434
      4  C3B       -4.6170    5.4070    3.2250 C.3     2  XYP2        0.2199
      5  C4B       -5.9680    5.9690    3.6940 C.3     2  XYP2        0.2143
      6  C5B       -7.0710    5.5590    2.6980 C.3     2  XYP2        0.1804
      7  O2B       -3.1280    5.3090    1.3140 O.3     2  XYP2       -0.2148
      8  O3B       -3.5770    5.8630    4.0750 O.3     2  XYP2       -0.2174
      9  O4B       -6.2850    5.4780    5.0170 O.3     2  XYP2       -0.2176
     10  O5B       -6.7330    5.9970    1.3660 O.3     2  XYP2       -0.3237
@<TRIPOS>BOND
     1     1     2    1
     2     2    10    1
     3     2     3    1
     4     7     3    1
     5    10     6    1
     6     3     4    1
     7     6     5    1
     8     4     5    1
     9     4     8    1
    10     5     9    1
