@<TRIPOS>MOLECULE
1vbs_III_B_1.pdb
 44 46 0 0 0
SMALL
GASTEIGER

@<TRIPOS>ATOM
      1  N         17.5060   27.5590   11.3250 N.4     2  ALA2        0.3874
      2  CA        16.3090   26.6970   11.5050 C.3     2  ALA2        0.0128
      3  C         15.9930   26.7930   12.9950 C.2     2  ALA2        0.2022
      4  O         16.6360   27.5800   13.6920 O.2     2  ALA2       -0.2774
      5  CB        16.6470   25.2660   11.1030 C.3     2  ALA2       -0.0147
      6  H1        17.3020   28.4720   11.7610 H       2  ALA2       -0.0886
      7  H2        18.2270   27.0750   11.8960 H       2  ALA2       -0.0886
      8  H3        17.7970   27.5960   10.3210 H       2  ALA2       -0.0886
      9  N         15.0160   26.0320   13.4840 N.am    3  DAL3       -0.3000
     10  CA        14.6730   26.0740   14.9070 C.3     3  DAL3        0.1488
     11  CB        14.0910   24.7460   15.3320 C.3     3  DAL3        0.0312
     12  C         13.7030   27.2080   15.2620 C.2     3  DAL3        0.2438
     13  O         12.6990   27.3670   14.5880 O.2     3  DAL3       -0.2731
     14  H         14.5030   25.4200   12.9110 H       3  DAL3        0.1497
     15  N         14.0930   28.1260   16.1820 N.am    4  PRO4       -0.2717
     16  CA        15.3600   28.2300   16.9180 C.3     4  PRO4        0.1518
     17  C         15.6280   27.1410   17.9430 C.2     4  PRO4        0.2409
     18  O         14.7040   26.5400   18.4850 O.2     4  PRO4       -0.2733
     19  CB        15.2480   29.5910   17.6130 C.3     4  PRO4        0.0310
     20  CG        14.0860   30.2800   16.9470 C.3     4  PRO4        0.0237
     21  CD        13.1600   29.1650   16.6580 C.3     4  PRO4        0.0939
     22  N         16.9110   26.8890   18.1820 N.am    5  PHE5       -0.2967
     23  CA        17.3860   25.9060   19.1540 C.3     5  PHE5        0.1533
     24  C         18.0510   26.7200   20.2560 C.2     5  PHE5        0.2443
     25  O         17.9720   27.9560   20.2620 O.2     5  PHE5       -0.2730
     26  CB        18.4550   25.0000   18.5360 C.3     5  PHE5        0.0553
     27  CG        18.0650   24.4190   17.2400 C.ar    5  PHE5       -0.0200
     28  CD1       17.3540   23.2330   17.1920 C.ar    5  PHE5       -0.0042
     29  CD2       18.3840   25.0780   16.0610 C.ar    5  PHE5       -0.0042
     30  CE1       16.9520   22.7040   15.9730 C.ar    5  PHE5       -0.0003
     31  CE2       17.9970   24.5710   14.8490 C.ar    5  PHE5       -0.0003
     32  CZ        17.2720   23.3740   14.7990 C.ar    5  PHE5       -0.0000
     33  H         17.6120   27.4110   17.7830 H       5  PHE5        0.1499
     34  N1        18.8120   26.0350   21.1010 N.am    6  NIT6       -0.2826
     35  C1        19.5140   26.6550   22.1940 C.ar    6  NIT6        0.0504
     36  C2        20.5000   25.8600   22.7300 C.ar    6  NIT6        0.0164
     37  C3        21.3010   26.3590   23.7520 C.ar    6  NIT6        0.0253
     38  C4        21.1280   27.6610   24.2800 C.ar    6  NIT6        0.1430
     39  N4        21.8590   28.0530   25.3530 N.pl3   6  NIT6        0.0577
     40  ON1       22.7030   27.2870   25.8300 O.2     6  NIT6       -0.1261
     41  ON2       21.6770   29.1710   25.9010 O.2     6  NIT6       -0.1261
     42  C5        20.1130   28.4750   23.6920 C.ar    6  NIT6        0.0253
     43  C6        19.3120   27.9640   22.6770 C.ar    6  NIT6        0.0164
     44 HN11       18.9980   25.0780   20.9210 H       6  NIT6        0.1549
@<TRIPOS>BOND
     1     8     1    1
     2     5     2    1
     3     1     2    1
     4     1     6    1
     5     1     7    1
     6     2     3    1
     7    14     9    1
     8     3     9   am
     9     3     4    2
    10     9    10    1
    11    13    12    2
    12    32    31   ar
    13    32    30   ar
    14    31    29   ar
    15    10    12    1
    16    10    11    1
    17    12    15   am
    18    30    28   ar
    19    29    27   ar
    20    15    21    1
    21    15    16    1
    22    21    20    1
    23    16    19    1
    24    16    17    1
    25    20    19    1
    26    28    27   ar
    27    27    26    1
    28    33    22    1
    29    17    22   am
    30    17    18    2
    31    22    23    1
    32    26    23    1
    33    23    24    1
    34    24    25    2
    35    24    34   am
    36    44    34    1
    37    34    35    1
    38    35    43   ar
    39    35    36   ar
    40    43    42   ar
    41    36    37   ar
    42    42    38   ar
    43    37    38   ar
    44    38    39    1
    45    39    40    2
    46    39    41    2
