@<TRIPOS>MOLECULE
1vbt_III_C_1.pdb
 44 46 0 0 0
SMALL
GASTEIGER

@<TRIPOS>ATOM
      1  N          5.8770   58.8370   63.1770 N.4     1  ALA1        0.3874
      2  CA         5.3800   59.5030   61.9340 C.3     1  ALA1        0.0128
      3  C          3.8940   59.8540   62.0210 C.2     1  ALA1        0.2021
      4  O          3.4460   60.8260   61.4030 O.2     1  ALA1       -0.2774
      5  CB         5.6430   58.6340   60.7140 C.3     1  ALA1       -0.0147
      6  H1         5.6090   59.4450   63.9760 H       1  ALA1       -0.0886
      7  H2         5.4600   57.8930   63.2830 H       1  ALA1       -0.0886
      8  H3         6.9130   58.7520   63.1340 H       1  ALA1       -0.0886
      9  N          3.1240   59.0580   62.7590 N.am    2  ALA2       -0.3023
     10  CA         1.7010   59.3320   62.9420 C.3     2  ALA2        0.1142
     11  CB         0.9270   58.0360   63.0230 C.3     2  ALA2        0.0281
     12  C          1.6240   60.0880   64.2650 C.2     2  ALA2        0.0796
     13  S          2.7720   59.5700   65.3260 S.2     2  ALA2       -0.0378
     14  H          3.4490   58.2840   63.2670 H       2  ALA2        0.1497
     15  N          0.8200   61.1640   64.3570 N.am    3  PRO3       -0.2982
     16  CA        -0.0440   61.7760   63.3390 C.3     3  PRO3        0.1500
     17  C          0.7030   62.4000   62.1680 C.2     3  PRO3        0.2408
     18  O          1.7560   63.0270   62.3530 O.2     3  PRO3       -0.2733
     19  CB        -0.8120   62.8290   64.1360 C.3     3  PRO3        0.0309
     20  CG         0.1760   63.2710   65.1130 C.3     3  PRO3        0.0236
     21  CD         0.8070   61.9760   65.5880 C.3     3  PRO3        0.0915
     22  N          0.1440   62.2220   60.9700 N.am    4  PHE4       -0.2967
     23  CA         0.7360   62.7460   59.7450 C.3     4  PHE4        0.1533
     24  C          0.4180   64.2050   59.6060 C.2     4  PHE4        0.2443
     25  O         -0.7350   64.6160   59.7650 O.2     4  PHE4       -0.2730
     26  CB         0.2120   62.0040   58.5080 C.3     4  PHE4        0.0553
     27  CG         0.6770   60.5780   58.4180 C.ar    4  PHE4       -0.0200
     28  CD1        2.0350   60.2790   58.2790 C.ar    4  PHE4       -0.0042
     29  CD2       -0.2310   59.5250   58.5420 C.ar    4  PHE4       -0.0042
     30  CE1        2.4830   58.9440   58.2730 C.ar    4  PHE4       -0.0003
     31  CE2        0.2040   58.1790   58.5370 C.ar    4  PHE4       -0.0003
     32  CZ         1.5610   57.8920   58.4040 C.ar    4  PHE4       -0.0000
     33  H         -0.7130   61.7720   60.8680 H       4  PHE4        0.1499
     34  N1         1.4570   64.9770   59.3050 N.am    5  NIT5       -0.2826
     35  C1         1.4460   66.4160   59.1060 C.ar    5  NIT5        0.0504
     36  C2         2.6730   67.0720   59.2240 C.ar    5  NIT5        0.0164
     37  C3         2.7360   68.4670   59.1710 C.ar    5  NIT5        0.0253
     38  C4         1.5800   69.2330   59.0180 C.ar    5  NIT5        0.1430
     39  N4         1.6350   70.5800   59.0100 N.pl3   5  NIT5        0.0577
     40  ON1        2.6900   71.2390   59.0880 O.2     5  NIT5       -0.1261
     41  ON2        0.6030   71.2360   58.9280 O.2     5  NIT5       -0.1261
     42  C5         0.3610   68.5560   58.8860 C.ar    5  NIT5        0.0253
     43  C6         0.2830   67.1650   58.9020 C.ar    5  NIT5        0.0164
     44 HN11        2.3020   64.4990   59.1950 H       5  NIT5        0.1549
@<TRIPOS>BOND
     1    30    28   ar
     2    30    32   ar
     3    28    27   ar
     4    32    31   ar
     5    27    26    1
     6    27    29   ar
     7    26    23    1
     8    31    29   ar
     9    42    43   ar
    10    42    38   ar
    11    43    35   ar
    12    41    39    2
    13    39    38    1
    14    39    40    2
    15    38    37   ar
    16    35    36   ar
    17    35    34    1
    18    37    36   ar
    19    44    34    1
    20    34    24   am
    21    24    23    1
    22    24    25    2
    23    23    22    1
    24     5     2    1
    25    33    22    1
    26    22    17   am
    27     4     3    2
    28     2     3    1
    29     2     1    1
    30     3     9   am
    31    17    18    2
    32    17    16    1
    33     9    10    1
    34     9    14    1
    35    10    11    1
    36    10    12    1
    37     8     1    1
    38     1     7    1
    39     1     6    1
    40    16    19    1
    41    16    15    1
    42    19    20    1
    43    12    15    1
    44    12    13    2
    45    15    21    1
    46    20    21    1
