@<TRIPOS>MOLECULE
1vc2_NAD_A_1.pdb
 44 48 0 0 0
SMALL
GASTEIGER

@<TRIPOS>ATOM
      1  PA        38.4260   -4.4630  -54.9240 P.3   336  NAD336      0.2189
      2  O1A       37.5560   -3.6240  -55.7360 O.2   336  NAD336     -0.5170
      3  O2A       39.7700   -3.8860  -54.7710 O.3   336  NAD336     -0.4371
      4  O5B       37.9410   -4.6680  -53.4180 O.3   336  NAD336     -0.3112
      5  C5B       36.5480   -4.5730  -53.0270 C.3   336  NAD336      0.1813
      6  C4B       36.3690   -3.5110  -51.9580 C.3   336  NAD336      0.1821
      7  O4B       36.7080   -4.0650  -50.6500 O.3   336  NAD336     -0.3135
      8  C3B       37.2630   -2.2420  -52.0630 C.3   336  NAD336      0.2184
      9  O3B       36.4960   -1.0490  -52.3270 O.3   336  NAD336     -0.2174
     10  C2B       37.9910   -2.2390  -50.7190 C.3   336  NAD336      0.2570
     11  O2B       38.2280   -0.8880  -50.2620 O.3   336  NAD336     -0.2130
     12  C1B       37.0050   -2.9780  -49.8520 C.3   336  NAD336      0.3186
     13  N9A       37.5860   -3.4110  -48.5690 N.pl3 336  NAD336     -0.1439
     14  C8A       38.8720   -3.8440  -48.2750 C.3   336  NAD336      0.3377
     15  N7A       39.0660   -4.1610  -46.9620 N.2   336  NAD336     -0.2095
     16  C5A       37.8060   -3.9070  -46.3910 C.2   336  NAD336      0.2526
     17  C6A       37.3170   -4.0370  -45.0310 C.2   336  NAD336      0.4393
     18  N6A       38.0770   -4.4490  -44.0190 N.pl3 336  NAD336      0.2180
     19  N1A       35.9830   -3.6960  -44.8060 N.2   336  NAD336      0.0021
     20  C2A       35.1940   -3.2630  -45.8630 C.3   336  NAD336      0.5254
     21  N3A       35.5490   -3.1100  -47.1380 N.2   336  NAD336     -0.0055
     22  C4A       36.8740   -3.4520  -47.3580 C.2   336  NAD336      0.3518
     23  O3        38.4470   -5.9060  -55.5520 O.3   336  NAD336     -0.2703
     24  PN        37.2770   -6.8200  -56.1860 P.3   336  NAD336      0.2189
     25  O1N       37.6660   -7.0560  -57.5990 O.2   336  NAD336     -0.5170
     26  O2N       36.0160   -6.0770  -56.0500 O.3   336  NAD336     -0.4371
     27  O5D       37.2740   -8.2460  -55.5020 O.3   336  NAD336     -0.3112
     28  C5D       36.7270   -8.4470  -54.1870 C.3   336  NAD336      0.1813
     29  C4D       36.8220   -9.9350  -53.8750 C.3   336  NAD336      0.1799
     30  O4D       36.0990  -10.6450  -54.9280 O.3   336  NAD336     -0.3327
     31  C3D       38.2320  -10.5260  -53.8290 C.3   336  NAD336      0.2158
     32  O3D       38.4290  -11.4940  -52.7860 O.3   336  NAD336     -0.2175
     33  C2D       38.3720  -11.1180  -55.2260 C.3   336  NAD336      0.2309
     34  O2D       39.3910  -12.1470  -55.2530 O.3   336  NAD336     -0.2158
     35  C1D       36.9660  -11.6010  -55.4820 C.3   336  NAD336      0.2263
     36  N1N       36.6620  -11.8290  -56.9290 N.pl3 336  NAD336     -0.2787
     37  C2N       37.1220  -10.8570  -57.8160 C.3   336  NAD336      0.1244
     38  C3N       36.8650  -11.0690  -59.1680 C.2   336  NAD336      0.0544
     39  C7N       37.3280  -10.0670  -60.2350 C.2   336  NAD336      0.2818
     40  O7N       37.0940  -10.2870  -61.4130 O.2   336  NAD336     -0.2670
     41  N7N       37.9830   -8.9700  -59.8660 N.am  336  NAD336     -0.0839
     42  C4N       36.1450  -12.2490  -59.6310 C.2   336  NAD336      0.0033
     43  C5N       35.7350  -13.1510  -58.6180 C.2   336  NAD336      0.0157
     44  C6N       35.9560  -13.0110  -57.2700 C.2   336  NAD336      0.0633
@<TRIPOS>BOND
     1    40    39    2
     2    39    41   am
     3    39    38    1
     4    42    38    2
     5    42    43    1
     6    38    37    1
     7    43    44    2
     8    37    36    1
     9    25    24    2
    10    44    36    1
    11    36    35    1
    12    24    26    1
    13    24    23    1
    14    24    27    1
    15     2     1    2
    16    23     1    1
    17    27    28    1
    18    35    33    1
    19    35    30    1
    20    34    33    1
    21    33    31    1
    22    30    29    1
    23     1     3    1
    24     1     4    1
    25    28    29    1
    26    29    31    1
    27    31    32    1
    28     4     5    1
    29     5     6    1
    30     9     8    1
    31     8     6    1
    32     8    10    1
    33     6     7    1
    34    10    11    1
    35    10    12    1
    36     7    12    1
    37    12    13    1
    38    13    14    1
    39    13    22    1
    40    14    15    1
    41    22    21    2
    42    22    16    1
    43    21    20    1
    44    15    16    2
    45    16    17    1
    46    20    19    1
    47    17    19    2
    48    17    18    1
