@<TRIPOS>MOLECULE
1vc8_5FA_A_1.pdb
 39 41 0 0 0
SMALL
GASTEIGER

@<TRIPOS>ATOM
      1  N9        68.3020   15.1270  148.6620 N.pl3 501  5FA501     -0.1439
      2  C8        68.1230   13.8160  149.0370 C.3   501  5FA501      0.3377
      3  N7        69.1320   13.4790  149.7540 N.2   501  5FA501     -0.2095
      4  C5        69.9870   14.4930  149.8790 C.2   501  5FA501      0.2526
      5  C6        71.2150   14.7070  150.5040 C.2   501  5FA501      0.4393
      6  N6        71.9050   13.8100  151.2020 N.pl3 501  5FA501      0.2180
      7  N1        71.8100   15.9380  150.3820 N.2   501  5FA501      0.0021
      8  C2        71.2310   16.9750  149.6680 C.3   501  5FA501      0.5254
      9  N3        70.0480   16.7950  149.0650 N.2   501  5FA501     -0.0055
     10  C4        69.4380   15.5540  149.1730 C.2   501  5FA501      0.3518
     11  O5'       63.4010   14.7900  149.1210 O.3   501  5FA501     -0.3112
     12  C5'       64.2180   14.1230  148.1940 C.3   501  5FA501      0.1813
     13  C4'       65.1210   15.1260  147.5300 C.3   501  5FA501      0.1821
     14  O4'       66.0400   15.8390  148.3740 O.3   501  5FA501     -0.3135
     15  C3'       65.9630   14.5430  146.4100 C.3   501  5FA501      0.2184
     16  O3'       65.1790   14.5220  145.2150 O.3   501  5FA501     -0.2174
     17  C2'       67.1550   15.4760  146.3550 C.3   501  5FA501      0.2570
     18  O2'       66.9040   16.5900  145.5420 O.3   501  5FA501     -0.2130
     19  C1'       67.3670   15.9050  147.8010 C.3   501  5FA501      0.3186
     20  PA        63.0790   14.0150  150.4730 P.3   501  5FA501      0.2189
     21  O1A       62.8690   14.9630  151.4730 O.3   501  5FA501     -0.4371
     22  O2A       64.1170   13.0120  150.9030 O.2   501  5FA501     -0.5170
     23  O3A       61.6610   13.6410  150.3940 O.3   501  5FA501     -0.2701
     24  PB        60.4130   13.0600  149.6460 P.3   501  5FA501      0.2237
     25  O1B       59.7600   14.3520  149.5180 O.3   501  5FA501     -0.4369
     26  O2B       60.5460   12.4410  148.2860 O.2   501  5FA501     -0.5168
     27  O3B       59.7040   12.3860  150.7880 O.3   501  5FA501     -0.2699
     28  PG        59.8140   10.9370  151.4090 P.3   501  5FA501      0.2237
     29  O2G       60.1390   10.9570  152.8850 O.3   501  5FA501     -0.4369
     30  O1G       60.8100   10.0940  150.6060 O.2   501  5FA501     -0.5168
     31  O3G       58.3590   10.4320  150.9430 O.3   501  5FA501     -0.2698
     32  PD        57.4470    9.2840  151.0660 P.3   501  5FA501      0.2277
     33  O1D       58.2010    8.0990  150.5630 O.2   501  5FA501     -0.5168
     34  O2D       56.8510    9.0850  152.5260 O.3   501  5FA501     -0.4368
     35  O3D       56.2040    9.5970  150.1140 O.3   501  5FA501     -0.2258
     36  PE        54.9650   10.5720  150.4000 P.3   501  5FA501      0.5373
     37  O1E       54.1070   10.4890  149.1310 O.2   501  5FA501     -0.2221
     38  O2E       55.4490   12.0200  150.7320 O.3   501  5FA501     -0.1143
     39  O3E       54.1040    9.8360  151.6100 O.3   501  5FA501     -0.1143
@<TRIPOS>BOND
     1    16    15    1
     2    18    17    1
     3    17    15    1
     4    17    19    1
     5    15    13    1
     6    13    12    1
     7    13    14    1
     8    19    14    1
     9    19     1    1
    10    12    11    1
    11    26    24    2
    12     1     2    1
    13     1    10    1
    14     2     3    1
    15     9    10    2
    16     9     8    1
    17    11    20    1
    18    37    36    2
    19    10     4    1
    20    25    24    1
    21    24    23    1
    22    24    27    1
    23     8     7    1
    24     3     4    2
    25     4     5    1
    26    35    36    1
    27    35    32    1
    28     7     5    2
    29    23    20    1
    30    36    38    1
    31    36    39    1
    32    20    22    2
    33    20    21    1
    34     5     6    1
    35    33    32    2
    36    30    28    2
    37    27    28    1
    38    31    32    1
    39    31    28    1
    40    32    34    1
    41    28    29    1
