@<TRIPOS>MOLECULE
1vc9_ATP_A_1.pdb
 31 33 0 0 0
SMALL
GASTEIGER

@<TRIPOS>ATOM
      1  PG       -39.1790   69.4070  103.4620 P.3   1001  ATP1001     0.5373
      2  O1G      -39.9970   70.2100  104.4230 O.3   1001  ATP1001    -0.1143
      3  O2G      -37.6540   69.6350  103.6470 O.2   1001  ATP1001    -0.2221
      4  O3G      -39.5330   67.9200  103.6560 O.3   1001  ATP1001    -0.1143
      5  PB       -40.5240   71.0230  101.5680 P.3   1001  ATP1001     0.2277
      6  O1B      -40.6580   70.9610  100.0860 O.2   1001  ATP1001    -0.5168
      7  O2B      -40.0160   72.3640  102.0850 O.3   1001  ATP1001    -0.4368
      8  O3B      -39.6220   69.7880  101.9580 O.3   1001  ATP1001    -0.2258
      9  PA       -42.8990   71.4170  103.2010 P.3   1001  ATP1001     0.2189
     10  O1A      -43.1400   70.5140  104.3350 O.3   1001  ATP1001    -0.4371
     11  O2A      -42.3370   72.7450  103.6260 O.2   1001  ATP1001    -0.5170
     12  O3A      -41.9430   70.6480  102.1910 O.3   1001  ATP1001    -0.2700
     13  O5'      -44.1900   71.5720  102.3190 O.3   1001  ATP1001    -0.3112
     14  C5'      -44.1550   72.4400  101.2150 C.3   1001  ATP1001     0.1813
     15  C4'      -45.3550   72.1440  100.3440 C.3   1001  ATP1001     0.1821
     16  O4'      -46.5740   72.3090  101.0720 O.3   1001  ATP1001    -0.3135
     17  C3'      -45.4320   73.0610   99.1460 C.3   1001  ATP1001     0.2184
     18  O3'      -44.7380   72.4510   98.0710 O.3   1001  ATP1001    -0.2174
     19  C2'      -46.9330   73.2330   98.9530 C.3   1001  ATP1001     0.2570
     20  O2'      -47.5790   72.2890   98.1660 O.3   1001  ATP1001    -0.2130
     21  C1'      -47.4430   73.2150  100.3740 C.3   1001  ATP1001     0.3186
     22  N9       -47.4610   74.4840  101.2040 N.pl3 1001  ATP1001    -0.1439
     23  C8       -46.3690   75.2700  101.5440 C.3   1001  ATP1001     0.3377
     24  N7       -46.8090   76.2820  102.2610 N.2   1001  ATP1001    -0.2095
     25  C5       -48.1570   76.2220  102.4260 C.2   1001  ATP1001     0.2526
     26  C6       -49.1620   76.9850  103.0630 C.2   1001  ATP1001     0.4393
     27  N6       -48.9810   78.1080  103.7480 N.pl3 1001  ATP1001     0.2180
     28  N1       -50.4830   76.5590  102.9890 N.2   1001  ATP1001     0.0021
     29  C2       -50.8410   75.4130  102.3100 C.3   1001  ATP1001     0.5254
     30  N3       -49.8800   74.6540  101.6790 N.2   1001  ATP1001    -0.0055
     31  C4       -48.5680   75.0550  101.7400 C.2   1001  ATP1001     0.3518
@<TRIPOS>BOND
     1    18    17    1
     2    20    19    1
     3    19    17    1
     4    19    21    1
     5    17    15    1
     6     6     5    2
     7    15    16    1
     8    15    14    1
     9    21    16    1
    10    21    22    1
    11    22    23    1
    12    22    31    1
    13    14    13    1
    14    23    24    1
    15     5     8    1
    16     5     7    1
    17     5    12    1
    18    30    31    2
    19    30    29    1
    20    31    25    1
    21     8     1    1
    22    12     9    1
    23    24    25    2
    24    29    28    1
    25    13     9    1
    26    25    26    1
    27    28    26    2
    28    26    27    1
    29     9    11    2
    30     9    10    1
    31     1     3    2
    32     1     4    1
    33     1     2    1
