@<TRIPOS>MOLECULE
1vce_SAH_A_1.pdb
 26 28 0 0 0
SMALL
GASTEIGER

@<TRIPOS>ATOM
      1  N         39.7950   18.9160   32.0740 N.3   1300  SAH1300    -0.1208
      2  CA        39.5250   20.3460   31.8630 C.3   1300  SAH1300     0.1952
      3  CB        39.0570   20.9970   33.1670 C.3   1300  SAH1300     0.0422
      4  CG        37.7780   20.3450   33.6980 C.3   1300  SAH1300     0.0597
      5  SD        37.0070   21.3210   35.0410 S.3   1300  SAH1300    -0.1375
      6  C         40.8090   21.0380   31.4010 C.2   1300  SAH1300     0.3819
      7  O         41.8890   20.4510   31.4760 O.co2 1300  SAH1300    -0.2441
      8  OXT       40.7660   22.1840   30.9560 O.co2 1300  SAH1300    -0.2441
      9  C5'       35.9590   22.4510   34.0500 C.3   1300  SAH1300     0.0899
     10  C4'       36.0250   23.9340   34.4310 C.3   1300  SAH1300     0.1630
     11  O4'       37.2200   24.5730   33.9480 O.3   1300  SAH1300    -0.3153
     12  C3'       34.9060   24.6800   33.7040 C.3   1300  SAH1300     0.2168
     13  O3'       33.6910   24.5280   34.4450 O.3   1300  SAH1300    -0.2175
     14  C2'       35.4060   26.1120   33.8770 C.3   1300  SAH1300     0.2569
     15  O2'       35.1910   26.5600   35.2200 O.3   1300  SAH1300    -0.2130
     16  C1'       36.9020   25.9350   33.6030 C.3   1300  SAH1300     0.3185
     17  N9        37.2060   26.1270   32.1640 N.pl3 1300  SAH1300    -0.1439
     18  C8        37.4290   25.1610   31.2740 C.3   1300  SAH1300     0.3377
     19  N7        37.7480   25.6990   30.0980 N.2   1300  SAH1300    -0.2095
     20  C5        37.7240   27.0210   30.2370 C.2   1300  SAH1300     0.2526
     21  C6        37.9750   28.0950   29.3900 C.2   1300  SAH1300     0.4393
     22  N6        38.2760   27.8900   28.1110 N.pl3 1300  SAH1300     0.2180
     23  N1        37.8780   29.3440   29.8720 N.2   1300  SAH1300     0.0021
     24  C2        37.5410   29.5710   31.1310 C.3   1300  SAH1300     0.5254
     25  N3        37.2900   28.5720   31.9600 N.2   1300  SAH1300    -0.0055
     26  C4        37.3750   27.2960   31.5520 C.2   1300  SAH1300     0.3518
@<TRIPOS>BOND
     1    22    21    1
     2    21    23    2
     3    21    20    1
     4    23    24    1
     5    19    20    2
     6    19    18    1
     7    20    26    1
     8     8     6   ar
     9    24    25    1
    10    18    17    1
    11     6     7   ar
    12     6     2    1
    13    26    25    2
    14    26    17    1
    15     2     1    1
    16     2     3    1
    17    17    16    1
    18     3     4    1
    19    16    14    1
    20    16    11    1
    21     4     5    1
    22    12    14    1
    23    12    10    1
    24    12    13    1
    25    14    15    1
    26    11    10    1
    27     9    10    1
    28     9     5    1
