@<TRIPOS>MOLECULE
1vcf_FMN_A_1.pdb
 31 33 0 0 0
SMALL
GASTEIGER

@<TRIPOS>ATOM
      1  N1       112.0010   -7.9060   25.7560 N.2   501  FMN501     -0.2890
      2  C2       110.9220   -8.3880   25.1270 C.1   501  FMN501      0.3669
      3  O2       110.7160   -8.4620   23.9200 O.2   501  FMN501     -0.1744
      4  N3       109.8150   -8.9020   25.9480 N.2   501  FMN501     -0.2300
      5  C4       109.8530   -8.9060   27.3790 C.1   501  FMN501      0.2513
      6  O4       108.8350   -9.3730   27.9180 O.2   501  FMN501     -0.2057
      7  C4A      110.9980   -8.3950   27.9610 C.2   501  FMN501      0.2700
      8  N5       111.0720   -8.3780   29.2620 N.2   501  FMN501     -0.3878
      9  C5A      112.2270   -7.8530   29.9130 C.2   501  FMN501      0.1320
     10  C6       112.3580   -7.8000   31.3270 C.2   501  FMN501      0.0250
     11  C7       113.5620   -7.2390   31.9350 C.2   501  FMN501     -0.0238
     12  C7M      113.4200   -7.3080   33.4560 C.3   501  FMN501      0.0308
     13  C8       114.6510   -6.7260   31.0920 C.2   501  FMN501     -0.0280
     14  C8M      115.8530   -6.1620   31.7250 C.3   501  FMN501      0.0304
     15  C9       114.5350   -6.7760   29.7180 C.2   501  FMN501     -0.0041
     16  C9A      113.3230   -7.3370   29.0410 C.3   501  FMN501      0.1497
     17  N10      113.2870   -7.3420   27.6490 N.pl3 501  FMN501     -0.2691
     18  C10      112.1460   -7.8590   27.0890 C.2   501  FMN501      0.2416
     19  C1'      114.3100   -6.8590   26.7250 C.3   501  FMN501      0.1294
     20  C2'      114.2730   -5.3690   26.4400 C.3   501  FMN501      0.2044
     21  O2'      113.0370   -5.0270   25.8690 O.3   501  FMN501     -0.2185
     22  C3'      115.4030   -5.0460   25.4910 C.3   501  FMN501      0.2164
     23  O3'      116.1930   -6.2180   25.1520 O.3   501  FMN501     -0.2175
     24  C4'      116.4680   -4.0300   25.9750 C.3   501  FMN501      0.2147
     25  O4'      117.4570   -3.8270   25.0080 O.3   501  FMN501     -0.2176
     26  C5'      117.1740   -4.2970   27.3490 C.3   501  FMN501      0.1892
     27  O5'      117.0230   -3.0140   28.0210 O.3   501  FMN501     -0.2674
     28  P        117.8800   -1.8170   27.4840 P.3   501  FMN501      0.5327
     29  O1P      117.7510   -0.4110   28.0910 O.3   501  FMN501     -0.1145
     30  O2P      119.1510   -2.1610   26.7700 O.2   501  FMN501     -0.2224
     31  O3P      118.6160   -2.0850   28.7900 O.3   501  FMN501     -0.1145
@<TRIPOS>BOND
     1     3     2    2
     2    25    24    1
     3     2     1    2
     4     2     4    2
     5    23    22    1
     6    22    24    1
     7    22    20    1
     8     1    18    2
     9    21    20    1
    10     4     5    2
    11    24    26    1
    12    20    19    1
    13    19    17    1
    14    30    28    2
    15    18    17    1
    16    18     7    1
    17    26    27    1
    18     5     6    2
    19     5     7    1
    20    28    27    1
    21    28    29    1
    22    28    31    1
    23    17    16    1
    24     7     8    2
    25    16    15    1
    26    16     9    1
    27     8     9    2
    28    15    13    2
    29     9    10    1
    30    13    14    1
    31    13    11    1
    32    10    11    2
    33    11    12    1
