@<TRIPOS>MOLECULE
1vcg_FMN_A_1.pdb
 31 33 0 0 0
SMALL
GASTEIGER

@<TRIPOS>ATOM
      1  N1        86.6040   57.9490   26.5940 N.2   501  FMN501     -0.2890
      2  C2        87.3990   57.5280   27.5890 C.1   501  FMN501      0.3669
      3  O2        87.2010   57.5930   28.7970 O.2   501  FMN501     -0.1744
      4  N3        88.6910   56.9020   27.2270 N.2   501  FMN501     -0.2300
      5  C4        89.1190   56.7330   25.8610 C.1   501  FMN501      0.2513
      6  O4        90.2340   56.1860   25.7260 O.2   501  FMN501     -0.2057
      7  C4A       88.2460   57.1990   24.8870 C.2   501  FMN501      0.2700
      8  N5        88.5980   57.0750   23.6380 N.2   501  FMN501     -0.3878
      9  C5A       87.7510   57.5450   22.5900 C.2   501  FMN501      0.1320
     10  C6        88.1010   57.4380   21.2100 C.2   501  FMN501      0.0250
     11  C7        87.2140   57.9430   20.1830 C.2   501  FMN501     -0.0238
     12  C7M       87.8660   57.6880   18.8310 C.3   501  FMN501      0.0308
     13  C8        85.9340   58.5740   20.5430 C.2   501  FMN501     -0.0280
     14  C8M       85.0590   59.0790   19.4760 C.3   501  FMN501      0.0304
     15  C9        85.5650   58.6850   21.8850 C.2   501  FMN501     -0.0041
     16  C9A       86.4480   58.1780   22.9970 C.3   501  FMN501      0.1497
     17  N10       86.0260   58.3200   24.3380 N.pl3 501  FMN501     -0.2691
     18  C10       86.9010   57.8490   25.2820 C.2   501  FMN501      0.2416
     19  C1'       84.7950   58.8900   24.8800 C.3   501  FMN501      0.1294
     20  C2'       84.6040   60.3860   24.9710 C.3   501  FMN501      0.2044
     21  O2'       85.6050   60.9680   25.7590 O.3   501  FMN501     -0.2185
     22  C3'       83.2410   60.5830   25.5900 C.3   501  FMN501      0.2164
     23  O3'       82.5900   59.3140   25.8720 O.3   501  FMN501     -0.2175
     24  C4'       82.1630   61.3300   24.7850 C.3   501  FMN501      0.2147
     25  O4'       80.9680   61.4000   25.5130 O.3   501  FMN501     -0.2176
     26  C5'       81.8490   60.8290   23.3370 C.3   501  FMN501      0.1892
     27  O5'       82.0280   62.0600   22.5860 O.3   501  FMN501     -0.2674
     28  P         80.8210   63.0140   22.4730 P.3   501  FMN501      0.5327
     29  O1P       80.9630   64.3530   21.7670 O.3   501  FMN501     -0.1145
     30  O2P       79.4690   62.3900   22.5630 O.3   501  FMN501     -0.1145
     31  O3P       80.8990   62.5480   21.0400 O.2   501  FMN501     -0.2224
@<TRIPOS>BOND
     1    12    11    1
     2    14    13    1
     3    11    13    1
     4    11    10    2
     5    13    15    2
     6    31    28    2
     7    10     9    1
     8    29    28    1
     9    15    16    1
    10    28    30    1
    11    28    27    1
    12    27    26    1
    13     9    16    1
    14     9     8    2
    15    16    17    1
    16    26    24    1
    17     8     7    2
    18    17    19    1
    19    17    18    1
    20    24    25    1
    21    24    22    1
    22    19    20    1
    23     7    18    1
    24     7     5    1
    25    20    22    1
    26    20    21    1
    27    18     1    2
    28    22    23    1
    29     6     5    2
    30     5     4    2
    31     1     2    2
    32     4     2    2
    33     2     3    2
