@<TRIPOS>MOLECULE
1vci_ATP_A_1.pdb
 31 33 0 0 0
SMALL
GASTEIGER

@<TRIPOS>ATOM
      1  PG        29.2880   49.7460   19.3480 P.3   374  ATP374      0.5373
      2  O1G       28.1310   49.4050   18.4630 O.2   374  ATP374     -0.2221
      3  O2G       29.2170   51.2030   19.8490 O.3   374  ATP374     -0.1143
      4  O3G       29.2920   48.7620   20.5310 O.3   374  ATP374     -0.1143
      5  PB        31.0270   48.1650   17.7330 P.3   374  ATP374      0.2277
      6  O1B       32.3510   48.1770   17.0760 O.2   374  ATP374     -0.5168
      7  O2B       29.8660   47.2880   17.3190 O.3   374  ATP374     -0.4368
      8  O3B       30.6810   49.5020   18.5400 O.3   374  ATP374     -0.2258
      9  PA        29.4620   49.1780   15.4320 P.3   374  ATP374      0.2189
     10  O1A       28.3520   50.0990   15.7260 O.3   374  ATP374     -0.4371
     11  O2A       29.7990   48.6060   14.0820 O.2   374  ATP374     -0.5170
     12  O3A       30.6390   49.2000   16.5310 O.3   374  ATP374     -0.2700
     13  O5'       30.2730   50.4630   14.8890 O.3   374  ATP374     -0.3112
     14  C5'       30.2080   51.7540   15.4790 C.3   374  ATP374      0.1813
     15  C4'       30.7020   52.7580   14.4550 C.3   374  ATP374      0.1821
     16  O4'       29.6350   53.1260   13.6230 O.3   374  ATP374     -0.3135
     17  C3'       31.2190   53.9910   15.1310 C.3   374  ATP374      0.2184
     18  O3'       32.4550   54.3190   14.4980 O.3   374  ATP374     -0.2174
     19  C2'       30.1000   55.0230   14.9480 C.3   374  ATP374      0.2570
     20  O2'       30.4480   56.3730   14.8670 O.3   374  ATP374     -0.2130
     21  C1'       29.3980   54.5370   13.6970 C.3   374  ATP374      0.3186
     22  N9        27.9020   54.6210   13.6120 N.pl3 374  ATP374     -0.1439
     23  C8        27.0290   53.5920   13.9090 C.3   374  ATP374      0.3377
     24  N7        25.8070   54.0460   13.7190 N.2   374  ATP374     -0.2095
     25  C5        25.8130   55.3450   13.3050 C.2   374  ATP374      0.2526
     26  C6        24.8640   56.3330   12.9560 C.2   374  ATP374      0.4393
     27  N6        23.5500   56.1840   12.9510 N.pl3 374  ATP374      0.2180
     28  N1        25.3040   57.6000   12.5690 N.2   374  ATP374      0.0021
     29  C2        26.6460   57.9140   12.5170 C.3   374  ATP374      0.5254
     30  N3        27.5910   56.9640   12.8530 N.2   374  ATP374     -0.0055
     31  C4        27.1750   55.7080   13.2380 C.2   374  ATP374      0.3518
@<TRIPOS>BOND
     1    29    28    1
     2    29    30    1
     3    28    26    2
     4    30    31    2
     5    27    26    1
     6    26    25    1
     7    31    25    1
     8    31    22    1
     9    25    24    2
    10    22    21    1
    11    22    23    1
    12    16    21    1
    13    16    15    1
    14    21    19    1
    15    24    23    1
    16    11     9    2
    17    15    17    1
    18    15    14    1
    19    18    17    1
    20    20    19    1
    21    13     9    1
    22    13    14    1
    23    19    17    1
    24     9    10    1
    25     9    12    1
    26    12     5    1
    27     6     5    2
    28     7     5    1
    29     5     8    1
    30     2     1    2
    31     8     1    1
    32     1     3    1
    33     1     4    1
