@<TRIPOS>MOLECULE
1vcj_IBA_A_1.pdb
 25 26 0 0 0
SMALL
GASTEIGER

@<TRIPOS>ATOM
      1  C6        33.9140   -9.4170   64.8000 C.ar    1  IBA1        0.0164
      2  C5        32.6210   -9.0360   64.3580 C.ar    1  IBA1        0.0687
      3  C4        31.5040   -9.8770   64.6320 C.ar    1  IBA1        0.0791
      4  C3        31.7220  -11.0950   65.3350 C.ar    1  IBA1        0.0239
      5  C2        33.0130  -11.4650   65.7570 C.ar    1  IBA1        0.0811
      6  C7        34.1040  -10.6170   65.4910 C.ar    1  IBA1        0.0079
      7  C1        33.2040  -12.7410   66.4500 C.2     1  IBA1        0.3878
      8  O21       32.3210  -13.7140   66.1440 O.co2   1  IBA1       -0.2406
      9  O20       34.1010  -12.9090   67.1950 O.co2   1  IBA1       -0.2406
     10  N4        30.2750   -9.4810   64.1950 N.pl3   1  IBA1       -0.2381
     11  C8        29.0320  -10.2580   64.2940 C.3     1  IBA1        0.0925
     12  C11       28.7160  -10.8760   62.9100 C.3     1  IBA1        0.0216
     13  C9        27.9150   -9.3170   64.8210 C.3     1  IBA1        0.0216
     14  C12       28.2790  -12.3520   62.9670 C.3     1  IBA1        0.0018
     15  C10       27.5770   -8.1140   63.9220 C.3     1  IBA1        0.0018
     16  N5        32.4790   -7.8500   63.6470 N.am    1  IBA1       -0.2567
     17  C13       33.0240   -7.6000   62.2720 C.3     1  IBA1        0.1130
     18  C14       32.0750   -6.4670   61.7890 C.3     1  IBA1        0.0322
     19  C15       31.5810   -5.7250   63.0360 C.3     1  IBA1        0.0874
     20  C16       31.7640   -6.7950   64.0770 C.2     1  IBA1        0.2294
     21  O13       31.2610   -6.6900   65.2020 O.2     1  IBA1       -0.2745
     22  C18       34.5440   -7.1480   62.2720 C.3     1  IBA1        0.2019
     23  O18       34.8240   -6.2980   63.3880 O.3     1  IBA1       -0.2186
     24  C17       32.8670   -8.8250   61.3170 C.3     1  IBA1        0.1303
     25  N17       31.5340   -9.3880   61.1180 N.3     1  IBA1       -0.1295
@<TRIPOS>BOND
     1    25    24    1
     2    24    17    1
     3    18    17    1
     4    18    19    1
     5    22    17    1
     6    22    23    1
     7    17    16    1
     8    12    14    1
     9    12    11    1
    10    19    20    1
    11    16    20   am
    12    16     2    1
    13    15    13    1
    14    20    21    2
    15    10    11    1
    16    10     3    1
    17    11    13    1
    18     2     3   ar
    19     2     1   ar
    20     3     4   ar
    21     1     6   ar
    22     4     5   ar
    23     6     5   ar
    24     5     7    1
    25     8     7   ar
    26     7     9   ar
