@<TRIPOS>MOLECULE
1vco_GLN_A_1.pdb
 10 9 0 0 0
SMALL
GASTEIGER

@<TRIPOS>ATOM
      1  N          0.3520   28.1540   31.5970 N.3   610  GLN610     -0.1208
      2  CA         1.3720   28.8200   31.0370 C.3   610  GLN610      0.1948
      3  C          2.1660   27.8220   30.2140 C.2   610  GLN610      0.3819
      4  O          3.1780   28.2340   29.5760 O.co2 610  GLN610     -0.2441
      5  CB         2.2770   29.4660   32.1300 C.3   610  GLN610      0.0403
      6  CG         2.5780   28.4450   33.2830 C.3   610  GLN610      0.0906
      7  CD         3.4100   28.9880   34.4400 C.2   610  GLN610      0.2608
      8  OE1        3.9150   30.1170   34.4420 O.2   610  GLN610     -0.2717
      9  NE2        3.5260   28.1690   35.4680 N.am  610  GLN610     -0.0878
     10  OXT        1.8210   26.5830   30.1670 O.co2 610  GLN610     -0.2441
@<TRIPOS>BOND
     1     4     3   ar
     2    10     3   ar
     3     3     2    1
     4     2     1    1
     5     2     5    1
     6     5     6    1
     7     6     7    1
     8     7     8    2
     9     7     9   am
