@<TRIPOS>MOLECULE
1vcu_DAN_A_1.pdb
 20 20 0 0 0
SMALL
GASTEIGER

@<TRIPOS>ATOM
      1  C1        10.3920    3.8360    7.6340 C.2   381  DAN381      0.3914
      2  C2        10.4530    5.0810    8.3340 C.3   381  DAN381      0.2203
      3  C3         9.4390    5.3690    9.4640 C.3   381  DAN381      0.0760
      4  C4        10.0400    6.3520   10.4910 C.3   381  DAN381      0.1773
      5  C5        10.8740    7.4410    9.8330 C.3   381  DAN381      0.1552
      6  C6        12.0060    6.7630    9.0230 C.3   381  DAN381      0.1710
      7  C7        12.9210    7.7780    8.2950 C.3   381  DAN381      0.2134
      8  C8        14.0940    7.1090    7.5110 C.3   381  DAN381      0.2173
      9  C9        14.9750    8.1510    6.8080 C.3   381  DAN381      0.2175
     10  C10       11.0030    9.5750   11.1250 C.2   381  DAN381      0.2420
     11  C11       11.6100   10.3450   12.2730 C.3   381  DAN381      0.0964
     12  N5        11.3800    8.3040   10.9130 N.am  381  DAN381     -0.2020
     13  O1A       11.4290    3.3790    6.8690 O.co2 381  DAN381     -0.2430
     14  O1B        9.3360    3.0920    7.7250 O.co2 381  DAN381     -0.2430
     15  O4         8.9620    6.9120   11.2330 O.3   381  DAN381     -0.2211
     16  O6        11.4020    5.9040    8.0000 O.3   381  DAN381     -0.3429
     17  O7        12.1690    8.5060    7.3140 O.3   381  DAN381     -0.2176
     18  O8        14.9200    6.3740    8.4160 O.3   381  DAN381     -0.2175
     19  O9        15.7280    8.9330    7.7010 O.3   381  DAN381     -0.2175
     20  O10       10.0790   10.2290   10.3410 O.2   381  DAN381     -0.2733
@<TRIPOS>BOND
     1     9     8    1
     2     9    19    1
     3    13     1   ar
     4    17     7    1
     5     8     7    1
     6     8    18    1
     7     1    14   ar
     8     1     2    1
     9    16     2    1
    10    16     6    1
    11     7     6    1
    12     2     3    1
    13     6     5    1
    14     3     4    1
    15     5     4    1
    16     5    12    1
    17    20    10    2
    18     4    15    1
    19    12    10   am
    20    10    11    1
