@<TRIPOS>MOLECULE
1vcz_5GP_A_1.pdb
 24 26 0 0 0
SMALL
GASTEIGER

@<TRIPOS>ATOM
      1  P        -24.4720   33.8880  -61.0570 P.3   295  5GP295      0.5327
      2  O1P      -23.4610   33.7040  -62.1280 O.2   295  5GP295     -0.2224
      3  O2P      -23.9890   34.8050  -59.9360 O.3   295  5GP295     -0.1145
      4  O3P      -25.8370   34.4140  -61.6490 O.3   295  5GP295     -0.1145
      5  O5'      -24.8680   32.4710  -60.3510 O.3   295  5GP295     -0.2675
      6  C5'      -25.7710   32.4230  -59.2160 C.3   295  5GP295      0.1859
      7  C4'      -25.8780   31.0370  -58.5820 C.3   295  5GP295      0.1801
      8  O4'      -25.6060   31.2580  -57.1350 O.3   295  5GP295     -0.3326
      9  C3'      -27.2320   30.3390  -58.5900 C.3   295  5GP295      0.2158
     10  O3'      -27.4510   29.5240  -59.7210 O.3   295  5GP295     -0.2175
     11  C2'      -27.2330   29.5290  -57.2960 C.3   295  5GP295      0.2310
     12  O2'      -26.5410   28.2790  -57.4020 O.3   295  5GP295     -0.2158
     13  C1'      -26.5550   30.4730  -56.3500 C.3   295  5GP295      0.2293
     14  N9       -27.4340   31.3780  -55.5910 N.pl3 295  5GP295     -0.2354
     15  C8       -27.7870   32.6880  -55.8570 C.3   295  5GP295      0.2246
     16  N7       -28.8150   33.1370  -55.1880 N.2   295  5GP295     -0.2322
     17  C5       -29.1140   32.0470  -54.3310 C.2   295  5GP295      0.2182
     18  C6       -30.0890   31.9940  -53.2920 C.1   295  5GP295      0.2372
     19  O6       -30.8530   32.8800  -52.9400 O.2   295  5GP295     -0.2069
     20  N1       -30.0960   30.7270  -52.6400 N.2   295  5GP295     -0.2485
     21  C2       -29.2580   29.6600  -52.9790 C.1   295  5GP295      0.2531
     22  N2       -29.4140   28.5840  -52.1860 N.pl3 295  5GP295     -0.0226
     23  N3       -28.3530   29.6860  -53.9910 N.2   295  5GP295     -0.3074
     24  C4       -28.3100   30.9470  -54.5980 C.2   295  5GP295      0.2300
@<TRIPOS>BOND
     1     2     1    2
     2     4     1    1
     3     1     5    1
     4     1     3    1
     5     5     6    1
     6    10     9    1
     7     6     7    1
     8     9     7    1
     9     9    11    1
    10     7     8    1
    11    12    11    1
    12    11    13    1
    13     8    13    1
    14    13    14    1
    15    15    14    1
    16    15    16    1
    17    14    24    1
    18    16    17    2
    19    24    17    1
    20    24    23    2
    21    17    18    1
    22    23    21    2
    23    18    19    2
    24    18    20    2
    25    21    20    2
    26    21    22    1
