@<TRIPOS>MOLECULE
1vd1_AMP_A_1.pdb
 23 25 0 0 0
SMALL
GASTEIGER

@<TRIPOS>ATOM
      1  P        -26.7040   28.0940  -59.0260 P.3   295  AMP295      0.5327
      2  O1P      -25.5470   27.8030  -59.8910 O.2   295  AMP295     -0.2224
      3  O2P      -26.3680   28.0520  -57.5670 O.3   295  AMP295     -0.1145
      4  O3P      -27.9090   27.2100  -59.3630 O.3   295  AMP295     -0.1145
      5  O5'      -27.0670   29.6360  -59.4200 O.3   295  AMP295     -0.2675
      6  C5'      -28.2610   30.2580  -58.9120 C.3   295  AMP295      0.1860
      7  C4'      -28.0210   31.7900  -58.9070 C.3   295  AMP295      0.1823
      8  O4'      -28.7710   32.3570  -57.7780 O.3   295  AMP295     -0.3135
      9  C3'      -26.4120   32.2220  -58.7060 C.3   295  AMP295      0.2184
     10  O3'      -26.2270   33.4440  -59.5760 O.3   295  AMP295     -0.2174
     11  C2'      -26.3730   32.4980  -57.1210 C.3   295  AMP295      0.2570
     12  O2'      -25.6840   33.6770  -56.7460 O.3   295  AMP295     -0.2130
     13  C1'      -27.9250   32.6390  -56.6460 C.3   295  AMP295      0.3186
     14  N9       -28.2640   31.6630  -55.5770 N.pl3 295  AMP295     -0.1439
     15  C8       -27.7290   30.3750  -55.3570 C.3   295  AMP295      0.3377
     16  N7       -28.2360   29.6610  -54.3320 N.2   295  AMP295     -0.2095
     17  C5       -29.1530   30.5970  -53.8530 C.2   295  AMP295      0.2526
     18  C6       -30.0550   30.5180  -52.7650 C.2   295  AMP295      0.4393
     19  N6       -30.0750   29.3570  -52.0160 N.pl3 295  AMP295      0.2180
     20  N1       -30.8510   31.6550  -52.5450 N.2   295  AMP295      0.0021
     21  C2       -30.7820   32.7680  -53.3160 C.3   295  AMP295      0.5254
     22  N3       -29.9350   32.9330  -54.3600 N.2   295  AMP295     -0.0055
     23  C4       -29.1750   31.8220  -54.5840 C.2   295  AMP295      0.3518
@<TRIPOS>BOND
     1     2     1    2
     2    10     9    1
     3     5     1    1
     4     5     6    1
     5     4     1    1
     6     1     3    1
     7     6     7    1
     8     7     9    1
     9     7     8    1
    10     9    11    1
    11     8    13    1
    12    11    12    1
    13    11    13    1
    14    13    14    1
    15    14    15    1
    16    14    23    1
    17    15    16    1
    18    23    22    2
    19    23    17    1
    20    22    21    1
    21    16    17    2
    22    17    18    1
    23    21    20    1
    24    18    20    2
    25    18    19    1
