@<TRIPOS>MOLECULE
1vd3_U2P_A_1.pdb
 21 22 0 0 0
SMALL
GASTEIGER

@<TRIPOS>ATOM
      1  O5'      -28.4460   34.2230  -60.5490 O.3   214  U2P214     -0.2176
      2  C5'      -27.8280   33.8210  -59.3020 C.3   214  U2P214      0.2142
      3  C4'      -27.2780   32.3930  -59.4260 C.3   214  U2P214      0.1828
      4  O4'      -26.6650   31.9820  -58.1140 O.3   214  U2P214     -0.3319
      5  C1'      -27.2700   30.7580  -57.4470 C.3   214  U2P214      0.2373
      6  N1       -27.9590   30.9810  -56.1020 N.am  214  U2P214     -0.1767
      7  C6       -28.6610   32.1590  -56.0200 C.2   214  U2P214      0.0929
      8  C5       -29.5570   32.4350  -54.9540 C.2   214  U2P214      0.1242
      9  C4       -29.6910   31.4260  -53.8790 C.1   214  U2P214      0.2182
     10  O4       -30.5140   31.5360  -52.9760 O.2   214  U2P214     -0.2085
     11  N3       -28.8010   30.3090  -53.9630 N.2   214  U2P214     -0.2452
     12  C2       -27.9010   30.0360  -55.0210 C.1   214  U2P214      0.2845
     13  O2       -27.1670   29.0710  -54.9670 O.2   214  U2P214     -0.1918
     14  C2'      -27.9980   30.1350  -58.6580 C.3   214  U2P214      0.2063
     15  O2'      -27.1140   29.3160  -59.4810 O.3   214  U2P214     -0.2656
     16  P        -26.6360   27.8450  -59.1940 P.3   214  U2P214      0.5327
     17  O1P      -25.6380   27.0270  -59.8350 O.2   214  U2P214     -0.2224
     18  O2P      -26.7340   27.5830  -57.7250 O.3   214  U2P214     -0.1145
     19  O3P      -27.7740   27.1050  -59.7110 O.3   214  U2P214     -0.1145
     20  C3'      -28.4080   31.3390  -59.5230 C.3   214  U2P214      0.2133
     21  O3'      -28.5530   30.8760  -60.9160 O.3   214  U2P214     -0.2176
@<TRIPOS>BOND
     1    21    20    1
     2     1     2    1
     3    17    16    2
     4    19    16    1
     5    20     3    1
     6    20    14    1
     7    15    16    1
     8    15    14    1
     9     3     2    1
    10     3     4    1
    11    16    18    1
    12    14     5    1
    13     4     5    1
    14     5     6    1
    15     6     7    1
    16     6    12   am
    17     7     8    2
    18    12    13    2
    19    12    11    2
    20     8     9    1
    21    11     9    2
    22     9    10    2
