@<TRIPOS>MOLECULE
1vdn_III_B_1.pdb
 37 39 0 0 0
SMALL
GASTEIGER

@<TRIPOS>ATOM
      1  C        -28.6330   29.7210  -15.2860 C.2     1  ACE1        0.3205
      2  O        -27.7290   30.5480  -15.0770 O.2     1  ACE1       -0.2633
      3  N        -29.6880   29.6050  -14.4780 N.am    2  ALA2       -0.1901
      4  CA       -29.9920   30.5850  -13.4380 C.3     2  ALA2        0.1733
      5  C        -29.4850   30.1410  -12.0660 C.2     2  ALA2        0.2616
      6  O        -29.5800   30.8890  -11.0950 O.2     2  ALA2       -0.2715
      7  CB       -31.5000   30.8420  -13.3820 C.3     2  ALA2        0.0334
      8  N        -28.9680   28.9190  -11.9850 N.am    3  ALA3       -0.1964
      9  CA       -28.4210   28.4040  -10.7290 C.3     3  ALA3        0.1713
     10  C        -26.9140   28.6330  -10.8100 C.2     3  ALA3        0.2458
     11  O        -26.3330   28.5490  -11.8920 O.2     3  ALA3       -0.2730
     12  CB       -28.7260   26.9220  -10.5930 C.3     3  ALA3        0.0333
     13  N        -26.2490   28.8760   -9.6680 N.am    4  PRO4       -0.2716
     14  CA       -26.7590   28.9500   -8.2940 C.3     4  PRO4        0.1536
     15  C        -27.5890   30.1790   -7.9380 C.2     4  PRO4        0.2598
     16  O        -27.2700   31.3020   -8.3310 O.2     4  PRO4       -0.2715
     17  CB       -25.4880   28.8630   -7.4650 C.3     4  PRO4        0.0310
     18  CG       -24.5300   29.6600   -8.2930 C.3     4  PRO4        0.0237
     19  CD       -24.7950   29.1240   -9.6890 C.3     4  PRO4        0.0939
     20  N        -28.6480   29.9490   -7.1660 N.am    5  ALA5       -0.1964
     21  CA       -29.5420   31.0170   -6.7340 C.3     5  ALA5        0.1732
     22  C        -28.8410   31.9560   -5.7610 C.2     5  ALA5        0.2654
     23  O        -28.0130   31.5150   -4.9590 O.2     5  ALA5       -0.2711
     24  CB       -30.7850   30.4180   -6.0770 C.3     5  ALA5        0.0334
     25  N        -29.2020   33.2390   -5.8400 N.am    6  MCM6       -0.1777
     26  CA       -28.6840   34.2720   -5.0420 C.ar    6  MCM6        0.0765
     27  C2       -27.7910   34.0720   -3.9640 C.ar    6  MCM6        0.0542
     28  C3       -27.3130   35.1550   -3.2160 C.ar    6  MCM6        0.1497
     29  C4       -25.9290   35.9870   -1.3910 C.ar    6  MCM6        0.3456
     30  C5       -26.3290   37.3050   -1.6930 C.ar    6  MCM6        0.0781
     31  C6       -27.2220   37.5730   -2.7540 C.ar    6  MCM6       -0.0125
     32  C7       -27.7280   36.4830   -3.5370 C.ar    6  MCM6        0.0310
     33  C8       -28.6320   36.6940   -4.6240 C.ar    6  MCM6        0.0041
     34  C9       -29.0990   35.5840   -5.3650 C.ar    6  MCM6        0.0168
     35  C10      -27.5890   38.8970   -3.0150 C.3     6  MCM6        0.0313
     36  O1       -26.4350   34.9320   -2.1660 O.2     6  MCM6       -0.4210
     37  O2       -25.0640   35.7290   -0.3670 O.2     6  MCM6       -0.2445
@<TRIPOS>BOND
     1     1     2    2
     2     1     3   am
     3     3     4    1
     4     4     7    1
     5     4     5    1
     6     5     8   am
     7     5     6    2
     8     8     9    1
     9    11    10    2
    10    10     9    1
    11    10    13   am
    12     9    12    1
    13    19    13    1
    14    19    18    1
    15    13    14    1
    16    16    15    2
    17    14    15    1
    18    14    17    1
    19    18    17    1
    20    15    20   am
    21    20    21    1
    22    21    24    1
    23    21    22    1
    24    25    22   am
    25    25    26    1
    26    22    23    2
    27    34    26   ar
    28    34    33   ar
    29    26    27   ar
    30    33    32   ar
    31    27    28   ar
    32    32    28   ar
    33    32    31   ar
    34    28    36   ar
    35    35    31    1
    36    31    30   ar
    37    36    29   ar
    38    30    29   ar
    39    29    37    2
