@<TRIPOS>MOLECULE
1vdv_YSH_A_1.pdb
 22 23 0 0 0
SMALL
GASTEIGER

@<TRIPOS>ATOM
      1  C1        70.0330   47.3400   39.0340 C.ar  5101  YSH5101     0.1086
      2  N2        68.6850   46.3870   39.3700 N.ar  5101  YSH5101    -0.2279
      3  N3        67.9370   46.1700   38.2810 N.ar  5101  YSH5101    -0.1632
      4  C4        68.4260   46.7760   37.1250 C.ar  5101  YSH5101     0.1286
      5  C5        69.5770   47.4580   37.3940 C.ar  5101  YSH5101     0.1197
      6  C6        68.4540   45.8940   40.8140 C.ar  5101  YSH5101     0.0837
      7  C7        67.7450   44.6700   40.9570 C.ar  5101  YSH5101     0.0325
      8  C8        67.5120   44.1770   42.2470 C.ar  5101  YSH5101     0.1038
      9  C9        67.9910   44.9070   43.3930 C.ar  5101  YSH5101     0.1481
     10  C10       68.7750   46.2610   43.2710 C.ar  5101  YSH5101     0.0391
     11  C11       69.0130   46.7620   42.0620 C.ar  5101  YSH5101     0.0223
     12  C12       66.7610   42.8660   42.4780 C.1   5101  YSH5101     0.1035
     13  N13       66.2110   41.8660   42.6460 N.1   5101  YSH5101    -0.1907
     14  O14       67.7290   44.3430   44.7050 O.3   5101  YSH5101    -0.4748
     15  C15       68.3060   45.1850   45.8470 C.3   5101  YSH5101     0.2052
     16  C16       68.8010   44.2900   47.0280 C.3   5101  YSH5101     0.0404
     17  C17       69.8610   43.2830   46.5970 C.3   5101  YSH5101     0.0037
     18  C18       69.3720   45.1610   48.1220 C.3   5101  YSH5101     0.0037
     19  C19       67.6130   43.4740   47.5170 C.3   5101  YSH5101     0.0037
     20  C20       70.3770   48.2310   36.4430 C.2   5101  YSH5101     0.3908
     21  O21       70.0410   48.3260   35.2720 O.co2 5101  YSH5101    -0.2404
     22  O22       71.5100   48.8180   37.0010 O.co2 5101  YSH5101    -0.2404
@<TRIPOS>BOND
     1    21    20   ar
     2    20    22   ar
     3    20     5    1
     4     4     5   ar
     5     4     3   ar
     6     5     1   ar
     7     3     2   ar
     8     1     2   ar
     9     2     6    1
    10     6     7   ar
    11     6    11   ar
    12     7     8   ar
    13    11    10   ar
    14     8    12    1
    15     8     9   ar
    16    12    13    3
    17    10     9   ar
    18     9    14    1
    19    14    15    1
    20    15    16    1
    21    17    16    1
    22    16    19    1
    23    16    18    1
