@<TRIPOS>MOLECULE
1ve1_PLP_A_1.pdb
 15 15 0 0 0
SMALL
GASTEIGER

@<TRIPOS>ATOM
      1  N1       -19.7700   48.4730   26.1160 N.ar  413  PLP413     -0.2452
      2  C2       -19.2610   48.3120   24.8620 C.ar  413  PLP413      0.0978
      3  C2A      -19.6760   47.0720   24.0610 C.3   413  PLP413      0.0555
      4  C3       -18.3960   49.2610   24.3450 C.ar  413  PLP413      0.2049
      5  O3       -17.8670   49.1090   23.0920 O.3   413  PLP413     -0.2857
      6  C4       -18.0560   50.3660   25.1050 C.ar  413  PLP413      0.0182
      7  C4A      -17.1010   51.4150   24.5520 C.3   413  PLP413      0.0342
      8  C5       -18.5920   50.5180   26.3930 C.ar  413  PLP413      0.0261
      9  C6       -19.4380   49.5710   26.8800 C.ar  413  PLP413      0.0965
     10  C5A      -18.2660   51.7300   27.3190 C.3   413  PLP413      0.1815
     11  O4P      -18.5340   53.0830   26.7890 O.3   413  PLP413     -0.2653
     12  P        -17.4800   54.2320   27.1530 P.3   413  PLP413      0.5329
     13  O1P      -16.2060   53.9410   26.4550 O.2   413  PLP413     -0.2224
     14  O2P      -18.0350   55.6010   26.6940 O.3   413  PLP413     -0.1145
     15  O3P      -17.3930   54.2320   28.6310 O.3   413  PLP413     -0.1145
@<TRIPOS>BOND
     1     5     4    1
     2     3     2    1
     3     4     2   ar
     4     4     6   ar
     5     7     6    1
     6     2     1   ar
     7     6     8   ar
     8     1     9   ar
     9     8     9   ar
    10     8    10    1
    11    13    12    2
    12    14    12    1
    13    11    12    1
    14    11    10    1
    15    12    15    1
