@<TRIPOS>MOLECULE
1ve3_SAM_A_1.pdb
 27 29 0 0 0
SMALL
GASTEIGER

@<TRIPOS>ATOM
      1  N         26.9130   13.2930   89.9550 N.3   302  SAM302     -0.1208
      2  CA        26.4450   13.2970   88.5390 C.3   302  SAM302      0.1952
      3  C         25.3270   14.3240   88.3760 C.2   302  SAM302      0.3819
      4  O         25.2950   14.9960   87.3370 O.co2 302  SAM302     -0.2441
      5  OXT       24.5060   14.3950   89.3430 O.co2 302  SAM302     -0.2441
      6  CB        25.9150   11.9350   88.2240 C.3   302  SAM302      0.0414
      7  CG        25.9540   11.6050   86.8150 C.3   302  SAM302      0.0503
      8  SD        25.3010    9.9380   86.4020 S.3   302  SAM302     -0.1761
      9  CE        23.6890    9.9370   86.8760 C.3   302  SAM302      0.0590
     10  C5'       26.3290    8.7950   87.3360 C.3   302  SAM302      0.0806
     11  C4'       27.9160    8.8120   87.0380 C.3   302  SAM302      0.1622
     12  O4'       28.5800    7.8250   87.9010 O.3   302  SAM302     -0.3153
     13  C3'       28.2820    8.3290   85.6430 C.3   302  SAM302      0.2168
     14  O3'       28.7940    9.6450   85.1000 O.3   302  SAM302     -0.2175
     15  C2'       29.4630    7.4220   85.6950 C.3   302  SAM302      0.2569
     16  O2'       30.5340    7.4780   84.8050 O.3   302  SAM302     -0.2130
     17  C1'       29.7850    7.5170   87.2330 C.3   302  SAM302      0.3185
     18  N9        30.3800    6.2840   87.7640 N.pl3 302  SAM302     -0.1439
     19  C8        29.9810    4.9490   87.7100 C.3   302  SAM302      0.3377
     20  N7        30.7990    4.1270   88.3210 N.2   302  SAM302     -0.2095
     21  C5        31.7850    4.9310   88.8030 C.2   302  SAM302      0.2526
     22  C6        33.0060    4.6960   89.5740 C.2   302  SAM302      0.4393
     23  N6        33.3810    3.4690   89.9730 N.pl3 302  SAM302      0.2180
     24  N1        33.8310    5.7890   89.9170 N.2   302  SAM302      0.0021
     25  C2        33.4820    7.0570   89.5270 C.3   302  SAM302      0.5254
     26  N3        32.3720    7.3840   88.8090 N.2   302  SAM302     -0.0055
     27  C4        31.5510    6.2790   88.4710 C.2   302  SAM302      0.3518
@<TRIPOS>BOND
     1    16    15    1
     2    14    13    1
     3    13    15    1
     4    13    11    1
     5    15    17    1
     6     8     7    1
     7     8     9    1
     8     8    10    1
     9     7     6    1
    10    11    10    1
    11    11    12    1
    12    17    18    1
    13    17    12    1
    14     4     3   ar
    15    19    18    1
    16    19    20    1
    17    18    27    1
    18     6     2    1
    19    20    21    2
    20     3     2    1
    21     3     5   ar
    22    27    21    1
    23    27    26    2
    24     2     1    1
    25    21    22    1
    26    26    25    1
    27    25    24    1
    28    22    24    2
    29    22    23    1
