@<TRIPOS>MOLECULE
1ve5_PLP_A_1.pdb
 15 15 0 0 0
SMALL
GASTEIGER

@<TRIPOS>ATOM
      1  N1        12.2940   22.5930   14.0710 N.ar  413  PLP413     -0.2452
      2  C2        13.4860   22.6750   14.7080 C.ar  413  PLP413      0.0978
      3  C2A       13.5940   22.1380   16.1720 C.3   413  PLP413      0.0555
      4  C3        14.5850   23.2310   14.0580 C.ar  413  PLP413      0.2049
      5  O3        15.7900   23.2990   14.7120 O.3   413  PLP413     -0.2857
      6  C4        14.4750   23.7110   12.7560 C.ar  413  PLP413      0.0182
      7  C4A       15.7450   24.3250   12.0860 C.3   413  PLP413      0.0342
      8  C5        13.2340   23.6180   12.1160 C.ar  413  PLP413      0.0261
      9  C6        12.1670   23.0590   12.7860 C.ar  413  PLP413      0.0965
     10  C5A       12.9520   24.0990   10.7190 C.3   413  PLP413      0.1815
     11  O4P       13.7070   23.4180    9.6900 O.3   413  PLP413     -0.2653
     12  P         13.9450   24.2410    8.3150 P.3   413  PLP413      0.5329
     13  O1P       12.6270   24.3480    7.6600 O.3   413  PLP413     -0.1145
     14  O2P       14.8250   23.1650    7.5090 O.2   413  PLP413     -0.2224
     15  O3P       14.7800   25.4480    8.5900 O.3   413  PLP413     -0.1145
@<TRIPOS>BOND
     1    14    12    2
     2    13    12    1
     3    12    15    1
     4    12    11    1
     5    11    10    1
     6    10     8    1
     7     7     6    1
     8     8     6   ar
     9     8     9   ar
    10     6     4   ar
    11     9     1   ar
    12     4     2   ar
    13     4     5    1
    14     1     2   ar
    15     2     3    1
