@<TRIPOS>MOLECULE
1ve7_4NP_A_1.pdb
 14 14 0 0 0
SMALL
GASTEIGER

@<TRIPOS>ATOM
      1  P         31.9040  127.0070   24.0860 P.3   701  4NP701      0.5887
      2  O1        31.3760  125.7790   24.9560 O.3   701  4NP701     -0.3998
      3  O2        30.7160  127.5700   23.6590 O.3   701  4NP701     -0.1039
      4  O3        32.5690  126.5200   22.9450 O.2   701  4NP701     -0.2114
      5  O4        32.8800  127.9720   25.0280 O.3   701  4NP701     -0.1039
      6  C1        30.6700  125.8660   26.1660 C.ar  701  4NP701      0.1491
      7  C2        29.2950  126.1780   26.1430 C.ar  701  4NP701      0.0391
      8  C3        28.5400  126.2840   27.3150 C.ar  701  4NP701      0.0272
      9  C4        29.1830  126.0870   28.5610 C.ar  701  4NP701      0.1431
     10  C5        30.5660  125.7640   28.6050 C.ar  701  4NP701      0.0272
     11  C6        31.3230  125.6600   27.4160 C.ar  701  4NP701      0.0391
     12  N         28.4560  126.1900   29.7740 N.pl3 701  4NP701      0.0577
     13  O5        27.2910  126.4660   29.7120 O.2   701  4NP701     -0.1261
     14  O6        28.9710  126.0280   30.7560 O.2   701  4NP701     -0.1261
@<TRIPOS>BOND
     1     4     1    2
     2     3     1    1
     3     1     2    1
     4     1     5    1
     5     2     6    1
     6     7     6   ar
     7     7     8   ar
     8     6    11   ar
     9     8     9   ar
    10    11    10   ar
    11     9    10   ar
    12     9    12    1
    13    13    12    2
    14    12    14    2
