@<TRIPOS>MOLECULE
1vea_HBN_B_1.pdb
 21 23 0 0 0
SMALL
GASTEIGER

@<TRIPOS>ATOM
      1  C1        47.5760 -104.1540   85.8410 C.ar  1001  HBN1001     0.0000
      2  C2        48.7270 -103.3370   85.8210 C.ar  1001  HBN1001     0.0000
      3  C3        49.0690 -102.5490   86.9540 C.ar  1001  HBN1001     0.0000
      4  C4        48.2600 -102.5680   88.1270 C.ar  1001  HBN1001     0.0000
      5  C4A       47.0960 -103.3810   88.1770 C.ar  1001  HBN1001     0.0001
      6  C8A       46.7520 -104.1930   86.9960 C.ar  1001  HBN1001     0.0013
      7  C8        45.6150 -104.9930   87.0380 C.ar  1001  HBN1001     0.0166
      8  C7        44.7720 -105.0540   88.1830 C.ar  1001  HBN1001     0.0737
      9  C6        45.0930 -104.2690   89.3340 C.ar  1001  HBN1001     0.0166
     10  C5        46.2500 -103.4340   89.3320 C.ar  1001  HBN1001     0.0013
     11  N1        43.7410 -105.8130   88.1690 N.am  1001  HBN1001    -0.1743
     12  N         40.7010 -107.8190   89.1320 N.pl3 1001  HBN1001    -0.1232
     13  CA        41.8840 -107.4200   88.3920 C.2   1001  HBN1001     0.1454
     14  C         43.0920 -106.7670   89.0460 C.2   1001  HBN1001     0.2859
     15  O         43.4620 -107.0920   90.1560 O.2   1001  HBN1001    -0.2665
     16  CB        42.0380 -107.6090   87.0730 C.2   1001  HBN1001     0.0395
     17  CG        41.2440 -108.1990   85.9550 C.2   1001  HBN1001     0.0868
     18  ND1       41.6720 -108.0770   84.6490 N.2   1001  HBN1001    -0.2266
     19  CD2       40.0600 -108.9180   86.0510 C.3   1001  HBN1001     0.1726
     20  CE1       40.6730 -108.7600   84.0420 C.2   1001  HBN1001     0.1943
     21  NE2       39.6590 -109.3010   84.7860 N.2   1001  HBN1001    -0.2436
@<TRIPOS>BOND
     1    20    18    1
     2    20    21    2
     3    18    17    2
     4    21    19    1
     5     2     1   ar
     6     2     3   ar
     7     1     6   ar
     8    17    19    1
     9    17    16    1
    10     3     4   ar
    11     6     7   ar
    12     6     5   ar
    13     7     8   ar
    14    16    13    2
    15     4     5   ar
    16    11     8    1
    17    11    14   am
    18     5    10   ar
    19     8     9   ar
    20    13    14    1
    21    13    12    1
    22    14    15    2
    23    10     9   ar
