@<TRIPOS>MOLECULE
1veb_I05_A_1.pdb
 36 39 0 0 0
SMALL
GASTEIGER

@<TRIPOS>ATOM
      1  F96       16.8240   11.9770   -3.3020 F     351  I05351     -0.2008
      2  C76       15.8530   11.7290   -4.1690 C.ar  351  I05351      0.1799
      3  C75       16.1500   11.0570   -5.3140 C.ar  351  I05351      0.1663
      4  O95       17.4690   10.7100   -5.4620 O.3   351  I05351     -0.4692
      5  C97       18.0560   10.6450   -6.7560 C.3   351  I05351      0.2526
      6  C74       15.1360   10.7910   -6.2300 C.ar  351  I05351      0.0425
      7  C73       13.8390   11.2110   -5.9470 C.ar  351  I05351      0.0454
      8  C72       13.5570   11.8930   -4.7480 C.ar  351  I05351      0.2011
      9  O92       12.3110   12.2920   -4.4700 O.3   351  I05351     -0.2864
     10  C71       14.5960   12.1430   -3.8540 C.ar  351  I05351      0.1082
     11  C61       14.5430   12.8900   -2.5590 C.2   351  I05351      0.2009
     12  O62       15.2520   13.8790   -2.4840 O.2   351  I05351     -0.2864
     13  C54       13.8030   12.5010   -1.3470 C.ar  351  I05351      0.0391
     14  C55       13.5010   11.1890   -1.1020 C.ar  351  I05351      0.0029
     15  C56       12.8310   10.8320    0.0810 C.ar  351  I05351     -0.0018
     16  C53       13.4680   13.4670   -0.4180 C.ar  351  I05351      0.0029
     17  C52       12.8010   13.1110    0.7520 C.ar  351  I05351     -0.0018
     18  C51       12.4680   11.7820    1.0270 C.ar  351  I05351      0.0073
     19  C42       11.7440   11.4020    2.3160 C.3   351  I05351      0.1686
     20  O41       11.1540   10.1240    2.2150 O.3   351  I05351     -0.3497
     21  C37       10.4810    9.6310    3.3640 C.3   351  I05351      0.1370
     22  C36       11.5120    9.1520    4.3610 C.3   351  I05351      0.0329
     23  C35       12.6820    8.3870    3.7700 C.3   351  I05351      0.0214
     24  C34       12.3730    6.9230    3.6020 C.3   351  I05351      0.0888
     25  N33       11.2480    6.7470    2.7220 N.3   351  I05351     -0.2162
     26  C32        9.9620    7.0790    3.2880 C.3   351  I05351      0.1128
     27  C31        9.5220    8.5090    2.9420 C.3   351  I05351      0.1399
     28  N23        8.1780    8.7210    3.4780 N.am  351  I05351     -0.1994
     29  C21        7.1590    8.9870    2.6590 C.2   351  I05351      0.2649
     30  O22        7.3670    9.1610    1.4620 O.2   351  I05351     -0.2684
     31  C14        5.7400    9.0830    3.1800 C.ar  351  I05351      0.0581
     32  C13        4.6720    9.2630    2.3010 C.ar  351  I05351      0.0252
     33  C12        3.3770    9.3330    2.7790 C.ar  351  I05351      0.0990
     34  N11        3.1440    9.2170    4.0740 N.ar  351  I05351     -0.2423
     35  C16        4.1200    9.0440    4.9540 C.ar  351  I05351      0.0990
     36  C15        5.4440    8.9780    4.5360 C.ar  351  I05351      0.0252
@<TRIPOS>BOND
     1     5     4    1
     2     6     7   ar
     3     6     3   ar
     4     7     8   ar
     5     4     3    1
     6     3     2   ar
     7     8     9    1
     8     8    10   ar
     9     2    10   ar
    10     2     1    1
    11    10    11    1
    12    11    12    2
    13    11    13    1
    14    13    14   ar
    15    13    16   ar
    16    14    15   ar
    17    16    17   ar
    18    15    18   ar
    19    17    18   ar
    20    18    19    1
    21    30    29    2
    22    20    19    1
    23    20    21    1
    24    32    33   ar
    25    32    31   ar
    26    29    31    1
    27    29    28   am
    28    25    26    1
    29    25    24    1
    30    33    34   ar
    31    27    26    1
    32    27    21    1
    33    27    28    1
    34    31    36   ar
    35    21    22    1
    36    24    23    1
    37    23    22    1
    38    34    35   ar
    39    36    35   ar
