@<TRIPOS>MOLECULE
1vef_PLP_A_1.pdb
 15 15 0 0 0
SMALL
GASTEIGER

@<TRIPOS>ATOM
      1  N1        11.5160   -0.5950   15.5930 N.ar  513  PLP513     -0.2452
      2  C2        12.0360    0.5200   15.0330 C.ar  513  PLP513      0.0978
      3  C2A       12.7810    0.3980   13.7100 C.3   513  PLP513      0.0555
      4  C3        11.8980    1.7390   15.6580 C.ar  513  PLP513      0.2049
      5  O3        12.4500    2.8750   15.0860 O.3   513  PLP513     -0.2857
      6  C4        11.2250    1.8350   16.8600 C.ar  513  PLP513      0.0182
      7  C4A       11.0700    3.2580   17.4660 C.3   513  PLP513      0.0342
      8  C5        10.6920    0.6540   17.4200 C.ar  513  PLP513      0.0261
      9  C6        10.8550   -0.5220   16.7780 C.ar  513  PLP513      0.0965
     10  C5A        9.9590    0.5730   18.7380 C.3   513  PLP513      0.1815
     11  O4P        8.6980    1.2000   18.7460 O.3   513  PLP513     -0.2653
     12  P          8.0490    1.6850   20.1330 P.3   513  PLP513      0.5329
     13  O1P        6.8160    2.4230   19.6620 O.2   513  PLP513     -0.2224
     14  O2P        9.1170    2.6580   20.8650 O.3   513  PLP513     -0.1145
     15  O3P        7.8140    0.4850   20.9860 O.3   513  PLP513     -0.1145
@<TRIPOS>BOND
     1     3     2    1
     2     2     1   ar
     3     2     4   ar
     4     5     4    1
     5     1     9   ar
     6     4     6   ar
     7     9     8   ar
     8     6     8   ar
     9     6     7    1
    10     8    10    1
    11    10    11    1
    12    11    12    1
    13    13    12    2
    14    12    14    1
    15    12    15    1
