@<TRIPOS>MOLECULE
1vem_GLC_A_1.pdb
 11 11 0 0 0
SMALL
GASTEIGER

@<TRIPOS>ATOM
      1  C1        45.1800   43.0480   13.8400 C.3   900  GLC900      0.1777
      2  C2        45.6160   44.2280   12.9660 C.3   900  GLC900      0.2141
      3  C3        45.8880   43.7110   11.5500 C.3   900  GLC900      0.2173
      4  C4        47.0020   42.6510   11.5990 C.3   900  GLC900      0.2142
      5  C5        46.5720   41.5080   12.5430 C.3   900  GLC900      0.1810
      6  C6        47.6370   40.4310   12.7610 C.3   900  GLC900      0.2141
      7  O2        44.5790   45.2040   12.9450 O.3   900  GLC900     -0.2176
      8  O3        46.2830   44.7830   10.6880 O.3   900  GLC900     -0.2175
      9  O4        47.2060   42.1350   10.2840 O.3   900  GLC900     -0.2176
     10  O5        46.2110   42.0360   13.8480 O.3   900  GLC900     -0.3481
     11  O6        48.8530   40.9490   13.3170 O.3   900  GLC900     -0.2176
@<TRIPOS>BOND
     1     9     4    1
     2     8     3    1
     3     3     4    1
     4     3     2    1
     5     4     5    1
     6     5     6    1
     7     5    10    1
     8     6    11    1
     9     7     2    1
    10     2     1    1
    11     1    10    1
