@<TRIPOS>MOLECULE
1ven_GLC_A_1.pdb
 11 11 0 0 0
SMALL
GASTEIGER

@<TRIPOS>ATOM
      1  C1        45.1470   43.5500   14.0240 C.3   900  GLC900      0.1777
      2  C2        45.5770   44.6630   13.0680 C.3   900  GLC900      0.2141
      3  C3        45.8290   44.0600   11.6770 C.3   900  GLC900      0.2173
      4  C4        46.9040   42.9810   11.7840 C.3   900  GLC900      0.2142
      5  C5        46.4440   41.9120   12.7870 C.3   900  GLC900      0.1810
      6  C6        47.4830   40.8270   13.0190 C.3   900  GLC900      0.2141
      7  O2        44.5530   45.6450   12.9980 O.3   900  GLC900     -0.2176
      8  O3        46.2350   45.0640   10.7610 O.3   900  GLC900     -0.2175
      9  O4        47.1140   42.3900   10.5140 O.3   900  GLC900     -0.2176
     10  O5        46.1500   42.5250   14.0700 O.3   900  GLC900     -0.3481
     11  O6        48.6750   41.3590   13.5780 O.3   900  GLC900     -0.2176
@<TRIPOS>BOND
     1     9     4    1
     2     8     3    1
     3     3     4    1
     4     3     2    1
     5     4     5    1
     6     5     6    1
     7     5    10    1
     8     7     2    1
     9     6    11    1
    10     2     1    1
    11     1    10    1
