@<TRIPOS>MOLECULE
1veo_GLC_A_1.pdb
 11 11 0 0 0
SMALL
GASTEIGER

@<TRIPOS>ATOM
      1  C1        45.0490   43.2970   14.0180 C.3   900  GLC900      0.1777
      2  C2        45.4700   44.4150   13.0560 C.3   900  GLC900      0.2141
      3  C3        45.6700   43.8070   11.6650 C.3   900  GLC900      0.2173
      4  C4        46.7630   42.7450   11.7320 C.3   900  GLC900      0.2142
      5  C5        46.3640   41.6660   12.7570 C.3   900  GLC900      0.1810
      6  C6        47.4410   40.6110   12.9780 C.3   900  GLC900      0.2141
      7  O2        44.4570   45.4040   13.0040 O.3   900  GLC900     -0.2176
      8  O3        46.0210   44.8090   10.7230 O.3   900  GLC900     -0.2175
      9  O4        46.9190   42.1570   10.4530 O.3   900  GLC900     -0.2176
     10  O5        46.0600   42.2720   14.0460 O.3   900  GLC900     -0.3481
     11  O6        48.6040   41.1630   13.5860 O.3   900  GLC900     -0.2176
@<TRIPOS>BOND
     1     9     4    1
     2     8     3    1
     3     3     4    1
     4     3     2    1
     5     4     5    1
     6     5     6    1
     7     5    10    1
     8     6    11    1
     9     7     2    1
    10     2     1    1
    11     1    10    1
