@<TRIPOS>MOLECULE
1veo_BGC_A_1.pdb
 12 12 0 0 0
SMALL
GASTEIGER

@<TRIPOS>ATOM
      1  C2        41.4340   41.5350   16.2710 C.3   901  BGC901      0.2434
      2  C3        42.3430   42.5320   15.5450 C.3   901  BGC901      0.2199
      3  C4        43.1180   41.8290   14.4190 C.3   901  BGC901      0.2144
      4  C5        42.1500   41.0330   13.5130 C.3   901  BGC901      0.1836
      5  C6        42.8740   40.1550   12.5070 C.3   901  BGC901      0.2142
      6  C1        40.5080   40.8880   15.2490 C.3   901  BGC901      0.3024
      7  O1        39.6580   39.9970   15.8780 O.3   901  BGC901     -0.1869
      8  O2        40.6710   42.1960   17.2660 O.3   901  BGC901     -0.2148
      9  O3        43.2540   43.1120   16.4680 O.3   901  BGC901     -0.2174
     10  O4        43.7910   42.8200   13.6090 O.3   901  BGC901     -0.2176
     11  O5        41.2930   40.1650   14.2950 O.3   901  BGC901     -0.3236
     12  O6        43.7060   39.2050   13.1550 O.3   901  BGC901     -0.2176
@<TRIPOS>BOND
     1     5    12    1
     2     5     4    1
     3     4    11    1
     4     4     3    1
     5    10     3    1
     6    11     6    1
     7     3     2    1
     8     6     7    1
     9     6     1    1
    10     2     1    1
    11     2     9    1
    12     1     8    1
