@<TRIPOS>MOLECULE
1vep_GLC_A_1.pdb
 11 11 0 0 0
SMALL
GASTEIGER

@<TRIPOS>ATOM
      1  C1        44.9860   43.3120   14.0430 C.3   900  GLC900      0.1777
      2  C2        45.3780   44.3920   13.0320 C.3   900  GLC900      0.2141
      3  C3        45.6110   43.7420   11.6650 C.3   900  GLC900      0.2173
      4  C4        46.6750   42.6460   11.7800 C.3   900  GLC900      0.2142
      5  C5        46.2860   41.6330   12.8760 C.3   900  GLC900      0.1810
      6  C6        47.3650   40.6020   13.1600 C.3   900  GLC900      0.2141
      7  O2        44.3360   45.3490   12.9340 O.3   900  GLC900     -0.2176
      8  O3        46.0220   44.7230   10.7230 O.3   900  GLC900     -0.2175
      9  O4        46.7960   41.9810   10.5350 O.3   900  GLC900     -0.2176
     10  O5        46.0120   42.3180   14.1240 O.3   900  GLC900     -0.3481
     11  O6        48.5990   41.2200   13.5000 O.3   900  GLC900     -0.2176
@<TRIPOS>BOND
     1     9     4    1
     2     8     3    1
     3     3     4    1
     4     3     2    1
     5     4     5    1
     6     5     6    1
     7     5    10    1
     8     7     2    1
     9     2     1    1
    10     6    11    1
    11     1    10    1
