@<TRIPOS>MOLECULE
1vep_BGC_A_1.pdb
 12 12 0 0 0
SMALL
GASTEIGER

@<TRIPOS>ATOM
      1  C2        41.5310   41.6410   16.5140 C.3   901  BGC901      0.2434
      2  C3        42.4670   42.5520   15.7200 C.3   901  BGC901      0.2199
      3  C4        43.1590   41.8030   14.5580 C.3   901  BGC901      0.2144
      4  C5        42.1500   40.9600   13.7580 C.3   901  BGC901      0.1836
      5  C6        42.7910   40.0070   12.7540 C.3   901  BGC901      0.2142
      6  C1        40.5870   40.9680   15.5540 C.3   901  BGC901      0.3024
      7  O1        39.7160   40.1550   16.2540 O.3   901  BGC901     -0.1869
      8  O2        40.7730   42.4000   17.4510 O.3   901  BGC901     -0.2148
      9  O3        43.4570   43.0630   16.5960 O.3   901  BGC901     -0.2174
     10  O4        43.7530   42.7680   13.6630 O.3   901  BGC901     -0.2176
     11  O5        41.3430   40.1610   14.6510 O.3   901  BGC901     -0.3236
     12  O6        43.8220   39.2250   13.3540 O.3   901  BGC901     -0.2176
@<TRIPOS>BOND
     1     5    12    1
     2     5     4    1
     3    10     3    1
     4     4     3    1
     5     4    11    1
     6     3     2    1
     7    11     6    1
     8     6     7    1
     9     6     1    1
    10     2     1    1
    11     2     9    1
    12     1     8    1
