@<TRIPOS>MOLECULE
1vf1_GSH_A_1.pdb
 20 19 0 0 0
SMALL
GASTEIGER

@<TRIPOS>ATOM
      1  N1         7.3640   -1.7950    0.8250 N.3   2457  GSH2457    -0.1208
      2  CA1        6.3510   -1.7830    1.8450 C.3   2457  GSH2457     0.1948
      3  C1         6.9200   -0.8930    2.9440 C.2   2457  GSH2457     0.3819
      4  O11        6.1260   -0.3770    3.7370 O.co2 2457  GSH2457    -0.2441
      5  O12        8.1430   -0.7190    3.0040 O.co2 2457  GSH2457    -0.2441
      6  CB1        6.1180   -3.2220    2.3020 C.3   2457  GSH2457     0.0402
      7  CG1        5.0450   -3.3870    3.3690 C.3   2457  GSH2457     0.0889
      8  CD1        4.8140   -4.8220    3.7950 C.2   2457  GSH2457     0.2418
      9  OE1        5.4670   -5.7460    3.2980 O.2   2457  GSH2457    -0.2733
     10  N2         3.8660   -4.9570    4.7100 N.am  2457  GSH2457    -0.1968
     11  CA2        3.4500   -6.2300    5.2650 C.3   2457  GSH2457     0.1843
     12  C2         2.0360   -6.4460    4.7740 C.2   2457  GSH2457     0.2627
     13  O2         1.1690   -5.5490    4.9160 O.2   2457  GSH2457    -0.2714
     14  CB2        3.4640   -6.2300    6.7880 C.3   2457  GSH2457     0.0997
     15  SG2        5.1050   -5.9870    7.5360 S.3   2457  GSH2457    -0.0797
     16  N3         1.8300   -7.6340    4.2100 N.am  2457  GSH2457    -0.1917
     17  CA3        0.5530   -8.0280    3.6900 C.3   2457  GSH2457     0.2285
     18  C3         0.5660   -8.1540    2.1760 C.2   2457  GSH2457     0.3865
     19  O31       -0.4430   -8.6020    1.6460 O.co2 2457  GSH2457    -0.2437
     20  O32        1.5740   -7.8040    1.5170 O.co2 2457  GSH2457    -0.2437
@<TRIPOS>BOND
     1     1     2    1
     2    20    18   ar
     3    19    18   ar
     4     2     6    1
     5     2     3    1
     6    18    17    1
     7     6     7    1
     8     3     5   ar
     9     3     4   ar
    10     9     8    2
    11     7     8    1
    12    17    16    1
    13     8    10   am
    14    16    12   am
    15    10    11    1
    16    12    13    2
    17    12    11    1
    18    11    14    1
    19    14    15    1
