@<TRIPOS>MOLECULE
1vf2_GTX_A_1.pdb
 26 25 0 0 0
SMALL
GASTEIGER

@<TRIPOS>ATOM
      1  N1        27.6260   17.7810   30.2200 N.3   2457  GTX2457    -0.1208
      2  CA1       28.1200   16.7160   31.0270 C.3   2457  GTX2457     0.1948
      3  C1        28.5700   15.6540   30.0170 C.2   2457  GTX2457     0.3819
      4  O11       29.5380   14.9520   30.3080 O.co2 2457  GTX2457    -0.2441
      5  O12       27.9500   15.5330   28.9530 O.co2 2457  GTX2457    -0.2441
      6  CB1       26.9950   16.2250   31.9480 C.3   2457  GTX2457     0.0402
      7  CG1       27.4690   15.1970   32.9530 C.3   2457  GTX2457     0.0889
      8  CD1       26.4040   14.6800   33.8970 C.2   2457  GTX2457     0.2418
      9  OE1       25.2310   15.0780   33.8390 O.2   2457  GTX2457    -0.2733
     10  N2        26.8730   13.7940   34.7560 N.am  2457  GTX2457    -0.1969
     11  CA2       26.0800   13.1510   35.7680 C.3   2457  GTX2457     0.1834
     12  C2        26.6780   13.5460   37.1000 C.2   2457  GTX2457     0.2626
     13  O2        27.8940   13.3670   37.2870 O.2   2457  GTX2457    -0.2714
     14  CB2       26.1470   11.6420   35.5930 C.3   2457  GTX2457     0.0886
     15  SG2       25.4750   10.9990   34.0240 S.3   2457  GTX2457    -0.1379
     16  C1S       23.9050   10.7280   34.8900 C.3   2457  GTX2457     0.0576
     17  C2S       22.6740   10.8610   34.0090 C.3   2457  GTX2457     0.0116
     18  C3S       21.5760    9.9910   34.5650 C.3   2457  GTX2457     0.0009
     19  C4S       20.2710   10.2400   33.8620 C.3   2457  GTX2457     0.0000
     20  C5S       19.2250   10.7590   34.8130 C.3   2457  GTX2457     0.0000
     21  C6S       18.2850   11.7300   34.1050 C.3   2457  GTX2457     0.0000
     22  N3        25.8460   14.0870   37.9870 N.am  2457  GTX2457    -0.1917
     23  CA3       26.3010   14.5240   39.2940 C.3   2457  GTX2457     0.2285
     24  C3        26.2210   16.0350   39.4280 C.2   2457  GTX2457     0.3865
     25  O31       25.6030   16.6900   38.5760 O.co2 2457  GTX2457    -0.2437
     26  O32       26.7770   16.5720   40.3930 O.co2 2457  GTX2457    -0.2437
@<TRIPOS>BOND
     1     5     3   ar
     2     3     4   ar
     3     3     2    1
     4     1     2    1
     5     2     6    1
     6     6     7    1
     7     7     8    1
     8     9     8    2
     9    19    18    1
    10    19    20    1
    11     8    10   am
    12    17    18    1
    13    17    16    1
    14    15    16    1
    15    15    14    1
    16    21    20    1
    17    10    11    1
    18    14    11    1
    19    11    12    1
    20    12    13    2
    21    12    22   am
    22    22    23    1
    23    25    24   ar
    24    23    24    1
    25    24    26   ar
