@<TRIPOS>MOLECULE
1vf3_GDN_A_1.pdb
 32 32 0 0 0
SMALL
GASTEIGER

@<TRIPOS>ATOM
      1  N1        27.0010   17.4050   30.0090 N.3   2500  GDN2500    -0.1208
      2  CA1       27.5850   16.4190   30.8630 C.3   2500  GDN2500     0.1948
      3  C1        28.0550   15.3240   29.8980 C.2   2500  GDN2500     0.3819
      4  O11       28.9830   14.6050   30.2390 O.co2 2500  GDN2500    -0.2441
      5  O12       27.4920   15.1960   28.8130 O.co2 2500  GDN2500    -0.2441
      6  CB1       26.5120   15.9460   31.8590 C.3   2500  GDN2500     0.0402
      7  CG1       27.0050   14.9080   32.8400 C.3   2500  GDN2500     0.0889
      8  CD1       25.9720   14.4310   33.8390 C.2   2500  GDN2500     0.2418
      9  OE1       24.8150   14.8730   33.8310 O.2   2500  GDN2500    -0.2733
     10  N2        26.4360   13.5250   34.6890 N.am  2500  GDN2500    -0.1968
     11  CA2       25.6320   12.9200   35.7430 C.3   2500  GDN2500     0.1838
     12  C2        26.2390   13.3050   37.0690 C.2   2500  GDN2500     0.2626
     13  O2        27.4320   13.0330   37.2750 O.2   2500  GDN2500    -0.2714
     14  CB2       25.6010   11.4100   35.6540 C.3   2500  GDN2500     0.0932
     15  SG2       24.9290   10.7090   34.1200 S.3   2500  GDN2500    -0.1097
     16  N3        25.4190   13.9290   37.9110 N.am  2500  GDN2500    -0.1917
     17  CA3       25.8580   14.3730   39.2110 C.3   2500  GDN2500     0.2285
     18  C3        25.6270   15.8510   39.3890 C.2   2500  GDN2500     0.3865
     19  O31       25.7910   16.3520   40.4930 O.co2 2500  GDN2500    -0.2437
     20  O32       25.2350   16.5220   38.4380 O.co2 2500  GDN2500    -0.2437
     21  C1'       23.2560   10.5730   34.2290 C.ar  2500  GDN2500     0.0478
     22  C2'       22.5740    9.9150   33.1800 C.ar  2500  GDN2500     0.1501
     23  C3'       21.1620    9.8050   33.2820 C.ar  2500  GDN2500     0.0486
     24  C4'       20.4500   10.3610   34.4380 C.ar  2500  GDN2500     0.1446
     25  C5'       21.2120   11.0200   35.4730 C.ar  2500  GDN2500     0.0247
     26  C6'       22.5910   11.1320   35.3850 C.ar  2500  GDN2500     0.0095
     27  N2'       23.1460    9.3180   31.9700 N.pl3 2500  GDN2500     0.0582
     28  O2A       24.3870    9.3680   31.7850 O.2   2500  GDN2500    -0.1261
     29  O2B       22.3730    8.7700   31.1410 O.2   2500  GDN2500    -0.1261
     30  N4'       19.0430   10.2460   34.5170 N.pl3 2500  GDN2500     0.0577
     31  O4A       18.3870    9.6680   33.5980 O.2   2500  GDN2500    -0.1261
     32  O4B       18.4190   10.7270   35.5100 O.2   2500  GDN2500    -0.1261
@<TRIPOS>BOND
     1     5     3   ar
     2     3     4   ar
     3     3     2    1
     4     1     2    1
     5     2     6    1
     6    29    27    2
     7    28    27    2
     8     6     7    1
     9    27    22    1
    10     7     8    1
    11    22    23   ar
    12    22    21   ar
    13    23    24   ar
    14    31    30    2
    15     9     8    2
    16     8    10   am
    17    15    21    1
    18    15    14    1
    19    21    26   ar
    20    24    30    1
    21    24    25   ar
    22    30    32    2
    23    10    11    1
    24    26    25   ar
    25    14    11    1
    26    11    12    1
    27    12    13    2
    28    12    16   am
    29    16    17    1
    30    20    18   ar
    31    17    18    1
    32    18    19   ar
