@<TRIPOS>MOLECULE
1vf5_HEM_A_1.pdb
 43 50 0 0 0
SMALL
GASTEIGER

@<TRIPOS>ATOM
      1 FE         77.4500   -6.0370   88.5800 Fe    301  HEM301      0.0000
      2  CHA       77.3840   -9.3730   87.8060 C.2   301  HEM301      0.0000
      3  CHB       78.7820   -5.3690   85.5200 C.2   301  HEM301      0.0000
      4  CHC       77.6710   -2.7430   89.4020 C.2   301  HEM301      0.0000
      5  CHD       76.1740   -6.7820   91.7000 C.2   301  HEM301      0.0000
      6  NA        77.9740   -7.1760   86.9410 N.ar  301  HEM301      0.0000
      7  C1A       77.8530   -8.5560   86.8230 C.ar  301  HEM301      0.0000
      8  C2A       78.2990   -8.9810   85.4850 C.ar  301  HEM301      0.0000
      9  C3A       78.6950   -7.8600   84.8270 C.ar  301  HEM301      0.0000
     10  C4A       78.4910   -6.6910   85.7660 C.ar  301  HEM301      0.0000
     11  CMA       79.2480   -7.9390   83.3750 C.3   301  HEM301      0.0000
     12  CAA       78.3770  -10.3710   84.8070 C.3   301  HEM301      0.0000
     13  CBA       76.9850  -11.0650   84.7160 C.3   301  HEM301      0.0000
     14  CGA       76.9380  -12.4690   84.0760 C.2   301  HEM301      0.0000
     15  O1A       77.0180  -13.4830   84.8020 O.co2 301  HEM301      0.0000
     16  O2A       76.8150  -12.6070   82.8220 O.co2 301  HEM301      0.0000
     17  NB        78.1100   -4.3590   87.6210 N.2   301  HEM301      0.0000
     18  C1B       78.6230   -4.2970   86.3630 C.2   301  HEM301      0.0000
     19  C2B       78.9870   -2.9500   86.0490 C.2   301  HEM301      0.0000
     20  C3B       78.6850   -2.1850   87.1380 C.2   301  HEM301      0.0000
     21  C4B       78.1230   -3.1050   88.1200 C.2   301  HEM301      0.0000
     22  CMB       79.6040   -2.5070   84.7250 C.3   301  HEM301      0.0000
     23  CAB       78.9060   -0.7510   87.2270 C.2   301  HEM301      0.0000
     24  CBB       78.1650    0.1790   86.6810 C.2   301  HEM301      0.0000
     25  NC        76.9930   -4.9320   90.2640 N.ar  301  HEM301      0.0000
     26  C1C       77.1450   -3.5750   90.4040 C.ar  301  HEM301      0.0000
     27  C2C       76.6820   -3.1640   91.7150 C.ar  301  HEM301      0.0000
     28  C3C       76.2510   -4.3040   92.3560 C.ar  301  HEM301      0.0000
     29  C4C       76.4600   -5.4270   91.4350 C.ar  301  HEM301      0.0000
     30  CMC       76.6730   -1.7520   92.2740 C.3   301  HEM301      0.0000
     31  CAC       75.6660   -4.4230   93.7580 C.3   301  HEM301      0.0000
     32  CBC       76.0280   -5.4690   94.7990 C.3   301  HEM301      0.0000
     33  ND        76.8970   -7.7450   89.5440 N.2   301  HEM301      0.0000
     34  C1D       76.3850   -7.8620   90.8260 C.2   301  HEM301      0.0000
     35  C2D       76.1040   -9.3020   91.1200 C.2   301  HEM301      0.0000
     36  C3D       76.4800   -9.9740   89.9720 C.2   301  HEM301      0.0000
     37  C4D       76.9490   -8.9720   89.0520 C.2   301  HEM301      0.0000
     38  CMD       75.5410   -9.8570   92.3970 C.3   301  HEM301      0.0000
     39  CAD       76.4420  -11.4400   89.6470 C.3   301  HEM301      0.0000
     40  CBD       75.4170  -11.6770   88.5220 C.3   301  HEM301      0.0000
     41  CGD       75.4180  -13.0810   88.0640 C.2   301  HEM301      0.0000
     42  O1D       75.2430  -13.2680   86.8400 O.co2 301  HEM301      0.0000
     43  O2D       75.6270  -13.9760   88.9120 O.co2 301  HEM301      0.0000
@<TRIPOS>BOND
     1    16    14   ar
     2    11     9    1
     3    14    13    1
     4    14    15   ar
     5    13    12    1
     6    22    19    1
     7    12     8    1
     8     9     8   ar
     9     9    10   ar
    10     8     7   ar
    11     3    10    2
    12     3    18    1
    13    10     6   ar
    14    19    18    1
    15    19    20    2
    16    18    17    2
    17    24    23    2
    18     7     6   ar
    19     7     2    2
    20    42    41   ar
    21     6     1    1
    22    20    23    1
    23    20    21    1
    24    17    21    1
    25    17     1    1
    26     2    37    1
    27    41    40    1
    28    41    43   ar
    29    21     4    2
    30    40    39    1
    31     1    33    1
    32     1    25    1
    33    37    33    2
    34    37    36    1
    35     4    26    1
    36    33    34    1
    37    39    36    1
    38    36    35    2
    39    25    26   ar
    40    25    29   ar
    41    26    27   ar
    42    34    35    1
    43    34     5    2
    44    35    38    1
    45    29     5    1
    46    29    28   ar
    47    27    30    1
    48    27    28   ar
    49    28    31    1
    50    31    32    1
