@<TRIPOS>MOLECULE
1vf5_TDS_A_1.pdb
 30 31 0 0 0
SMALL
GASTEIGER

@<TRIPOS>ATOM
      1  CBC       94.0330   -9.6990   77.9060 C.3   304  TDS304      0.0000
      2  CBB       93.8820   -8.4180   78.4230 C.3   304  TDS304      0.0000
      3  CBA       93.8320   -8.4650   79.9510 C.3   304  TDS304      0.0000
      4  CAZ       93.7600   -7.0640   80.5620 C.3   304  TDS304      0.0000
      5  CAY       93.7040   -6.9270   82.0850 C.3   304  TDS304      0.0000
      6  CAX       93.5700   -5.4640   82.5140 C.3   304  TDS304      0.0000
      7  CAW       93.2330   -5.3800   84.0060 C.3   304  TDS304      0.0000
      8  CAV       91.8510   -4.7650   84.2450 C.3   304  TDS304      0.0000
      9  CAU       91.2810   -4.5890   85.6560 C.3   304  TDS304      0.0000
     10  CAT       91.4760   -5.8660   86.4790 C.3   304  TDS304      0.0000
     11  CAS       90.6270   -5.8980   87.7510 C.3   304  TDS304      0.0005
     12  CAR       90.8740   -7.0840   88.4320 C.3   304  TDS304      0.0079
     13  CAQ       89.9850   -7.6030   89.3690 C.3   304  TDS304      0.0643
     14  CAP       89.8280   -6.8430   90.5240 C.ar  304  TDS304      0.1220
     15  OAO       89.4760   -5.5380   90.3450 O.2   304  TDS304     -0.4544
     16  CAH       89.9290   -7.3350   91.8260 C.ar  304  TDS304      0.0475
     17  CAI       90.0380   -8.8330   92.1250 C.3   304  TDS304      0.0373
     18  CAG       89.9620   -6.4390   92.8870 C.ar  304  TDS304      0.2002
     19  OAC       89.8470   -6.8480   94.0430 O.2   304  TDS304     -0.2866
     20  CAF       90.1360   -5.0870   92.6050 C.ar  304  TDS304      0.1105
     21  CAN       89.9580   -4.6770   91.2850 C.ar  304  TDS304      0.1925
     22  CAM       90.2490   -3.2330   90.8720 C.ar  304  TDS304      0.2636
     23  OBD       90.1190   -2.7720   89.5990 O.3   304  TDS304     -0.2800
     24  CAL       90.7190   -2.3630   92.0380 C.ar  304  TDS304      0.1835
     25  OAK       90.9590   -1.0010   91.6760 O.3   304  TDS304     -0.4680
     26  CAJ       92.2740   -0.8730   91.1290 C.3   304  TDS304      0.2526
     27  CAD       90.8510   -2.8730   93.3250 C.ar  304  TDS304      0.0774
     28  CAE       90.5620   -4.2080   93.5990 C.ar  304  TDS304      0.1479
     29  OAB       90.7110   -4.6690   94.8710 O.3   304  TDS304     -0.4711
     30  CAA       89.5010   -4.5180   95.6220 C.3   304  TDS304      0.2525
@<TRIPOS>BOND
     1     1     2    1
     2     2     3    1
     3     3     4    1
     4     4     5    1
     5     5     6    1
     6     6     7    1
     7     7     8    1
     8     8     9    1
     9     9    10    1
    10    10    11    1
    11    11    12    1
    12    12    13    1
    13    13    14    1
    14    23    22    1
    15    15    14   ar
    16    15    21   ar
    17    14    16   ar
    18    22    21   ar
    19    22    24   ar
    20    26    25    1
    21    21    20   ar
    22    25    24    1
    23    16    17    1
    24    16    18   ar
    25    24    27   ar
    26    20    18   ar
    27    20    28   ar
    28    18    19    2
    29    27    28   ar
    30    28    29    1
    31    29    30    1
