@<TRIPOS>MOLECULE
1vfg_APC_A_1.pdb
 31 33 0 0 0
SMALL
GASTEIGER

@<TRIPOS>ATOM
      1  PG        21.6300  -12.6450    6.2040 P.3   500  APC500      0.5389
      2  O1G       21.3810  -13.8860    7.0040 O.3   500  APC500     -0.1143
      3  O2G       23.0320  -12.7110    5.5370 O.3   500  APC500     -0.1143
      4  O3G       20.5160  -12.5150    5.1250 O.2   500  APC500     -0.2220
      5  PB        20.8780  -11.1670    8.6650 P.3   500  APC500      0.3895
      6  O1B       20.7750   -9.7220    8.9380 O.2   500  APC500     -0.2544
      7  O2B       21.6850  -11.9240    9.7150 O.3   500  APC500     -0.1388
      8  O3B       21.4950  -11.3000    7.1840 O.3   500  APC500     -0.2026
      9  PA        18.6020  -12.9330    9.2890 P.3   500  APC500      0.3820
     10  O1A       17.3750  -13.2280    8.5150 O.2   500  APC500     -0.2548
     11  O2A       19.4930  -14.1750    9.4260 O.3   500  APC500     -0.1392
     12  C3A       19.3730  -11.7380    8.5180 C.3   500  APC500      0.2357
     13  O5'       18.1880  -12.2980   10.7460 O.3   500  APC500     -0.2896
     14  C5'       19.1220  -11.5720   11.5640 C.3   500  APC500      0.1836
     15  C4'       18.5080  -10.2280   11.9820 C.3   500  APC500      0.1822
     16  O4'       18.5140  -10.1240   13.3690 O.3   500  APC500     -0.3135
     17  C3'       19.2860   -9.0580   11.4320 C.3   500  APC500      0.2184
     18  O3'       18.3480   -8.2760   10.7130 O.3   500  APC500     -0.2174
     19  C2'       19.8950   -8.3430   12.6380 C.3   500  APC500      0.2570
     20  O2'       19.8210   -6.9560   12.7100 O.3   500  APC500     -0.2130
     21  C1'       19.2290   -8.9780   13.8270 C.3   500  APC500      0.3186
     22  N9        20.0810   -9.5530   14.8830 N.pl3 500  APC500     -0.1439
     23  C8        20.1670  -10.8950   15.2030 C.3   500  APC500      0.3377
     24  N7        21.0280  -11.0100   16.1860 N.2   500  APC500     -0.2095
     25  C5        21.5220   -9.8070   16.5390 C.2   500  APC500      0.2526
     26  C6        22.4250   -9.3190   17.4730 C.2   500  APC500      0.4393
     27  N6        23.0790  -10.0570   18.3530 N.pl3 500  APC500      0.2180
     28  N1        22.6770   -7.9450   17.5250 N.2   500  APC500      0.0021
     29  C2        22.0450   -7.0660   16.6730 C.3   500  APC500      0.5254
     30  N3        21.1420   -7.5260   15.7370 N.2   500  APC500     -0.0055
     31  C4        20.8950   -8.8700   15.6860 C.2   500  APC500      0.3518
@<TRIPOS>BOND
     1     4     1    2
     2     3     1    1
     3     1     2    1
     4     1     8    1
     5     8     5    1
     6    10     9    2
     7    12     5    1
     8    12     9    1
     9     5     6    2
    10     5     7    1
    11     9    11    1
    12     9    13    1
    13    18    17    1
    14    13    14    1
    15    17    15    1
    16    17    19    1
    17    14    15    1
    18    15    16    1
    19    19    20    1
    20    19    21    1
    21    16    21    1
    22    21    22    1
    23    22    23    1
    24    22    31    1
    25    23    24    1
    26    31    30    2
    27    31    25    1
    28    30    29    1
    29    24    25    2
    30    25    26    1
    31    29    28    1
    32    26    28    2
    33    26    27    1
