@<TRIPOS>MOLECULE
1vfh_PLP_A_1.pdb
 15 15 0 0 0
SMALL
GASTEIGER

@<TRIPOS>ATOM
      1  N1       -12.6220   -1.5410   17.9770 N.ar  401  PLP401     -0.2452
      2  C2       -13.9910   -1.4880   18.2730 C.ar  401  PLP401      0.0978
      3  C2A      -15.0300   -1.4530   17.1790 C.3   401  PLP401      0.0555
      4  C3       -14.3530   -1.4710   19.5980 C.ar  401  PLP401      0.2049
      5  O3       -15.6470   -1.4350   19.9640 O.3   401  PLP401     -0.2857
      6  C4       -13.3390   -1.5030   20.5880 C.ar  401  PLP401      0.0182
      7  C4A      -13.7410   -1.3250   22.1170 C.3   401  PLP401      0.0342
      8  C5       -11.9730   -1.5700   20.1970 C.ar  401  PLP401      0.0261
      9  C6       -11.6500   -1.5830   18.9120 C.ar  401  PLP401      0.0965
     10  C5A      -10.8450   -1.6860   21.2110 C.3   401  PLP401      0.1815
     11  O4P      -10.7680   -3.0300   21.6980 O.3   401  PLP401     -0.2653
     12  P         -9.7050   -3.5380   22.7590 P.3   401  PLP401      0.5329
     13  O1P       -8.4150   -2.9990   22.3320 O.2   401  PLP401     -0.2224
     14  O2P      -10.1230   -3.0040   24.0520 O.3   401  PLP401     -0.1145
     15  O3P       -9.7400   -4.9940   22.7400 O.3   401  PLP401     -0.1145
@<TRIPOS>BOND
     1     3     2    1
     2     1     2   ar
     3     1     9   ar
     4     2     4   ar
     5     9     8   ar
     6     4     5    1
     7     4     6   ar
     8     8     6   ar
     9     8    10    1
    10     6     7    1
    11    10    11    1
    12    11    12    1
    13    13    12    2
    14    15    12    1
    15    12    14    1
