@<TRIPOS>MOLECULE
1vfm_GLC_A_1.pdb
 11 11 0 0 0
SMALL
GASTEIGER

@<TRIPOS>ATOM
      1  C1        33.1190   53.1960   61.7740 C.3   801  GLC801      0.1777
      2  C2        32.2640   54.3040   62.3900 C.3   801  GLC801      0.2141
      3  C3        33.1380   55.5360   62.6190 C.3   801  GLC801      0.2173
      4  C4        34.2830   55.1780   63.5650 C.3   801  GLC801      0.2142
      5  C5        35.0800   53.9870   63.0090 C.3   801  GLC801      0.1810
      6  C6        36.0510   53.4580   64.0450 C.3   801  GLC801      0.2141
      7  O2        31.1860   54.6190   61.5260 O.3   801  GLC801     -0.2176
      8  O3        32.3670   56.5940   63.1680 O.3   801  GLC801     -0.2175
      9  O4        35.1590   56.3120   63.6870 O.3   801  GLC801     -0.2176
     10  O5        34.2080   52.8810   62.6540 O.3   801  GLC801     -0.3481
     11  O6        35.4040   52.5620   64.9370 O.3   801  GLC801     -0.2176
@<TRIPOS>BOND
     1     7     2    1
     2     1     2    1
     3     1    10    1
     4     2     3    1
     5     3     8    1
     6     3     4    1
     7    10     5    1
     8     5     4    1
     9     5     6    1
    10     4     9    1
    11     6    11    1
