@<TRIPOS>MOLECULE
1vfm_BGC_B_1.pdb
 11 11 0 0 0
SMALL
GASTEIGER

@<TRIPOS>ATOM
      1  C2        22.8310   10.3270   46.3890 C.3   906  BGC906      0.2141
      2  C3        23.4080    9.2510   47.3350 C.3   906  BGC906      0.2173
      3  C4        22.6170    7.9670   47.0780 C.3   906  BGC906      0.2142
      4  C5        22.8750    7.5530   45.6470 C.3   906  BGC906      0.1810
      5  C6        22.2760    6.2090   45.2720 C.3   906  BGC906      0.2141
      6  C1        22.8760    9.8480   44.9180 C.3   906  BGC906      0.1777
      7  O2        23.5610   11.5370   46.5270 O.3   906  BGC906     -0.2176
      8  O3        23.2690    9.6650   48.6860 O.3   906  BGC906     -0.2175
      9  O4        22.9150    6.8800   47.9740 O.3   906  BGC906     -0.2176
     10  O5        22.2970    8.5470   44.7910 O.3   906  BGC906     -0.3481
     11  O6        20.8730    6.3090   45.0790 O.3   906  BGC906     -0.2176
@<TRIPOS>BOND
     1    10     6    1
     2    10     4    1
     3     6     1    1
     4    11     5    1
     5     5     4    1
     6     4     3    1
     7     1     7    1
     8     1     2    1
     9     3     2    1
    10     3     9    1
    11     2     8    1
