@<TRIPOS>MOLECULE
1vfn_HPA_A_1.pdb
 10 11 0 0 0
SMALL
GASTEIGER

@<TRIPOS>ATOM
      1  N1        74.5940   49.8230   49.6500 N.2   300  HPA300     -0.1726
      2  C2        75.5050   48.7720   49.5940 C.3   300  HPA300      0.2725
      3  N3        75.1940   47.4740   49.7740 N.2   300  HPA300     -0.1902
      4  C4        73.8670   47.3080   49.9700 C.1   300  HPA300      0.0598
      5  C5        72.8860   48.2940   50.0930 C.2   300  HPA300      0.2226
      6  C6        73.2290   49.6670   49.9560 C.1   300  HPA300      0.1796
      7  O6        72.4870   50.6560   50.0020 O.2   300  HPA300     -0.2200
      8  N7        71.6350   47.7090   50.3590 N.2   300  HPA300     -0.2230
      9  C8        71.8970   46.4310   50.3920 C.3   300  HPA300      0.2622
     10  N9        73.2370   46.1020   50.1700 N.2   300  HPA300     -0.1910
@<TRIPOS>BOND
     1     2     1    1
     2     2     3    1
     3     1     6    2
     4     3     4    2
     5     6     7    2
     6     6     5    1
     7     4     5    1
     8     4    10    2
     9     5     8    2
    10    10     9    1
    11     8     9    1
