@<TRIPOS>MOLECULE
1vfo_GLC_A_1.pdb
 11 11 0 0 0
SMALL
GASTEIGER

@<TRIPOS>ATOM
      1  C1        38.6240   61.0040   63.9930 C.3   604  GLC604      0.1777
      2  C2        38.4450   62.2820   63.1570 C.3   604  GLC604      0.2141
      3  C3        38.8380   62.0150   61.7070 C.3   604  GLC604      0.2173
      4  C4        40.2600   61.4450   61.6160 C.3   604  GLC604      0.2142
      5  C5        40.4260   60.2380   62.5670 C.3   604  GLC604      0.1810
      6  C6        41.8620   59.7530   62.6890 C.3   604  GLC604      0.2141
      7  O2        37.0940   62.7250   63.2140 O.3   604  GLC604     -0.2176
      8  O3        38.7560   63.2180   60.9570 O.3   604  GLC604     -0.2175
      9  O4        40.4840   61.0080   60.2620 O.3   604  GLC604     -0.2176
     10  O5        39.9780   60.5630   63.9040 O.3   604  GLC604     -0.3481
     11  O6        42.0870   59.1140   63.9410 O.3   604  GLC604     -0.2176
@<TRIPOS>BOND
     1     9     4    1
     2     8     3    1
     3     4     3    1
     4     4     5    1
     5     3     2    1
     6     5     6    1
     7     5    10    1
     8     6    11    1
     9     2     7    1
    10     2     1    1
    11    10     1    1
