@<TRIPOS>MOLECULE
1vfp_ACP_A_1.pdb
 31 33 0 0 0
SMALL
GASTEIGER

@<TRIPOS>ATOM
      1  PG        17.6820   -3.0380   54.9820 P.3   1001  ACP1001     0.1295
      2  O1G       16.2040   -2.7500   55.2130 O.3   1001  ACP1001    -0.3567
      3  O2G       17.9600   -3.5270   53.6010 O.2   1001  ACP1001    -0.4595
      4  O3G       18.6150   -1.8910   55.3380 O.3   1001  ACP1001    -0.3567
      5  PB        17.7740   -4.4350   57.6820 P.3   1001  ACP1001     0.3815
      6  O1B       18.3050   -5.8010   57.9730 O.2   1001  ACP1001    -0.2547
      7  O2B       18.2340   -3.3960   58.6140 O.3   1001  ACP1001    -0.1391
      8  C3B       18.2040   -4.3350   56.0010 C.3   1001  ACP1001     0.1768
      9  PA        15.2870   -5.8690   58.3860 P.3   1001  ACP1001     0.2209
     10  O1A       15.7030   -7.0470   57.4930 O.2   1001  ACP1001    -0.5170
     11  O2A       13.8500   -5.5000   58.3330 O.3   1001  ACP1001    -0.4371
     12  O3A       16.1800   -4.5960   58.0690 O.3   1001  ACP1001    -0.2483
     13  O5'       15.8720   -6.2680   59.7990 O.3   1001  ACP1001    -0.3111
     14  C5'       15.6240   -5.2990   60.8130 C.3   1001  ACP1001     0.1813
     15  C4'       16.3720   -5.2000   62.1530 C.3   1001  ACP1001     0.1821
     16  O4'       16.4910   -6.5050   62.6750 O.3   1001  ACP1001    -0.3135
     17  C3'       17.7420   -4.9690   61.5690 C.3   1001  ACP1001     0.2184
     18  O3'       17.9740   -3.6240   61.2310 O.3   1001  ACP1001    -0.2174
     19  C2'       18.6540   -5.5870   62.6300 C.3   1001  ACP1001     0.2570
     20  O2'       18.8490   -4.6560   63.6750 O.3   1001  ACP1001    -0.2130
     21  C1'       17.8580   -6.7610   62.9740 C.3   1001  ACP1001     0.3186
     22  N9        18.3540   -8.0370   62.2830 N.pl3 1001  ACP1001    -0.1439
     23  C8        18.7090   -8.2970   61.0090 C.3   1001  ACP1001     0.3377
     24  N7        19.1130   -9.5420   60.7600 N.2   1001  ACP1001    -0.2095
     25  C5        19.0070  -10.1060   61.9510 C.2   1001  ACP1001     0.2526
     26  C6        19.2670  -11.4290   62.4660 C.2   1001  ACP1001     0.4393
     27  N6        19.7310  -12.4170   61.6510 N.pl3 1001  ACP1001     0.2180
     28  N1        19.0550  -11.7350   63.8120 N.2   1001  ACP1001     0.0021
     29  C2        18.5960  -10.7640   64.6580 C.3   1001  ACP1001     0.5254
     30  N3        18.3240   -9.4780   64.2590 N.2   1001  ACP1001    -0.0055
     31  C4        18.5410   -9.2090   62.9260 C.2   1001  ACP1001     0.3518
@<TRIPOS>BOND
     1     3     1    2
     2     1     2    1
     3     1     4    1
     4     1     8    1
     5     8     5    1
     6    10     9    2
     7     5     6    2
     8     5    12    1
     9     5     7    1
    10    12     9    1
    11    11     9    1
    12     9    13    1
    13    13    14    1
    14    24    23    1
    15    24    25    2
    16    14    15    1
    17    23    22    1
    18    18    17    1
    19    17    15    1
    20    17    19    1
    21    27    26    1
    22    25    26    1
    23    25    31    1
    24    15    16    1
    25    22    31    1
    26    22    21    1
    27    26    28    2
    28    19    21    1
    29    19    20    1
    30    16    21    1
    31    31    30    2
    32    28    29    1
    33    30    29    1
