@<TRIPOS>MOLECULE
1vfr_FMN_A_1.pdb
 31 33 0 0 0
SMALL
GASTEIGER

@<TRIPOS>ATOM
      1  N1        60.6340   31.1670   18.7990 N.2   454  FMN454     -0.2890
      2  C2        59.9490   32.0660   19.6070 C.1   454  FMN454      0.3669
      3  O2        59.5290   33.1240   19.1810 O.2   454  FMN454     -0.1744
      4  N3        60.0650   31.7830   20.9840 N.2   454  FMN454     -0.2300
      5  C4        60.6410   30.6540   21.5460 C.1   454  FMN454      0.2513
      6  O4        60.6150   30.5250   22.7790 O.2   454  FMN454     -0.2057
      7  C4A       61.2650   29.7680   20.5660 C.2   454  FMN454      0.2700
      8  N5        61.7460   28.5830   21.0630 N.2   454  FMN454     -0.3878
      9  C5A       62.0810   27.5630   20.2230 C.2   454  FMN454      0.1320
     10  C6        62.4030   26.3520   20.7530 C.2   454  FMN454      0.0250
     11  C7        62.6220   25.2960   19.8870 C.2   454  FMN454     -0.0238
     12  C7M       62.9520   23.9360   20.4520 C.3   454  FMN454      0.0308
     13  C8        62.5010   25.4730   18.4850 C.2   454  FMN454     -0.0280
     14  C8M       62.5430   24.3070   17.5040 C.3   454  FMN454      0.0304
     15  C9        62.2570   26.6960   17.9680 C.2   454  FMN454     -0.0041
     16  C9A       62.0320   27.7680   18.8200 C.3   454  FMN454      0.1497
     17  N10       61.6620   28.9880   18.3320 N.pl3 454  FMN454     -0.2691
     18  C10       61.2150   29.9790   19.1630 C.2   454  FMN454      0.2416
     19  C1'       61.6920   29.3030   16.9820 C.3   454  FMN454      0.1294
     20  C2'       63.0640   29.2420   16.3220 C.3   454  FMN454      0.2044
     21  O2'       63.7040   30.4590   16.5510 O.3   454  FMN454     -0.2185
     22  C3'       62.9290   28.9040   14.8110 C.3   454  FMN454      0.2164
     23  O3'       62.3890   27.5740   14.7130 O.3   454  FMN454     -0.2175
     24  C4'       64.3150   28.9300   14.1010 C.3   454  FMN454      0.2147
     25  O4'       64.7640   30.3170   14.0890 O.3   454  FMN454     -0.2176
     26  C5'       64.1290   28.5190   12.6380 C.3   454  FMN454      0.1892
     27  O5'       63.0940   29.3400   11.9740 O.3   454  FMN454     -0.2674
     28  P         61.6880   28.8730   11.3630 P.3   454  FMN454      0.5327
     29  O1P       61.1920   30.2180   11.0680 O.3   454  FMN454     -0.1145
     30  O2P       61.1520   28.1050   12.4950 O.3   454  FMN454     -0.1145
     31  O3P       62.1510   28.0270   10.2870 O.2   454  FMN454     -0.2224
@<TRIPOS>BOND
     1    31    28    2
     2    29    28    1
     3    28    27    1
     4    28    30    1
     5    27    26    1
     6    26    24    1
     7    25    24    1
     8    24    22    1
     9    23    22    1
    10    22    20    1
    11    20    21    1
    12    20    19    1
    13    19    17    1
    14    14    13    1
    15    15    13    2
    16    15    16    1
    17    17    16    1
    18    17    18    1
    19    13    11    1
    20     1    18    2
    21     1     2    2
    22    16     9    1
    23    18     7    1
    24     3     2    2
    25     2     4    2
    26    11    12    1
    27    11    10    2
    28     9    10    1
    29     9     8    2
    30     7     8    2
    31     7     5    1
    32     4     5    2
    33     5     6    2
