@<TRIPOS>MOLECULE
1vfs_DCS_A_1.pdb
 22 23 0 0 0
SMALL
GASTEIGER

@<TRIPOS>ATOM
      1  N1        29.4200    0.7600   18.9520 N.ar  401  DCS401     -0.2452
      2  C2        28.1470    1.2820   18.6870 C.ar  401  DCS401      0.0978
      3  C2A       27.0450    1.2580   19.7220 C.3   401  DCS401      0.0555
      4  C3        27.9400    1.8370   17.4530 C.ar  401  DCS401      0.2065
      5  O3        26.7370    2.3460   17.1510 O.3   401  DCS401     -0.2856
      6  C4        29.0110    1.8680   16.5140 C.ar  401  DCS401      0.0394
      7  C4A       28.8920    2.6160   15.2260 C.3   401  DCS401      0.1425
      8  C5        30.2670    1.3010   16.8750 C.ar  401  DCS401      0.0278
      9  C6        30.4380    0.7700   18.0750 C.ar  401  DCS401      0.0965
     10  C5A       31.4560    1.2620   15.9220 C.3   401  DCS401      0.1816
     11  O4P       31.9030    2.5950   15.6460 O.3   401  DCS401     -0.2653
     12  P         32.8270    3.0250   14.4290 P.3   401  DCS401      0.5329
     13  O1P       34.1530    2.4890   14.7330 O.3   401  DCS401     -0.1145
     14  O2P       32.2640    2.4460   13.2080 O.2   401  DCS401     -0.2224
     15  O3P       32.8140    4.4800   14.3930 O.3   401  DCS401     -0.1145
     16  N         27.5260    2.5390   14.6110 N.pl3 401  DCS401     -0.2188
     17  CA        27.2460    3.4320   13.5770 C.2   401  DCS401      0.1923
     18  C         26.2590    4.4550   13.6440 C.1   401  DCS401      0.2075
     19  O         25.3340    4.5870   14.6270 O.2   401  DCS401     -0.2176
     20  ND        26.4220    5.2670   12.6280 N.2   401  DCS401      0.0013
     21  OG        27.4990    4.8240   11.8880 O.2   401  DCS401     -0.3387
     22  CB        28.0000    3.7080   12.4630 C.2   401  DCS401      0.2410
@<TRIPOS>BOND
     1    21    22    1
     2    21    20    1
     3    22    17    2
     4    20    18    2
     5    14    12    2
     6    17    18    1
     7    17    16    1
     8    18    19    2
     9    15    12    1
    10    12    13    1
    11    12    11    1
    12    16     7    1
    13     7     6    1
    14    11    10    1
    15    10     8    1
    16     6     8   ar
    17     6     4   ar
    18     8     9   ar
    19     5     4    1
    20     4     2   ar
    21     9     1   ar
    22     2     1   ar
    23     2     3    1
