@<TRIPOS>MOLECULE
1vft_DCS_A_1.pdb
 22 23 0 0 0
SMALL
GASTEIGER

@<TRIPOS>ATOM
      1  N1        29.9890    0.9230   19.1740 N.2   401  DCS401     -0.2505
      2  C2        28.7030    1.3600   18.8260 C.2   401  DCS401      0.0675
      3  C2A       27.5650    1.3230   19.8180 C.3   401  DCS401      0.0499
      4  C3        28.5260    1.8630   17.5640 C.3   401  DCS401      0.1927
      5  O3        27.2940    2.1580   17.1200 O.3   401  DCS401     -0.2166
      6  C4        29.6480    1.9540   16.6920 C.3   401  DCS401      0.0755
      7  C4A       29.5690    2.8400   15.4940 C.3   401  DCS401      0.0971
      8  C5        30.9090    1.4570   17.1270 C.2   401  DCS401      0.0087
      9  C6        31.0490    0.9660   18.3470 C.2   401  DCS401      0.0922
     10  C5A       32.1170    1.3960   16.2110 C.3   401  DCS401      0.1776
     11  O4P       32.4980    2.7190   15.8400 O.3   401  DCS401     -0.2656
     12  P         33.4520    3.0690   14.6350 P.3   401  DCS401      0.5329
     13  O1P       34.7370    2.4740   14.9890 O.3   401  DCS401     -0.1145
     14  O2P       32.8660    2.4700   13.4360 O.2   401  DCS401     -0.2224
     15  O3P       33.5040    4.5270   14.5590 O.3   401  DCS401     -0.1145
     16  N         28.6220    2.3260   14.4530 N.3   401  DCS401     -0.1994
     17  CA        27.9120    3.2760   13.7220 C.3   401  DCS401      0.2284
     18  C         26.6030    3.7170   14.0720 C.1   401  DCS401      0.1846
     19  O         25.7500    3.0580   14.9010 O.2   401  DCS401     -0.2223
     20  ND        26.3710    4.8670   13.4890 N.2   401  DCS401     -0.0082
     21  OG        27.4890    5.2160   12.7580 O.2   401  DCS401     -0.3665
     22  CB        28.4220    4.2490   12.8980 C.3   401  DCS401      0.2734
@<TRIPOS>BOND
     1    21    22    1
     2    21    20    1
     3    22    17    1
     4    14    12    2
     5    20    18    2
     6    17    18    1
     7    17    16    1
     8    18    19    2
     9    16     7    1
    10    15    12    1
    11    12    13    1
    12    12    11    1
    13     7     6    1
    14    11    10    1
    15    10     8    1
    16     6     8    1
    17     6     4    1
    18     5     4    1
    19     8     9    2
    20     4     2    1
    21     9     1    1
    22     2     1    2
    23     2     3    1
