@<TRIPOS>MOLECULE
1vfu_GLC_A_1.pdb
 11 11 0 0 0
SMALL
GASTEIGER

@<TRIPOS>ATOM
      1  C1        38.0080   61.9350   62.9780 C.3   805  GLC805      0.1777
      2  C2        37.3480   63.2560   62.5350 C.3   805  GLC805      0.2141
      3  C3        37.3640   63.3800   61.0040 C.3   805  GLC805      0.2173
      4  C4        38.7830   63.2160   60.4710 C.3   805  GLC805      0.2142
      5  C5        39.3380   61.8700   60.9450 C.3   805  GLC805      0.1810
      6  C6        40.7700   61.6220   60.5080 C.3   805  GLC805      0.2141
      7  O2        36.0080   63.3140   63.0100 O.3   805  GLC805     -0.2176
      8  O3        36.8550   64.6410   60.6040 O.3   805  GLC805     -0.2175
      9  O4        38.7610   63.2630   59.0310 O.3   805  GLC805     -0.2176
     10  O5        39.3090   61.8070   62.3920 O.3   805  GLC805     -0.3481
     11  O6        41.4710   62.8410   60.3180 O.3   805  GLC805     -0.2176
@<TRIPOS>BOND
     1     9     4    1
     2    11     6    1
     3     4     5    1
     4     4     3    1
     5     6     5    1
     6     8     3    1
     7     5    10    1
     8     3     2    1
     9    10     1    1
    10     2     1    1
    11     2     7    1
