@<TRIPOS>MOLECULE
1vfv_ANP_A_1.pdb
 31 33 0 0 0
SMALL
GASTEIGER

@<TRIPOS>ATOM
      1  PG        -8.6770   22.0720    7.9230 P.3   500  ANP500      0.4884
      2  O1G       -9.9210   21.6040    7.2240 O.2   500  ANP500     -0.2331
      3  O2G       -8.7170   21.5650    9.2930 O.3   500  ANP500     -0.1240
      4  O3G       -8.7410   23.5640    8.0170 O.3   500  ANP500     -0.1240
      5  PB        -5.8760   21.3180    7.8890 P.3   500  ANP500      0.4669
      6  O1B       -5.7390   20.4290    8.9850 O.3   500  ANP500     -0.1253
      7  O2B       -4.8450   21.8590    7.0080 O.2   500  ANP500     -0.2351
      8  N3B       -7.3830   21.3030    7.2750 N.3   500  ANP500     -0.0163
      9  PA        -5.1030   18.5160    7.5800 P.3   500  ANP500      0.2220
     10  O1A       -6.0900   17.4310    7.3710 O.2   500  ANP500     -0.5170
     11  O2A       -3.6860   18.2850    7.8560 O.3   500  ANP500     -0.4370
     12  O3A       -5.5080   19.9840    6.9920 O.3   500  ANP500     -0.2360
     13  O5'       -4.6330   17.8800    6.1820 O.3   500  ANP500     -0.3111
     14  C5'       -4.5470   18.4330    4.8720 C.3   500  ANP500      0.1813
     15  C4'       -4.5980   17.1230    3.9870 C.3   500  ANP500      0.1821
     16  O4'       -3.2830   16.8890    3.3320 O.3   500  ANP500     -0.3135
     17  C3'       -4.7840   15.7480    4.6770 C.3   500  ANP500      0.2184
     18  O3'       -5.3450   14.8050    3.7600 O.3   500  ANP500     -0.2174
     19  C2'       -3.3550   15.4230    5.1420 C.3   500  ANP500      0.2570
     20  O2'       -3.2030   14.0020    5.4070 O.3   500  ANP500     -0.2130
     21  C1'       -2.5240   15.8940    3.9800 C.3   500  ANP500      0.3186
     22  N9        -1.1920   16.4520    4.3820 N.pl3 500  ANP500     -0.1439
     23  C8        -0.9090   17.6380    4.9740 C.3   500  ANP500      0.3377
     24  N7         0.3820   17.8140    5.1730 N.2   500  ANP500     -0.2095
     25  C5         0.9940   16.7130    4.7110 C.2   500  ANP500      0.2526
     26  C6         2.3730   16.3620    4.6520 C.2   500  ANP500      0.4393
     27  N6         3.3580   17.0370    5.0570 N.pl3 500  ANP500      0.2180
     28  N1         2.5770   15.1110    4.0890 N.2   500  ANP500      0.0021
     29  C2         1.5630   14.3000    3.6160 C.3   500  ANP500      0.5254
     30  N3         0.2910   14.6330    3.6610 N.2   500  ANP500     -0.0055
     31  C4         0.0460   15.8520    4.2090 C.2   500  ANP500      0.3518
@<TRIPOS>BOND
     1    16    21    1
     2    16    15    1
     3    29    30    1
     4    29    28    1
     5    30    31    2
     6    18    17    1
     7    21    22    1
     8    21    19    1
     9    15    17    1
    10    15    14    1
    11    28    26    2
    12    31    22    1
    13    31    25    1
    14    22    23    1
    15    26    25    1
    16    26    27    1
    17    17    19    1
    18    25    24    2
    19    14    13    1
    20    23    24    1
    21    19    20    1
    22    13     9    1
    23    12     9    1
    24    12     5    1
    25     7     5    2
    26     2     1    2
    27     8     5    1
    28     8     1    1
    29    10     9    2
    30     9    11    1
    31     5     6    1
    32     1     4    1
    33     1     3    1
