@<TRIPOS>MOLECULE
1vfw_ANP_A_1.pdb
 31 33 0 0 0
SMALL
GASTEIGER

@<TRIPOS>ATOM
      1  PG        -8.6420   22.1030    7.7800 P.3   500  ANP500      0.4884
      2  O1G       -9.8240   21.6800    6.9550 O.2   500  ANP500     -0.2331
      3  O2G       -8.7600   21.8360    9.2390 O.3   500  ANP500     -0.1240
      4  O3G       -8.3130   23.6470    7.5460 O.3   500  ANP500     -0.1240
      5  PB        -5.7990   21.4120    7.7380 P.3   500  ANP500      0.4669
      6  O1B       -5.5350   20.5980    8.9200 O.3   500  ANP500     -0.1253
      7  O2B       -4.8510   21.8690    6.7480 O.2   500  ANP500     -0.2351
      8  N3B       -7.3320   21.3070    7.2290 N.3   500  ANP500     -0.0163
      9  PA        -4.8850   18.6350    7.5500 P.3   500  ANP500      0.2220
     10  O1A       -5.7930   17.4510    7.5540 O.2   500  ANP500     -0.5170
     11  O2A       -3.4250   18.5620    7.6340 O.3   500  ANP500     -0.4370
     12  O3A       -5.4770   20.0030    6.9540 O.3   500  ANP500     -0.2360
     13  O5'       -4.5430   17.9100    6.1360 O.3   500  ANP500     -0.3111
     14  C5'       -4.6700   18.4160    4.7990 C.3   500  ANP500      0.1813
     15  C4'       -4.6270   17.0770    3.9430 C.3   500  ANP500      0.1821
     16  O4'       -3.2930   16.8820    3.3200 O.3   500  ANP500     -0.3135
     17  C3'       -4.8030   15.7180    4.6640 C.3   500  ANP500      0.2184
     18  O3'       -5.4500   14.7900    3.7980 O.3   500  ANP500     -0.2174
     19  C2'       -3.3590   15.3240    5.0510 C.3   500  ANP500      0.2570
     20  O2'       -3.2300   13.8840    5.1680 O.3   500  ANP500     -0.2130
     21  C1'       -2.5320   15.8690    3.9220 C.3   500  ANP500      0.3186
     22  N9        -1.2020   16.4050    4.3500 N.pl3 500  ANP500     -0.1439
     23  C8        -0.9150   17.5880    4.9500 C.3   500  ANP500      0.3377
     24  N7         0.3790   17.7410    5.1720 N.2   500  ANP500     -0.2095
     25  C5         0.9890   16.6160    4.7050 C.2   500  ANP500      0.2526
     26  C6         2.3640   16.2310    4.6660 C.2   500  ANP500      0.4393
     27  N6         3.3670   16.8790    5.0850 N.pl3 500  ANP500      0.2180
     28  N1         2.5470   14.9850    4.0980 N.2   500  ANP500      0.0021
     29  C2         1.5210   14.1860    3.6090 C.3   500  ANP500      0.5254
     30  N3         0.2620   14.5420    3.6400 N.2   500  ANP500     -0.0055
     31  C4         0.0330   15.7750    4.1950 C.2   500  ANP500      0.3518
@<TRIPOS>BOND
     1    16    21    1
     2    16    15    1
     3    29    30    1
     4    29    28    1
     5    30    31    2
     6    18    17    1
     7    21    22    1
     8    21    19    1
     9    15    17    1
    10    15    14    1
    11    28    26    2
    12    31    22    1
    13    31    25    1
    14    22    23    1
    15    17    19    1
    16    26    25    1
    17    26    27    1
    18    25    24    2
    19    14    13    1
    20    23    24    1
    21    19    20    1
    22    13     9    1
    23     7     5    2
    24    12     9    1
    25    12     5    1
    26     2     1    2
    27     8     5    1
    28     8     1    1
    29     4     1    1
    30     9    10    2
    31     9    11    1
    32     5     6    1
    33     1     3    1
