@<TRIPOS>MOLECULE
1vfx_ADP_A_1.pdb
 27 29 0 0 0
SMALL
GASTEIGER

@<TRIPOS>ATOM
      1  PB        -3.4450   20.7510    7.1330 P.3   500  ADP500      0.5373
      2  O1B       -3.6730   21.5610    5.8880 O.2   500  ADP500     -0.2221
      3  O2B       -2.5650   21.5110    8.0950 O.3   500  ADP500     -0.1143
      4  O3B       -4.7560   20.3430    7.7260 O.3   500  ADP500     -0.1143
      5  PA        -2.4490   18.0990    6.6920 P.3   500  ADP500      0.2231
      6  O1A       -1.5630   17.7250    7.8630 O.3   500  ADP500     -0.4370
      7  O2A       -3.8580   17.5430    6.9050 O.2   500  ADP500     -0.5169
      8  O3A       -2.5050   19.6650    6.5280 O.3   500  ADP500     -0.2261
      9  O5'       -1.8590   17.5530    5.3840 O.3   500  ADP500     -0.3111
     10  C5'       -2.8180   16.8480    4.6350 C.3   500  ADP500      0.1813
     11  C4'       -2.1940   15.8270    3.7960 C.3   500  ADP500      0.1821
     12  O4'       -1.0560   16.3620    3.1160 O.3   500  ADP500     -0.3135
     13  C3'       -1.7830   14.5800    4.5320 C.3   500  ADP500      0.2184
     14  O3'       -2.7670   13.5530    4.3030 O.3   500  ADP500     -0.2174
     15  C2'       -0.2830   14.3650    4.0740 C.3   500  ADP500      0.2570
     16  O2'       -0.0010   13.1160    3.3900 O.3   500  ADP500     -0.2130
     17  C1'        0.0840   15.5940    3.2100 C.3   500  ADP500      0.3186
     18  N9         1.2570   16.3510    3.7620 N.pl3 500  ADP500     -0.1439
     19  C8         1.3370   17.5530    4.3790 C.3   500  ADP500      0.3377
     20  N7         2.5960   17.8760    4.7900 N.2   500  ADP500     -0.2095
     21  C5         3.3660   16.8030    4.4120 C.2   500  ADP500      0.2526
     22  C6         4.7860   16.5290    4.5160 C.2   500  ADP500      0.4393
     23  N6         5.6800   17.3500    5.0890 N.pl3 500  ADP500      0.2180
     24  N1         5.2320   15.3180    4.0000 N.2   500  ADP500      0.0021
     25  C2         4.3130   14.4650    3.4070 C.3   500  ADP500      0.5254
     26  N3         3.0040   14.6320    3.2590 N.2   500  ADP500     -0.0055
     27  C4         2.5720   15.8440    3.7740 C.2   500  ADP500      0.3518
@<TRIPOS>BOND
     1    12    17    1
     2    12    11    1
     3    17    18    1
     4    17    15    1
     5    26    25    1
     6    26    27    2
     7    16    15    1
     8    25    24    1
     9    18    27    1
    10    18    19    1
    11    27    21    1
    12    11    13    1
    13    11    10    1
    14    24    22    2
    15    15    13    1
    16    14    13    1
    17    19    20    1
    18    21    22    1
    19    21    20    2
    20    22    23    1
    21    10     9    1
    22     9     5    1
    23     2     1    2
    24     8     5    1
    25     8     1    1
    26     5     7    2
    27     5     6    1
    28     1     4    1
    29     1     3    1
