@<TRIPOS>MOLECULE
1vfz_ADP_A_1.pdb
 27 29 0 0 0
SMALL
GASTEIGER

@<TRIPOS>ATOM
      1  PB        24.0580  -19.5510    7.1730 P.3   500  ADP500      0.5373
      2  O1B       25.3810  -19.9590    6.6040 O.3   500  ADP500     -0.1143
      3  O2B       22.8130  -20.1640    6.4990 O.2   500  ADP500     -0.2221
      4  O3B       23.9880  -19.6940    8.6780 O.3   500  ADP500     -0.1143
      5  PA        22.6920  -16.8750    6.7290 P.3   500  ADP500      0.2231
      6  O1A       21.9700  -17.6290    7.7900 O.3   500  ADP500     -0.4370
      7  O2A       23.9050  -16.0670    6.7370 O.2   500  ADP500     -0.5169
      8  O3A       23.8840  -17.9930    6.9500 O.3   500  ADP500     -0.2261
      9  O5'       22.3710  -17.4930    5.3010 O.3   500  ADP500     -0.3111
     10  C5'       23.0120  -16.8930    4.1520 C.3   500  ADP500      0.1813
     11  C4'       22.3750  -15.6740    3.4870 C.3   500  ADP500      0.1821
     12  O4'       21.0620  -15.9770    2.9340 O.3   500  ADP500     -0.3135
     13  C3'       22.1830  -14.3390    4.2470 C.3   500  ADP500      0.2184
     14  O3'       22.7340  -13.2640    3.4510 O.3   500  ADP500     -0.2174
     15  C2'       20.6170  -14.0950    4.3180 C.3   500  ADP500      0.2570
     16  O2'       20.2340  -12.7320    4.0170 O.3   500  ADP500     -0.2130
     17  C1'       20.0070  -15.0660    3.2700 C.3   500  ADP500      0.3186
     18  N9        18.7450  -15.7820    3.7380 N.pl3 500  ADP500     -0.1439
     19  C8        18.6230  -17.0210    4.1970 C.3   500  ADP500      0.3377
     20  N7        17.4160  -17.3140    4.5550 N.2   500  ADP500     -0.2095
     21  C5        16.7010  -16.1330    4.3710 C.2   500  ADP500      0.2526
     22  C6        15.2930  -15.7360    4.5340 C.2   500  ADP500      0.4393
     23  N6        14.3210  -16.5680    5.0200 N.pl3 500  ADP500      0.2180
     24  N1        14.9560  -14.4430    4.2240 N.2   500  ADP500      0.0021
     25  C2        15.8840  -13.5980    3.7670 C.3   500  ADP500      0.5254
     26  N3        17.1870  -13.8830    3.5530 N.2   500  ADP500     -0.0055
     27  C4        17.5460  -15.1570    3.9140 C.2   500  ADP500      0.3518
@<TRIPOS>BOND
     1    12    17    1
     2    12    11    1
     3    17    18    1
     4    17    15    1
     5    14    13    1
     6    11    10    1
     7    11    13    1
     8    26    25    1
     9    26    27    2
    10    18    27    1
    11    18    19    1
    12    25    24    1
    13    27    21    1
    14    16    15    1
    15    10     9    1
    16    19    20    1
    17    24    22    2
    18    13    15    1
    19    21    22    1
    20    21    20    2
    21    22    23    1
    22     9     5    1
    23     3     1    2
    24     2     1    1
    25     5     7    2
    26     5     8    1
    27     5     6    1
    28     8     1    1
    29     1     4    1
