@<TRIPOS>MOLECULE
1vg0_GER_A_1.pdb
 20 19 0 0 0
SMALL
GASTEIGER

@<TRIPOS>ATOM
      1  C1        84.2680   38.7250    7.3400 C.3   952  GER952      0.0300
      2  C2        83.5240   38.3780    6.0420 C.2   952  GER952     -0.0342
      3  C3        84.0050   37.6320    4.9750 C.2   952  GER952     -0.0478
      4  C4        85.4400   37.0630    5.0490 C.3   952  GER952      0.0260
      5  C5        83.0830   37.3980    3.7320 C.3   952  GER952      0.0263
      6  C6        83.4270   36.6120    2.4530 C.3   952  GER952      0.0297
      7  C7        82.9100   35.1580    2.5190 C.2   952  GER952     -0.0342
      8  C8        83.7280   34.0330    2.6160 C.2   952  GER952     -0.0478
      9  C9        85.2720   34.2170    2.6590 C.3   952  GER952      0.0260
     10  C10       82.9570   32.6870    2.6710 C.3   952  GER952      0.0263
     11  C11       83.2560   31.5550    3.6690 C.3   952  GER952      0.0297
     12  C12       82.4540   30.3720    3.0740 C.2   952  GER952     -0.0342
     13  C13       81.2510   29.8650    3.5600 C.2   952  GER952     -0.0478
     14  C14       80.5980   30.4910    4.8110 C.3   952  GER952      0.0260
     15  C15       80.5780   28.6720    2.8340 C.3   952  GER952      0.0263
     16  C16       79.0660   28.3780    2.8220 C.3   952  GER952      0.0297
     17  C17       78.6820   27.4080    1.6890 C.2   952  GER952     -0.0342
     18  C18       77.6230   26.5050    1.7210 C.2   952  GER952     -0.0478
     19  C19       76.7240   26.4230    2.9770 C.3   952  GER952      0.0260
     20  C20       77.5030   25.6700    0.4140 C.3   952  GER952      0.0260
@<TRIPOS>BOND
     1    20    18    1
     2    17    18    2
     3    17    16    1
     4    18    19    1
     5     6     7    1
     6     6     5    1
     7     7     8    2
     8     8     9    1
     9     8    10    1
    10    10    11    1
    11    16    15    1
    12    15    13    1
    13    12    13    2
    14    12    11    1
    15    13    14    1
    16     5     3    1
    17     3     4    1
    18     3     2    2
    19     2     1    1
