@<TRIPOS>MOLECULE
1vg0_GDP_B_1.pdb
 28 30 0 0 0
SMALL
GASTEIGER

@<TRIPOS>ATOM
      1  PB        85.2610   32.4120   55.9220 P.3   1557  GDP1557     0.5373
      2  O1B       83.9100   32.8280   56.3080 O.3   1557  GDP1557    -0.1143
      3  O2B       85.5830   30.9810   56.2430 O.3   1557  GDP1557    -0.1143
      4  O3B       85.6120   32.4240   54.4270 O.2   1557  GDP1557    -0.2221
      5  O3A       86.4800   33.2300   56.8260 O.3   1557  GDP1557    -0.2261
      6  PA        86.7170   34.8340   56.8420 P.3   1557  GDP1557     0.2231
      7  O1A       88.1020   34.7700   56.2940 O.3   1557  GDP1557    -0.4370
      8  O2A       85.8480   35.7950   56.1330 O.2   1557  GDP1557    -0.5169
      9  O5'       86.9200   35.0510   58.4350 O.3   1557  GDP1557    -0.3111
     10  C5'       85.8780   35.1560   59.3940 C.3   1557  GDP1557     0.1813
     11  C4'       86.3120   36.0300   60.5850 C.3   1557  GDP1557     0.1799
     12  O4'       87.4190   35.5180   61.4240 O.3   1557  GDP1557    -0.3326
     13  C3'       86.8170   37.4650   60.2260 C.3   1557  GDP1557     0.2158
     14  O3'       86.2400   38.3410   61.2500 O.3   1557  GDP1557    -0.2175
     15  C2'       88.3710   37.3660   60.3140 C.3   1557  GDP1557     0.2310
     16  O2'       89.0320   38.5680   60.6680 O.3   1557  GDP1557    -0.2158
     17  C1'       88.5880   36.2900   61.3330 C.3   1557  GDP1557     0.2293
     18  N9        89.7680   35.3680   61.0620 N.pl3 1557  GDP1557    -0.2354
     19  C8        90.1550   34.6200   59.9820 C.3   1557  GDP1557     0.2246
     20  N7        91.2640   33.9580   60.1830 N.2   1557  GDP1557    -0.2322
     21  C5        91.6520   34.2790   61.4840 C.2   1557  GDP1557     0.2182
     22  C6        92.7790   33.8740   62.2940 C.1   1557  GDP1557     0.2372
     23  O6        93.6960   33.1120   61.9850 O.2   1557  GDP1557    -0.2069
     24  N1        92.7720   34.4560   63.5890 N.2   1557  GDP1557    -0.2485
     25  C2        91.8180   35.3120   64.0660 C.1   1557  GDP1557     0.2531
     26  N2        91.9940   35.7410   65.3120 N.pl3 1557  GDP1557    -0.0226
     27  N3        90.7370   35.7170   63.3190 N.2   1557  GDP1557    -0.3074
     28  C4        90.7430   35.1490   62.0590 C.2   1557  GDP1557     0.2300
@<TRIPOS>BOND
     1     4     1    2
     2     1     3    1
     3     1     2    1
     4     1     5    1
     5     8     6    2
     6     7     6    1
     7     5     6    1
     8     6     9    1
     9     9    10    1
    10    10    11    1
    11    19    20    1
    12    19    18    1
    13    20    21    2
    14    13    15    1
    15    13    11    1
    16    13    14    1
    17    15    16    1
    18    15    17    1
    19    11    12    1
    20    18    17    1
    21    18    28    1
    22    17    12    1
    23    21    28    1
    24    21    22    1
    25    23    22    2
    26    28    27    2
    27    22    24    2
    28    27    25    2
    29    24    25    2
    30    25    26    1
