@<TRIPOS>MOLECULE
1vg1_GDP_A_1.pdb
 28 30 0 0 0
SMALL
GASTEIGER

@<TRIPOS>ATOM
      1  PB        15.9580   28.5240    3.5180 P.3   1557  GDP1557     0.5373
      2  O1B       15.5680   28.0150    2.1270 O.2   1557  GDP1557    -0.2221
      3  O2B       16.5380   29.9010    3.5220 O.3   1557  GDP1557    -0.1143
      4  O3B       14.8190   28.6320    4.5340 O.3   1557  GDP1557    -0.1143
      5  O3A       17.2630   27.7200    4.2770 O.3   1557  GDP1557    -0.2261
      6  PA        17.1970   26.1560    4.7370 P.3   1557  GDP1557     0.2231
      7  O1A       17.2270   26.4190    6.2310 O.3   1557  GDP1557    -0.4370
      8  O2A       16.0460   25.2760    4.3820 O.2   1557  GDP1557    -0.5169
      9  O5'       18.6610   25.7520    4.3250 O.3   1557  GDP1557    -0.3111
     10  C5'       19.0240   25.4450    2.9770 C.3   1557  GDP1557     0.1813
     11  C4'       20.0770   24.3580    3.0110 C.3   1557  GDP1557     0.1799
     12  O4'       21.3540   24.7530    3.6080 O.3   1557  GDP1557    -0.3326
     13  C3'       19.7130   23.0860    3.8390 C.3   1557  GDP1557     0.2158
     14  O3'       20.3340   21.9960    3.1150 O.3   1557  GDP1557    -0.2175
     15  C2'       20.3890   23.2940    5.1960 C.3   1557  GDP1557     0.2310
     16  O2'       20.7020   22.1160    5.9100 O.3   1557  GDP1557    -0.2158
     17  C1'       21.6070   24.0880    4.8420 C.3   1557  GDP1557     0.2293
     18  N9        22.0110   25.0610    5.9240 N.pl3 1557  GDP1557    -0.2354
     19  C8        21.2970   25.9710    6.6840 C.3   1557  GDP1557     0.2246
     20  N7        22.0510   26.6210    7.5360 N.2   1557  GDP1557    -0.2322
     21  C5        23.3280   26.1330    7.3580 C.2   1557  GDP1557     0.2182
     22  C6        24.5770   26.4540    8.0010 C.1   1557  GDP1557     0.2372
     23  O6        24.7520   27.2900    8.9100 O.2   1557  GDP1557    -0.2069
     24  N1        25.6760   25.6860    7.4970 N.2   1557  GDP1557    -0.2485
     25  C2        25.5780   24.7360    6.4920 C.1   1557  GDP1557     0.2531
     26  N2        26.7050   24.1250    6.1620 N.pl3 1557  GDP1557    -0.0226
     27  N3        24.3910   24.4200    5.8660 N.2   1557  GDP1557    -0.3074
     28  C4        23.3490   25.1600    6.3490 C.2   1557  GDP1557     0.2300
@<TRIPOS>BOND
     1     2     1    2
     2    10    11    1
     3    10     9    1
     4    11    12    1
     5    11    13    1
     6    14    13    1
     7     1     3    1
     8     1     5    1
     9     1     4    1
    10    12    17    1
    11    13    15    1
    12     5     6    1
    13     9     6    1
    14     8     6    2
    15     6     7    1
    16    17    15    1
    17    17    18    1
    18    15    16    1
    19    27    28    2
    20    27    25    2
    21    18    28    1
    22    18    19    1
    23    26    25    1
    24    28    21    1
    25    25    24    2
    26    19    20    1
    27    21    20    2
    28    21    22    1
    29    24    22    2
    30    22    23    2
