@<TRIPOS>MOLECULE
1vg8_GNP_A_1.pdb
 32 34 0 0 0
SMALL
GASTEIGER

@<TRIPOS>ATOM
      1  PG         5.3800    4.3490   29.6510 P.3   1400  GNP1400     0.4884
      2  O1G        6.4040    5.3570   29.0740 O.2   1400  GNP1400    -0.2331
      3  O2G        4.0110    4.6150   29.1120 O.3   1400  GNP1400    -0.1240
      4  O3G        5.4420    4.3490   31.1660 O.3   1400  GNP1400    -0.1240
      5  N3B        5.9360    2.7960   29.0470 N.3   1400  GNP1400    -0.0163
      6  PB         5.0640    1.3680   29.3540 P.3   1400  GNP1400     0.4669
      7  O1B        5.4810    0.8120   30.6570 O.3   1400  GNP1400    -0.1253
      8  O2B        3.6300    1.7090   29.1360 O.2   1400  GNP1400    -0.2351
      9  O3A        5.5850    0.4250   28.1610 O.3   1400  GNP1400    -0.2360
     10  PA         4.8880    0.0510   26.7930 P.3   1400  GNP1400     0.2220
     11  O1A        3.7560   -0.8530   27.0140 O.3   1400  GNP1400    -0.4370
     12  O2A        4.5990    1.3600   26.0750 O.2   1400  GNP1400    -0.5170
     13  O5'        5.9760   -0.8200   26.0970 O.3   1400  GNP1400    -0.3111
     14  C5'        7.2670   -0.2680   25.7300 C.3   1400  GNP1400     0.1813
     15  C4'        7.8560   -1.1160   24.6520 C.3   1400  GNP1400     0.1799
     16  O4'        8.0840   -2.4580   25.0190 O.3   1400  GNP1400    -0.3326
     17  C3'        6.9430   -1.1900   23.4180 C.3   1400  GNP1400     0.2158
     18  O3'        7.7260   -1.0570   22.1980 O.3   1400  GNP1400    -0.2175
     19  C2'        6.3190   -2.5580   23.4960 C.3   1400  GNP1400     0.2310
     20  O2'        6.0160   -3.0940   22.2290 O.3   1400  GNP1400    -0.2158
     21  C1'        7.3980   -3.3230   24.1850 C.3   1400  GNP1400     0.2293
     22  N9         6.8710   -4.3970   25.0170 N.pl3 1400  GNP1400    -0.2354
     23  C8         5.8260   -4.2730   26.0460 C.3   1400  GNP1400     0.2246
     24  N7         5.6000   -5.4490   26.6170 N.2   1400  GNP1400    -0.2322
     25  C5         6.5040   -6.3660   25.9750 C.2   1400  GNP1400     0.2182
     26  C6         6.6970   -7.7980   26.2330 C.1   1400  GNP1400     0.2372
     27  O6         6.1480   -8.5020   27.0130 O.2   1400  GNP1400    -0.2069
     28  N1         7.6880   -8.3050   25.3700 N.2   1400  GNP1400    -0.2485
     29  C2         8.3270   -7.4280   24.4440 C.1   1400  GNP1400     0.2531
     30  N2         9.3230   -8.1390   23.6450 N.pl3 1400  GNP1400    -0.0226
     31  N3         8.2120   -6.1830   24.1840 N.2   1400  GNP1400    -0.3074
     32  C4         7.2500   -5.6960   25.0160 C.2   1400  GNP1400     0.2300
@<TRIPOS>BOND
     1    18    17    1
     2    20    19    1
     3    17    19    1
     4    17    15    1
     5    19    21    1
     6    30    29    1
     7    31    29    2
     8    31    32    2
     9    21    22    1
    10    21    16    1
    11    29    28    2
    12    15    16    1
    13    15    14    1
    14    32    22    1
    15    32    25    1
    16    22    23    1
    17    28    26    2
    18    14    13    1
    19    25    26    1
    20    25    24    2
    21    23    24    1
    22    12    10    2
    23    13    10    1
    24    26    27    2
    25    10    11    1
    26    10     9    1
    27     9     6    1
    28     5     6    1
    29     5     1    1
    30     2     1    2
    31     3     1    1
    32     8     6    2
    33     6     7    1
    34     1     4    1
