@<TRIPOS>MOLECULE
1vg9_GDP_B_1.pdb
 28 30 0 0 0
SMALL
GASTEIGER

@<TRIPOS>ATOM
      1  PB        76.8110   59.1190   11.0290 P.3   2302  GDP2302     0.5373
      2  O1B       75.4660   59.6350   11.2630 O.3   2302  GDP2302    -0.1143
      3  O2B       77.7290   59.0610   12.2050 O.3   2302  GDP2302    -0.1143
      4  O3B       76.9400   57.6550   10.5530 O.2   2302  GDP2302    -0.2221
      5  O3A       77.6590   60.1710   10.0220 O.3   2302  GDP2302    -0.2261
      6  PA        77.1070   60.5960    8.5520 P.3   2302  GDP2302     0.2231
      7  O1A       78.3030   60.0550    7.8370 O.2   2302  GDP2302    -0.5169
      8  O2A       75.7770   60.1550    8.0460 O.3   2302  GDP2302    -0.4370
      9  O5'       77.3600   62.1760    8.6240 O.3   2302  GDP2302    -0.3111
     10  C5'       76.5040   63.1370    9.1990 C.3   2302  GDP2302     0.1813
     11  C4'       76.6010   64.4320    8.3840 C.3   2302  GDP2302     0.1799
     12  O4'       77.9060   65.1130    8.3950 O.3   2302  GDP2302    -0.3326
     13  C3'       76.3440   64.3250    6.8320 C.3   2302  GDP2302     0.2158
     14  O3'       75.7240   65.6000    6.4810 O.3   2302  GDP2302    -0.2175
     15  C2'       77.7350   64.2420    6.1980 C.3   2302  GDP2302     0.2310
     16  O2'       77.7980   64.7090    4.8470 O.3   2302  GDP2302    -0.2158
     17  C1'       78.5560   65.0780    7.1430 C.3   2302  GDP2302     0.2293
     18  N9        79.9650   64.5890    7.3220 N.pl3 2302  GDP2302    -0.2354
     19  C8        80.5030   63.3580    7.5360 C.3   2302  GDP2302     0.2246
     20  N7        81.8100   63.3710    7.6220 N.2   2302  GDP2302    -0.2322
     21  C5        82.1730   64.6930    7.4550 C.2   2302  GDP2302     0.2182
     22  C6        83.4550   65.3500    7.4410 C.1   2302  GDP2302     0.2372
     23  O6        84.5850   64.8320    7.5760 O.2   2302  GDP2302    -0.2069
     24  N1        83.3410   66.7590    7.2410 N.2   2302  GDP2302    -0.2485
     25  C2        82.1540   67.4570    7.0760 C.1   2302  GDP2302     0.2531
     26  N2        82.2690   68.7910    6.9080 N.pl3 2302  GDP2302    -0.0226
     27  N3        80.9210   66.8380    7.0780 N.2   2302  GDP2302    -0.3074
     28  C4        81.0370   65.4870    7.2750 C.2   2302  GDP2302     0.2300
@<TRIPOS>BOND
     1    16    15    1
     2    15    13    1
     3    15    17    1
     4    14    13    1
     5    13    11    1
     6    26    25    1
     7    25    27    2
     8    25    24    2
     9    27    28    2
    10    17    18    1
    11    17    12    1
    12    24    22    2
    13    28    18    1
    14    28    21    1
    15    18    19    1
    16    22    21    1
    17    22    23    2
    18    21    20    2
    19    19    20    1
    20     7     6    2
    21     8     6    1
    22    11    12    1
    23    11    10    1
    24     6     9    1
    25     6     5    1
    26     9    10    1
    27     5     1    1
    28     4     1    2
    29     1     2    1
    30     1     3    1
