@<TRIPOS>MOLECULE
1vgc_V36_C_1.pdb
 16 16 0 0 0
SMALL
GASTEIGER

@<TRIPOS>ATOM
      1  C1        26.8760    3.4290   40.1690 C.ar  358  V36358      0.0000
      2  C2        27.0200    2.5050   41.2060 C.ar  358  V36358      0.0000
      3  C3        26.8610    2.8880   42.5440 C.ar  358  V36358      0.0000
      4  C4        26.5560    4.2020   42.8510 C.ar  358  V36358      0.0000
      5  C5        26.4300    5.1380   41.8340 C.ar  358  V36358      0.0000
      6  C6        26.5950    4.7520   40.5090 C.ar  358  V36358      0.0000
      7  C7        26.8560    2.9970   38.7220 C.3   358  V36358      0.0000
      8  C8        27.7440    1.8220   38.3480 C.3   358  V36358      0.0000
      9  C9        31.4680    1.6380   38.5250 C.3   358  V36358      0.0000
     10  C         30.0570    1.2290   38.9010 C.2   358  V36358      0.0000
     11  N         29.0790    2.1210   38.8070 N.am  358  V36358      0.0000
     12  O         29.8210    0.0490   39.1740 O.2   358  V36358      0.0000
     13  O2B       26.4770    0.7070   36.6590 O.3   358  V36358      0.0000
     14  O3B       28.8580    0.6520   36.6170 O.3   358  V36358      0.0000
     15  B         27.6760    1.4890   36.7200 B     358  V36358      0.0000
     16 CL4        26.2360    4.8280   44.4970 Cl    358  V36358      0.0000
@<TRIPOS>BOND
     1    14    15    1
     2    13    15    1
     3    15     8    1
     4     8     7    1
     5     8    11    1
     6     9    10    1
     7     7     1    1
     8    11    10   am
     9    10    12    2
    10     1     6   ar
    11     1     2   ar
    12     6     5   ar
    13     2     3   ar
    14     5     4   ar
    15     3     4   ar
    16     4    16    1
