@<TRIPOS>MOLECULE
1vgi_HEM_A_1.pdb
 43 50 0 0 0
SMALL
GASTEIGER

@<TRIPOS>ATOM
      1 FE        -90.4460  -11.8290  -88.0420 Fe    300  HEM300      0.0000
      2  CHA      -88.8110   -8.9100  -87.3800 C.2   300  HEM300      0.0000
      3  CHB      -89.0530  -11.9020  -91.1510 C.2   300  HEM300      0.0000
      4  CHC      -91.8960  -14.8750  -88.6060 C.2   300  HEM300      0.0000
      5  CHD      -92.1380  -11.6040  -85.0990 C.2   300  HEM300      0.0000
      6  NA       -89.2010  -10.6310  -89.0720 N.ar  300  HEM300      0.0000
      7  C1A      -88.6080   -9.4560  -88.6470 C.ar  300  HEM300      0.0000
      8  C2A      -87.7770   -8.8790  -89.6890 C.ar  300  HEM300      0.0000
      9  C3A      -87.9730   -9.6450  -90.8010 C.ar  300  HEM300      0.0000
     10  C4A      -88.7710  -10.7950  -90.3680 C.ar  300  HEM300      0.0000
     11  CMA      -87.4980   -9.4130  -92.2070 C.3   300  HEM300      0.0000
     12  CAA      -86.8690   -7.6490  -89.5390 C.3   300  HEM300      0.0000
     13  CBA      -87.6030   -6.2740  -89.6990 C.3   300  HEM300      0.0000
     14  CGA      -87.0040   -5.1110  -89.1080 C.2   300  HEM300      0.0000
     15  O1A      -85.8470   -5.2630  -88.5280 O.co2 300  HEM300      0.0000
     16  O2A      -87.5480   -3.9810  -89.1290 O.co2 300  HEM300      0.0000
     17  NB       -90.5030  -13.0980  -89.5670 N.2   300  HEM300      0.0000
     18  C1B      -89.9080  -12.9500  -90.8020 C.2   300  HEM300      0.0000
     19  C2B      -90.2810  -14.0300  -91.7050 C.2   300  HEM300      0.0000
     20  C3B      -90.9420  -14.9470  -90.9450 C.2   300  HEM300      0.0000
     21  C4B      -91.1520  -14.3190  -89.6410 C.2   300  HEM300      0.0000
     22  CMB      -89.9500  -14.0590  -93.1830 C.3   300  HEM300      0.0000
     23  CAB      -91.3540  -16.3550  -91.2980 C.3   300  HEM300      0.0000
     24  CBB      -92.6790  -16.4380  -92.0770 C.3   300  HEM300      0.0000
     25  NC       -91.7020  -13.0030  -87.0360 N.ar  300  HEM300      0.0000
     26  C1C      -92.1790  -14.2730  -87.4120 C.ar  300  HEM300      0.0000
     27  C2C      -93.0140  -14.8480  -86.3700 C.ar  300  HEM300      0.0000
     28  C3C      -93.1200  -13.8940  -85.4220 C.ar  300  HEM300      0.0000
     29  C4C      -92.3070  -12.7730  -85.8300 C.ar  300  HEM300      0.0000
     30  CMC      -93.6030  -16.2510  -86.4090 C.3   300  HEM300      0.0000
     31  CAC      -93.9250  -13.9650  -84.1180 C.3   300  HEM300      0.0000
     32  CBC      -95.4560  -13.7850  -84.3690 C.3   300  HEM300      0.0000
     33  ND       -90.4610  -10.5170  -86.5420 N.2   300  HEM300      0.0000
     34  C1D      -91.2220  -10.5830  -85.3850 C.2   300  HEM300      0.0000
     35  C2D      -90.9570   -9.4440  -84.5010 C.2   300  HEM300      0.0000
     36  C3D      -90.0600   -8.6820  -85.1590 C.2   300  HEM300      0.0000
     37  C4D      -89.7390   -9.3710  -86.4280 C.2   300  HEM300      0.0000
     38  CMD      -91.6070   -9.2480  -83.1570 C.3   300  HEM300      0.0000
     39  CAD      -89.4490   -7.3580  -84.7750 C.3   300  HEM300      0.0000
     40  CBD      -88.0790   -7.5170  -83.9880 C.3   300  HEM300      0.0000
     41  CGD      -87.5770   -6.2720  -83.5430 C.2   300  HEM300      0.0000
     42  O1D      -87.4780   -6.0480  -82.2970 O.co2 300  HEM300      0.0000
     43  O2D      -87.2270   -5.3750  -84.3610 O.co2 300  HEM300      0.0000
@<TRIPOS>BOND
     1    22    19    1
     2    11     9    1
     3    24    23    1
     4    19    20    2
     5    19    18    1
     6    23    20    1
     7     3    18    1
     8     3    10    2
     9    20    21    1
    10    18    17    2
    11     9    10   ar
    12     9     8   ar
    13    10     6   ar
    14    13    12    1
    15    13    14    1
    16     8    12    1
    17     8     7   ar
    18    21    17    1
    19    21     4    2
    20    17     1    1
    21    16    14   ar
    22    14    15   ar
    23     6     7   ar
    24     6     1    1
    25     7     2    2
    26     4    26    1
    27     1    25    1
    28     1    33    1
    29    26    25   ar
    30    26    27   ar
    31     2    37    1
    32    25    29   ar
    33    33    37    2
    34    33    34    1
    35    37    36    1
    36    30    27    1
    37    27    28   ar
    38    29    28   ar
    39    29     5    1
    40    28    31    1
    41    34     5    2
    42    34    35    1
    43    36    39    1
    44    36    35    2
    45    39    40    1
    46    35    38    1
    47    32    31    1
    48    43    41   ar
    49    40    41    1
    50    41    42   ar
