@<TRIPOS>MOLECULE
1vgn_OPS_A_1.pdb
 10 9 0 0 0
SMALL
GASTEIGER

@<TRIPOS>ATOM
      1  CL        25.0300   21.4790  127.9790 C.2   1161  OPS1161     0.2083
      2  OM        24.2460   21.6380  128.9200 O.2   1161  OPS1161    -0.2883
      3  CN        24.8870   20.3070  127.0120 C.3   1161  OPS1161     0.0843
      4  CO        24.0100   19.1810  127.5400 C.3   1161  OPS1161     0.0732
      5  SR        24.9010   18.0700  128.6740 S.3   1161  OPS1161    -0.0767
      6  CS        23.7880   18.0180  130.0230 C.2   1161  OPS1161     0.1996
      7  OT        22.6600   18.5100  129.9080 O.2   1161  OPS1161    -0.2845
      8  CU        24.2210   17.3410  131.3210 C.3   1161  OPS1161     0.0883
      9  CV        24.0470   18.2360  132.5610 C.3   1161  OPS1161     0.0774
     10  SW        24.9020   19.8440  132.4250 S.3   1161  OPS1161    -0.0816
@<TRIPOS>BOND
     1     3     4    1
     2     3     1    1
     3     4     5    1
     4     1     2    2
     5     5     6    1
     6     7     6    2
     7     6     8    1
     8     8     9    1
     9    10     9    1
