@<TRIPOS>MOLECULE
1vgo_RET_A_1.pdb
 20 20 0 0 0
SMALL
GASTEIGER

@<TRIPOS>ATOM
      1  C1        15.6820   11.9070   59.3690 C.3   260  RET260      0.0183
      2  C2        15.8780   10.8380   60.5450 C.3   260  RET260      0.0044
      3  C3        17.2390   10.3260   60.7190 C.3   260  RET260      0.0047
      4  C4        17.7420    9.6670   59.4400 C.3   260  RET260      0.0217
      5  C5        17.7020   10.5830   58.2240 C.2   260  RET260     -0.0479
      6  C6        16.7570   11.6710   58.1130 C.2   260  RET260     -0.0307
      7  C7        16.7780   12.5740   56.8420 C.2   260  RET260     -0.0052
      8  C8        15.9230   13.5800   56.6550 C.2   260  RET260     -0.0046
      9  C9        15.9890   14.4600   55.5050 C.2   260  RET260     -0.0219
     10  C10       15.0290   15.4250   55.4770 C.2   260  RET260     -0.0043
     11  C11       14.8810   16.4290   54.4710 C.2   260  RET260     -0.0007
     12  C12       13.9140   17.2950   54.6700 C.2   260  RET260     -0.0046
     13  C13       13.5790   18.3830   53.7500 C.2   260  RET260     -0.0261
     14  C14       12.5240   19.1500   54.1420 C.2   260  RET260     -0.0300
     15  C15       11.8890   20.1810   53.3830 C.3   260  RET260      0.0304
     16  C16       14.2180   11.7590   58.8950 C.3   260  RET260      0.0043
     17  C17       15.9050   13.2440   60.0970 C.3   260  RET260      0.0043
     18  C18       18.7180   10.2900   57.1230 C.3   260  RET260      0.0260
     19  C19       17.0570   14.3360   54.4080 C.3   260  RET260      0.0310
     20  C20       14.3490   18.6140   52.4400 C.3   260  RET260      0.0307
@<TRIPOS>BOND
     1    20    13    1
     2    15    14    1
     3    13    14    2
     4    13    12    1
     5    19     9    1
     6    11    12    2
     7    11    10    1
     8    10     9    2
     9     9     8    1
    10     8     7    2
    11     7     6    1
    12    18     5    1
    13     6     5    2
    14     6     1    1
    15     5     4    1
    16    16     1    1
    17     1    17    1
    18     1     2    1
    19     4     3    1
    20     2     3    1
