@<TRIPOS>MOLECULE
1vgq_CAO_A_1.pdb
 49 51 0 0 0
SMALL
GASTEIGER

@<TRIPOS>ATOM
      1  N1A      -46.8460   14.3840   31.8650 N.2   429  CAO429      0.0021
      2  C2A      -46.1480   13.3040   32.2780 C.3   429  CAO429      0.5254
      3  N3A      -45.0750   12.8290   31.6090 N.2   429  CAO429     -0.0055
      4  C4A      -44.6710   13.4470   30.4690 C.2   429  CAO429      0.3518
      5  C5A      -45.3590   14.5970   29.9640 C.2   429  CAO429      0.2526
      6  C6A      -46.5240   15.0690   30.7420 C.2   429  CAO429      0.4393
      7  N6A      -47.2180   16.1550   30.3180 N.pl3 429  CAO429      0.2180
      8  N7A      -44.7230   15.0060   28.8060 N.2   429  CAO429     -0.2095
      9  C8A      -43.6860   14.0950   28.6590 C.3   429  CAO429      0.3377
     10  N9A      -43.6600   13.1690   29.6560 N.pl3 429  CAO429     -0.1439
     11  C1B      -42.8110   11.9990   29.9900 C.3   429  CAO429      0.3185
     12  C2B      -42.7290   10.9160   28.9210 C.3   429  CAO429      0.2543
     13  O2B      -43.7290    9.9070   28.9930 O.3   429  CAO429     -0.2131
     14  C3B      -41.3180   10.3960   29.0420 C.3   429  CAO429      0.1928
     15  O3B      -41.5480    9.1440   29.7000 O.3   429  CAO429     -0.2673
     16  P3B      -40.4610    8.0710   30.2200 P.3   429  CAO429      0.5327
     17  O7A      -41.2380    6.7160   30.5090 O.3   429  CAO429     -0.1145
     18  O8A      -39.7610    8.5890   31.5540 O.3   429  CAO429     -0.1145
     19  O9A      -39.3270    7.8400   29.1190 O.2   429  CAO429     -0.2224
     20  C4B      -40.5340   11.3190   29.9720 C.3   429  CAO429      0.1795
     21  O4B      -41.4790   12.2880   30.4510 O.3   429  CAO429     -0.3136
     22  C5B      -39.2660   11.9310   29.3530 C.3   429  CAO429      0.1812
     23  O5B      -39.5130   12.4560   28.0440 O.3   429  CAO429     -0.3112
     24  P1A      -38.3920   12.4870   26.8730 P.3   429  CAO429      0.2189
     25  O1A      -39.1980   12.6780   25.5260 O.2   429  CAO429     -0.5170
     26  O2A      -37.4710   11.2020   26.8790 O.3   429  CAO429     -0.4371
     27  O3A      -37.5480   13.7900   27.2620 O.3   429  CAO429     -0.2703
     28  P2A      -35.9570   13.8830   27.1470 P.3   429  CAO429      0.2188
     29  O4A      -35.2050   12.6670   27.8470 O.3   429  CAO429     -0.4371
     30  O5A      -35.4570   15.3030   27.6660 O.2   429  CAO429     -0.5170
     31  O6A      -35.6770   13.7770   25.5630 O.3   429  CAO429     -0.3138
     32  CBP      -35.7290   14.3320   23.2240 C.3   429  CAO429      0.0645
     33  CCP      -35.8790   14.8550   24.6560 C.3   429  CAO429      0.1519
     34  CDP      -36.1640   15.4360   22.2640 C.3   429  CAO429      0.0056
     35  CEP      -34.2590   13.9620   23.0100 C.3   429  CAO429      0.0056
     36  CAP      -36.6550   13.1190   23.0690 C.3   429  CAO429      0.2312
     37  OAP      -37.9760   13.5400   23.4140 O.3   429  CAO429     -0.2131
     38  C9P      -36.6750   12.4490   21.7000 C.2   429  CAO429      0.2719
     39  O9P      -35.8240   11.6130   21.4040 O.2   429  CAO429     -0.2706
     40  N8P      -37.7040   12.7480   20.9060 N.am  429  CAO429     -0.2028
     41  C7P      -38.0250   12.0210   19.6930 C.3   429  CAO429      0.1248
     42  C6P      -37.3750   12.5980   18.4420 C.3   429  CAO429      0.1102
     43  C5P      -37.4810   14.1080   18.3970 C.2   429  CAO429      0.2432
     44  O5P      -38.4420   14.6640   17.8890 O.2   429  CAO429     -0.2733
     45  N4P      -36.4050   14.6970   18.9020 N.am  429  CAO429     -0.2043
     46  C3P      -36.0330   16.0800   18.7800 C.3   429  CAO429      0.1304
     47  C2P      -37.1400   17.0850   18.5020 C.3   429  CAO429      0.1285
     48  S1P      -36.3220   18.5800   18.1590 S.3   429  CAO429      0.1232
     49  O1P      -34.8100   18.3480   17.8760 O.2   429  CAO429     -0.2429
@<TRIPOS>BOND
     1    49    48    2
     2    44    43    2
     3    48    47    1
     4    43    42    1
     5    43    45   am
     6    42    41    1
     7    47    46    1
     8    46    45    1
     9    41    40    1
    10    40    38   am
    11    39    38    2
    12    38    36    1
    13    34    32    1
    14    35    32    1
    15    36    32    1
    16    36    37    1
    17    32    33    1
    18    33    31    1
    19    25    24    2
    20    31    28    1
    21    24    26    1
    22    24    27    1
    23    24    23    1
    24    28    27    1
    25    28    30    2
    26    28    29    1
    27    23    22    1
    28     9     8    1
    29     9    10    1
    30     8     5    2
    31    12    13    1
    32    12    14    1
    33    12    11    1
    34    14    15    1
    35    14    20    1
    36    19    16    2
    37    22    20    1
    38    10    11    1
    39    10     4    1
    40    15    16    1
    41     5     4    1
    42     5     6    1
    43    20    21    1
    44    11    21    1
    45    16    17    1
    46    16    18    1
    47     7     6    1
    48     4     3    2
    49     6     1    2
    50     3     2    1
    51     1     2    1
