@<TRIPOS>MOLECULE
1vgr_COA_A_1.pdb
 48 50 0 0 0
SMALL
GASTEIGER

@<TRIPOS>ATOM
      1  N1A      -46.7100   14.1580   32.2440 N.2   429  COA429      0.0021
      2  C2A      -46.0220   13.0880   32.7980 C.3   429  COA429      0.5254
      3  N3A      -44.9350   12.5320   32.1270 N.2   429  COA429     -0.0055
      4  C4A      -44.5290   13.0300   30.9200 C.2   429  COA429      0.3518
      5  C5A      -45.2130   14.1090   30.3510 C.2   429  COA429      0.2526
      6  C6A      -46.3060   14.6760   31.0150 C.2   429  COA429      0.4393
      7  N6A      -46.9080   15.7490   30.4960 N.pl3 429  COA429      0.2180
      8  N7A      -44.6170   14.3990   29.1670 N.2   429  COA429     -0.2095
      9  C8A      -43.5840   13.5430   28.9720 C.3   429  COA429      0.3377
     10  N9A      -43.5140   12.6820   30.0430 N.pl3 429  COA429     -0.1439
     11  C1B      -42.5090   11.6070   30.2400 C.3   429  COA429      0.3185
     12  C2B      -42.2710   10.7200   29.0170 C.3   429  COA429      0.2543
     13  O2B      -43.2760    9.7490   28.8070 O.3   429  COA429     -0.2131
     14  C3B      -40.9340   10.0920   29.3590 C.3   429  COA429      0.1928
     15  O3B      -41.1730    8.8990   30.0860 O.3   429  COA429     -0.2673
     16  P3B      -40.0850    7.7180   30.3100 P.3   429  COA429      0.5327
     17  O7A      -39.3460    7.4730   29.0380 O.2   429  COA429     -0.2224
     18  O8A      -40.8450    6.4320   30.7040 O.3   429  COA429     -0.1145
     19  O9A      -39.0970    8.1390   31.4260 O.3   429  COA429     -0.1145
     20  C4B      -40.2330   11.1420   30.2290 C.3   429  COA429      0.1795
     21  O4B      -41.2170   12.1280   30.5280 O.3   429  COA429     -0.3136
     22  C5B      -38.9890   11.7650   29.5870 C.3   429  COA429      0.1812
     23  O5B      -39.2410   12.1490   28.2470 O.3   429  COA429     -0.3112
     24  P1A      -38.0650   12.2080   27.1280 P.3   429  COA429      0.2189
     25  O1A      -38.6800   12.4250   25.7990 O.2   429  COA429     -0.5170
     26  O2A      -37.2010   10.9290   27.1400 O.3   429  COA429     -0.4371
     27  O3A      -37.1860   13.5080   27.5290 O.3   429  COA429     -0.2703
     28  P2A      -35.6070   13.6300   27.1820 P.3   429  COA429      0.2188
     29  O4A      -34.8440   12.5140   27.7980 O.3   429  COA429     -0.4371
     30  O5A      -35.0580   15.0160   27.5980 O.2   429  COA429     -0.5170
     31  O6A      -35.5190   13.4320   25.5850 O.3   429  COA429     -0.3138
     32  CBP      -35.4150   13.9120   23.2470 C.3   429  COA429      0.0645
     33  CCP      -35.5990   14.4900   24.6550 C.3   429  COA429      0.1519
     34  CDP      -35.6730   15.0440   22.2650 C.3   429  COA429      0.0056
     35  CEP      -33.9580   13.4350   23.1040 C.3   429  COA429      0.0056
     36  CAP      -36.4370   12.7790   23.0030 C.3   429  COA429      0.2312
     37  OAP      -37.7470   13.2340   23.3070 O.3   429  COA429     -0.2131
     38  C9P      -36.4390   12.2230   21.5940 C.2   429  COA429      0.2719
     39  O9P      -35.3530   11.4620   21.1040 O.2   429  COA429     -0.2706
     40  N8P      -37.5210   12.4750   20.8530 N.am  429  COA429     -0.2028
     41  C7P      -37.9320   11.6350   19.7420 C.3   429  COA429      0.1248
     42  C6P      -37.4340   12.1880   18.4140 C.3   429  COA429      0.1102
     43  C5P      -37.3120   13.6960   18.4470 C.2   429  COA429      0.2432
     44  O5P      -38.2620   14.4240   18.0970 O.2   429  COA429     -0.2733
     45  N4P      -36.1210   14.1280   18.8740 N.am  429  COA429     -0.2044
     46  C3P      -35.5740   15.4250   18.5520 C.3   429  COA429      0.1276
     47  C2P      -36.0860   16.5040   19.5050 C.3   429  COA429      0.0920
     48  S1P      -37.3370   17.5630   18.7700 S.3   429  COA429     -0.0802
@<TRIPOS>BOND
     1    44    43    2
     2    42    43    1
     3    42    41    1
     4    43    45   am
     5    46    45    1
     6    46    47    1
     7    48    47    1
     8    41    40    1
     9    40    38   am
    10    39    38    2
    11    38    36    1
    12    34    32    1
    13    36    32    1
    14    36    37    1
    15    35    32    1
    16    32    33    1
    17    33    31    1
    18    31    28    1
    19    25    24    2
    20    24    26    1
    21    24    27    1
    22    24    23    1
    23    28    27    1
    24    28    30    2
    25    28    29    1
    26    23    22    1
    27    13    12    1
    28     9     8    1
    29     9    10    1
    30    12    14    1
    31    12    11    1
    32    17    16    2
    33     8     5    2
    34    14    15    1
    35    14    20    1
    36    22    20    1
    37    10    11    1
    38    10     4    1
    39    15    16    1
    40    20    21    1
    41    11    21    1
    42    16    18    1
    43    16    19    1
    44     5     4    1
    45     5     6    1
    46     7     6    1
    47     4     3    2
    48     6     1    2
    49     3     2    1
    50     1     2    1
