@<TRIPOS>MOLECULE
1vh3_CMK_A_1.pdb
 36 38 0 0 0
SMALL
GASTEIGER

@<TRIPOS>ATOM
      1  N1C       45.2890   38.3180   18.1510 N.am  263  CMK263     -0.1778
      2  C2C       45.7470   39.2970   18.9840 C.1   263  CMK263      0.2756
      3  N3C       46.8250   40.0230   18.7500 N.2   263  CMK263     -0.3024
      4  C4C       47.5230   39.8280   17.6270 C.2   263  CMK263      0.2346
      5  C5C       47.1160   38.8620   16.7180 C.2   263  CMK263      0.0687
      6  C6C       45.9770   38.1320   17.0290 C.2   263  CMK263      0.0836
      7  O2C       45.1450   39.5430   20.0410 O.2   263  CMK263     -0.1925
      8  N4C       48.5860   40.6120   17.4470 N.pl3 263  CMK263     -0.0921
      9  C1'       44.0390   37.6260   18.5820 C.3   263  CMK263      0.2400
     10  C2'       43.0800   38.1450   17.6210 C.3   263  CMK263      0.2319
     11  O2'       42.2330   39.1040   18.1450 O.3   263  CMK263     -0.2157
     12  C3'       42.4170   36.9320   17.0490 C.3   263  CMK263      0.2158
     13  C4'       43.4180   35.8100   17.2870 C.3   263  CMK263      0.1799
     14  O4'       44.4840   36.3990   18.0700 O.3   263  CMK263     -0.3320
     15  O3'       41.2430   36.5900   17.7680 O.3   263  CMK263     -0.2175
     16  C5'       43.9650   35.5030   15.9040 C.3   263  CMK263      0.1813
     17  O5'       43.7240   34.1650   15.5410 O.3   263  CMK263     -0.3113
     18  PA        44.3570   33.8660   14.2570 P.3   263  CMK263      0.2162
     19  O1A       45.0180   35.1450   13.7060 O.3   263  CMK263     -0.4372
     20  O2A       43.1520   33.4300   13.4080 O.2   263  CMK263     -0.5171
     21  O6        45.5720   30.7430   14.8660 O.3   263  CMK263     -0.3228
     22  C2        46.0690   31.8840   14.1800 C.3   263  CMK263      0.2907
     23  O2        45.3110   32.7400   14.5020 O.3   263  CMK263     -0.2833
     24  C3        47.4700   32.2770   14.6390 C.3   263  CMK263      0.1039
     25  C4        48.3590   31.2980   15.3300 C.3   263  CMK263      0.1901
     26  O4        49.0640   31.8990   16.4010 O.3   263  CMK263     -0.2201
     27  C5        47.7420   30.0660   15.7450 C.3   263  CMK263      0.2118
     28  C6        46.5490   29.6440   14.8030 C.3   263  CMK263      0.1837
     29  C7        45.8700   28.3320   15.1850 C.3   263  CMK263      0.2143
     30  C1        46.0800   31.5880   12.7040 C.2   263  CMK263      0.4155
     31  O1X       44.9260   31.5010   12.1520 O.co2 263  CMK263     -0.2402
     32  O1Y       47.1750   31.5530   12.0770 O.co2 263  CMK263     -0.2402
     33  O5        47.2790   30.2090   17.0730 O.3   263  CMK263     -0.2177
     34  C8        44.4450   28.1350   14.7000 C.3   263  CMK263      0.2174
     35  O8        44.5160   27.7830   13.3070 O.3   263  CMK263     -0.2175
     36  O7        46.6720   27.2140   14.8420 O.3   263  CMK263     -0.2176
@<TRIPOS>BOND
     1    32    30   ar
     2    31    30   ar
     3    30    22    1
     4    35    34    1
     5    20    18    2
     6    19    18    1
     7    22    23    1
     8    22    24    1
     9    22    21    1
    10    18    23    1
    11    18    17    1
    12    24    25    1
    13    34    29    1
    14    28    21    1
    15    28    29    1
    16    28    27    1
    17    36    29    1
    18    25    27    1
    19    25    26    1
    20    17    16    1
    21    27    33    1
    22    16    13    1
    23     5     6    2
    24     5     4    1
    25     6     1    1
    26    12    13    1
    27    12    10    1
    28    12    15    1
    29    13    14    1
    30     8     4    1
    31    10    11    1
    32    10     9    1
    33     4     3    2
    34    14     9    1
    35     1     9    1
    36     1     2   am
    37     3     2    2
    38     2     7    2
