@<TRIPOS>MOLECULE
1vh8_POP_D_1.pdb
 10 8 0 0 0
SMALL
GASTEIGER

@<TRIPOS>ATOM
      1  P1        91.9510    4.9650  146.5280 P.3   169  POP169      0.3037
      2  P1        91.8140    4.8770  146.6650 P.3   169  POP169      0.4149
      3  O1        90.7320    5.8700  146.4480 O.3   169  POP169     -0.1481
      4  O2        91.6090    3.5810  146.9260 O.2   169  POP169     -0.2668
      5  O3        92.9810    5.5990  147.4840 O.3   169  POP169     -0.1676
      6  O         92.5870    4.9190  145.0240 O.3   169  POP169     -0.2226
      7  P2        93.8340    4.1820  144.4310 P.3   169  POP169      0.5373
      8  O4        94.1550    3.0900  145.3500 O.3   169  POP169     -0.1143
      9  O5        93.4530    3.7150  143.0740 O.2   169  POP169     -0.2221
     10  O6        94.9170    5.2350  144.4050 O.3   169  POP169     -0.1143
@<TRIPOS>BOND
     1     9     7    2
     2    10     7    1
     3     7     6    1
     4     7     8    1
     5     6     1    1
     6     3     2    1
     7     1     5    1
     8     2     4    2
