@<TRIPOS>MOLECULE
1vhb_HEM_A_1.pdb
 43 50 0 0 0
SMALL
GASTEIGER

@<TRIPOS>ATOM
      1 FE         43.0930    8.2080   59.6960 Fe    150  HEM150      0.0000
      2  CHA       46.0270    9.6920   58.7790 C.2   150  HEM150      0.0000
      3  CHB       41.4960   11.2180   59.5610 C.2   150  HEM150      0.0000
      4  CHC       40.1780    6.7840   60.8210 C.2   150  HEM150      0.0000
      5  CHD       44.8210    5.4720   60.8810 C.2   150  HEM150      0.0000
      6  NA        43.6760   10.1240   59.3260 N.ar  150  HEM150      0.0000
      7  C1A       44.9310   10.5150   58.9360 C.ar  150  HEM150      0.0000
      8  C2A       44.8710   11.9350   58.6930 C.ar  150  HEM150      0.0000
      9  C3A       43.6470   12.3840   58.9570 C.ar  150  HEM150      0.0000
     10  C4A       42.8520   11.2280   59.3140 C.ar  150  HEM150      0.0000
     11  CMA       43.0740   13.8090   58.7650 C.3   150  HEM150      0.0000
     12  CAA       46.1240   12.6870   58.2190 C.3   150  HEM150      0.0000
     13  CBA       46.1930   12.8940   56.6840 C.3   150  HEM150      0.0000
     14  CGA       47.3270   13.7490   56.1620 C.2   150  HEM150      0.0000
     15  O1A       47.3530   14.9780   56.4930 O.co2 150  HEM150      0.0000
     16  O2A       48.1160   13.1430   55.3880 O.co2 150  HEM150      0.0000
     17  NB        41.2780    8.8390   60.0710 N.2   150  HEM150      0.0000
     18  C1B       40.7270   10.1010   59.8180 C.2   150  HEM150      0.0000
     19  C2B       39.3040   10.1110   60.0520 C.2   150  HEM150      0.0000
     20  C3B       38.9530    8.8730   60.4180 C.2   150  HEM150      0.0000
     21  C4B       40.1620    8.1020   60.4360 C.2   150  HEM150      0.0000
     22  CMB       38.4040   11.3600   59.9180 C.3   150  HEM150      0.0000
     23  CAB       37.5730    8.3030   60.8190 C.2   150  HEM150      0.0000
     24  CBB       36.5210    8.6000   60.0570 C.2   150  HEM150      0.0000
     25  NC        42.6110    6.5380   60.7320 N.ar  150  HEM150      0.0000
     26  C1C       41.3490    6.0820   60.9930 C.ar  150  HEM150      0.0000
     27  C2C       41.4120    4.6990   61.4780 C.ar  150  HEM150      0.0000
     28  C3C       42.6830    4.3040   61.5290 C.ar  150  HEM150      0.0000
     29  C4C       43.4470    5.4500   61.0250 C.ar  150  HEM150      0.0000
     30  CMC       40.1330    3.9120   61.7890 C.3   150  HEM150      0.0000
     31  CAC       43.2430    2.9100   61.9560 C.2   150  HEM150      0.0000
     32  CBC       44.2320    2.8070   62.8500 C.2   150  HEM150      0.0000
     33  ND        44.9800    7.7030   59.7940 N.2   150  HEM150      0.0000
     34  C1D       45.5170    6.5070   60.2930 C.2   150  HEM150      0.0000
     35  C2D       46.9290    6.4380   60.0050 C.2   150  HEM150      0.0000
     36  C3D       47.2540    7.5800   59.4210 C.2   150  HEM150      0.0000
     37  C4D       46.0650    8.4010   59.2780 C.2   150  HEM150      0.0000
     38  CMD       47.8400    5.2100   60.2430 C.3   150  HEM150      0.0000
     39  CAD       48.6440    7.9870   58.8940 C.2   150  HEM150      0.0000
     40  CBD       48.9430    7.8530   57.3870 C.2   150  HEM150      0.0000
     41  CGD       50.3600    8.1180   56.9420 C.2   150  HEM150      0.0000
     42  O1D       50.7630    9.3150   57.0230 O.co2 150  HEM150      0.0000
     43  O2D       50.9900    7.1330   56.4570 O.co2 150  HEM150      0.0000
@<TRIPOS>BOND
     1    16    14   ar
     2    14    15   ar
     3    14    13    1
     4    43    41   ar
     5    13    12    1
     6    41    42   ar
     7    41    40    1
     8    40    39    2
     9    12     8    1
    10     8     7   ar
    11     8     9   ar
    12    11     9    1
    13     2     7    2
    14     2    37    1
    15    39    36    1
    16     7     6   ar
    17     9    10   ar
    18    37    36    1
    19    37    33    2
    20    10     6   ar
    21    10     3    2
    22     6     1    1
    23    36    35    2
    24     3    18    1
    25     1    33    1
    26     1    17    1
    27     1    25    1
    28    33    34    1
    29    18    19    1
    30    18    17    2
    31    22    19    1
    32    35    38    1
    33    35    34    1
    34    19    20    2
    35    24    23    2
    36    17    21    1
    37    34     5    2
    38    20    21    1
    39    20    23    1
    40    21     4    2
    41    25    26   ar
    42    25    29   ar
    43     4    26    1
    44     5    29    1
    45    26    27   ar
    46    29    28   ar
    47    27    28   ar
    48    27    30    1
    49    28    31    1
    50    31    32    2
