@<TRIPOS>MOLECULE
1vhd_NAP_A_1.pdb
 48 52 0 0 0
SMALL
GASTEIGER

@<TRIPOS>ATOM
      1  PA       -22.7290   11.2720   34.7860 P.3   372  NAP372      0.2189
      2  O1A      -22.8120   10.1120   35.6450 O.3   372  NAP372     -0.4371
      3  O2A      -23.7120   11.4920   33.6750 O.2   372  NAP372     -0.5170
      4  O5B      -22.7560   12.5860   35.7820 O.3   372  NAP372     -0.3112
      5  C5B      -21.5590   12.9630   36.4670 C.3   372  NAP372      0.1813
      6  C4B      -21.9170   14.1890   37.3150 C.3   372  NAP372      0.1820
      7  O4B      -21.4340   15.3390   36.5920 O.3   372  NAP372     -0.3136
      8  C3B      -23.3590   14.4520   37.6660 C.3   372  NAP372      0.2157
      9  O3B      -23.4560   14.8080   39.0660 O.3   372  NAP372     -0.2175
     10  C2B      -23.7930   15.6200   36.8220 C.3   372  NAP372      0.2314
     11  O2B      -24.7850   16.5130   37.3590 O.3   372  NAP372     -0.2630
     12  C1B      -22.4900   16.2720   36.5190 C.3   372  NAP372      0.3158
     13  N9A      -22.4260   16.9560   35.2010 N.pl3 372  NAP372     -0.1439
     14  C8A      -22.8260   16.4940   33.9300 C.3   372  NAP372      0.3377
     15  N7A      -22.5840   17.4070   33.0030 N.2   372  NAP372     -0.2095
     16  C5A      -22.0230   18.4770   33.6460 C.2   372  NAP372      0.2526
     17  C6A      -21.5400   19.7440   33.2340 C.2   372  NAP372      0.4393
     18  N6A      -21.5800   20.0980   31.9500 N.pl3 372  NAP372      0.2180
     19  N1A      -21.0310   20.5960   34.1600 N.2   372  NAP372      0.0021
     20  C2A      -20.9850   20.2360   35.4630 C.3   372  NAP372      0.5254
     21  N3A      -21.4090   19.0680   35.9550 N.2   372  NAP372     -0.0055
     22  C4A      -21.9240   18.2210   34.9830 C.2   372  NAP372      0.3518
     23  O3       -21.3130   11.3950   34.0850 O.3   372  NAP372     -0.2703
     24  PN       -20.5330   10.6980   32.8780 P.3   372  NAP372      0.2189
     25  O1N      -19.1680   10.4500   33.3690 O.3   372  NAP372     -0.4371
     26  O2N      -20.7660   11.5910   31.7130 O.2   372  NAP372     -0.5170
     27  O5D      -21.4790    9.4010   32.7590 O.3   372  NAP372     -0.3112
     28  C5D      -21.0010    8.0950   33.2510 C.3   372  NAP372      0.1813
     29  C4D      -22.1320    7.0470   33.0510 C.3   372  NAP372      0.1799
     30  O4D      -22.1470    6.7300   31.6700 O.3   372  NAP372     -0.3327
     31  C3D      -21.8240    5.7330   33.7800 C.3   372  NAP372      0.2158
     32  O3D      -23.0370    5.1750   34.3030 O.3   372  NAP372     -0.2175
     33  C2D      -21.1530    4.8820   32.7410 C.3   372  NAP372      0.2309
     34  O2D      -21.2440    3.5040   33.0680 O.3   372  NAP372     -0.2158
     35  C1D      -21.9780    5.3260   31.4670 C.3   372  NAP372      0.2263
     36  N1N      -21.2090    5.1510   30.2130 N.pl3 372  NAP372     -0.2787
     37  C2N      -21.9670    4.7200   29.1030 C.3   372  NAP372      0.1244
     38  C3N      -21.2570    4.5440   27.8580 C.2   372  NAP372      0.0544
     39  C7N      -21.9810    4.0990   26.6610 C.2   372  NAP372      0.2818
     40  O7N      -21.4700    3.3880   25.7750 O.2   372  NAP372     -0.2670
     41  N7N      -23.2660    4.4600   26.4730 N.am  372  NAP372     -0.0839
     42  C4N      -19.8820    4.8080   27.8300 C.2   372  NAP372      0.0033
     43  C5N      -19.1680    5.2280   28.9300 C.2   372  NAP372      0.0157
     44  C6N      -19.8280    5.4010   30.1210 C.2   372  NAP372      0.0633
     45  P2B      -26.3190   16.3010   37.2920 P.3   372  NAP372      0.5328
     46  O1X      -26.8450   17.3990   38.1210 O.3   372  NAP372     -0.1145
     47  O2X      -26.6340   14.9490   37.8320 O.3   372  NAP372     -0.1145
     48  O3X      -26.7740   16.4280   35.8410 O.2   372  NAP372     -0.2224
@<TRIPOS>BOND
     1    40    39    2
     2    41    39   am
     3    39    38    1
     4    42    38    2
     5    42    43    1
     6    38    37    1
     7    43    44    2
     8    37    36    1
     9    44    36    1
    10    36    35    1
    11    35    30    1
    12    35    33    1
    13    30    29    1
    14    26    24    2
    15    18    17    1
    16    33    34    1
    17    33    31    1
    18    27    24    1
    19    27    28    1
    20    24    25    1
    21    24    23    1
    22    15    16    2
    23    15    14    1
    24    29    28    1
    25    29    31    1
    26    17    16    1
    27    17    19    2
    28    16    22    1
    29     3     1    2
    30    31    32    1
    31    14    13    1
    32    23     1    1
    33    19    20    1
    34     1     2    1
    35     1     4    1
    36    22    13    1
    37    22    21    2
    38    13    12    1
    39    20    21    1
    40     4     5    1
    41    48    45    2
    42     5     6    1
    43    12     7    1
    44    12    10    1
    45     7     6    1
    46    10    11    1
    47    10     8    1
    48    45    11    1
    49    45    47    1
    50    45    46    1
    51     6     8    1
    52     8     9    1
