@<TRIPOS>MOLECULE
1vhl_ADP_A_1.pdb
 27 29 0 0 0
SMALL
GASTEIGER

@<TRIPOS>ATOM
      1  PB        44.8390   25.3400   64.5800 P.3   217  ADP217      0.5373
      2  O1B       46.0250   25.3830   63.6380 O.2   217  ADP217     -0.2221
      3  O2B       45.1310   24.7360   66.0410 O.3   217  ADP217     -0.1143
      4  O3B       43.6890   24.6540   63.9420 O.3   217  ADP217     -0.1143
      5  PA        44.0540   27.7070   66.0140 P.3   217  ADP217      0.2231
      6  O1A       43.2370   27.0080   66.9570 O.3   217  ADP217     -0.4370
      7  O2A       45.3220   28.1260   66.7480 O.2   217  ADP217     -0.5169
      8  O3A       44.3760   26.8060   64.7820 O.3   217  ADP217     -0.2261
      9  O5'       43.4520   28.9940   65.3080 O.3   217  ADP217     -0.3111
     10  C5'       44.2830   29.6800   64.3190 C.3   217  ADP217      0.1813
     11  C4'       44.2420   31.1470   64.7650 C.3   217  ADP217      0.1821
     12  O4'       42.8760   31.5940   64.6740 O.3   217  ADP217     -0.3135
     13  C3'       44.6510   31.3080   66.2280 C.3   217  ADP217      0.2184
     14  O3'       45.4710   32.4630   66.4250 O.3   217  ADP217     -0.2174
     15  C2'       43.3530   31.5330   66.9800 C.3   217  ADP217      0.2570
     16  O2'       43.5510   32.3670   68.1420 O.3   217  ADP217     -0.2130
     17  C1'       42.4890   32.1520   65.9270 C.3   217  ADP217      0.3186
     18  N9        41.0260   31.9870   66.1610 N.pl3 217  ADP217     -0.1439
     19  C8        40.3700   30.8820   66.5520 C.3   217  ADP217      0.3377
     20  N7        39.0730   31.0290   66.2250 N.2   217  ADP217     -0.2095
     21  C5        38.9090   32.1890   65.6310 C.2   217  ADP217      0.2526
     22  C6        37.8560   32.8890   65.0760 C.2   217  ADP217      0.4393
     23  N6        36.6230   32.4000   65.0500 N.pl3 217  ADP217      0.2180
     24  N1        38.0800   34.1150   64.5310 N.2   217  ADP217      0.0021
     25  C2        39.2880   34.6690   64.5160 C.3   217  ADP217      0.5254
     26  N3        40.3200   34.0200   65.0400 N.2   217  ADP217     -0.0055
     27  C4        40.1560   32.8040   65.5910 C.2   217  ADP217      0.3518
@<TRIPOS>BOND
     1     2     1    2
     2     4     1    1
     3    10    11    1
     4    10     9    1
     5    25    24    1
     6    25    26    1
     7    24    22    2
     8     1     8    1
     9     1     3    1
    10    12    11    1
    11    12    17    1
    12    11    13    1
    13     8     5    1
    14    26    27    2
    15    23    22    1
    16    22    21    1
    17     9     5    1
    18    27    21    1
    19    27    18    1
    20    21    20    2
    21    17    18    1
    22    17    15    1
    23     5     7    2
    24     5     6    1
    25    18    19    1
    26    20    19    1
    27    13    14    1
    28    13    15    1
    29    15    16    1
