@<TRIPOS>MOLECULE
1vhn_FMN_A_1.pdb
 31 33 0 0 0
SMALL
GASTEIGER

@<TRIPOS>ATOM
      1  N1        -0.2130   18.8240    7.9170 N.2   322  FMN322     -0.2890
      2  C2        -0.0720   18.8480    6.5760 C.1   322  FMN322      0.3669
      3  O2         0.2240   19.8480    5.9770 O.2   322  FMN322     -0.1744
      4  N3        -0.2700   17.6280    5.8600 N.2   322  FMN322     -0.2300
      5  C4        -0.5730   16.4320    6.4070 C.1   322  FMN322      0.2513
      6  O4        -0.7670   15.4080    5.7090 O.2   322  FMN322     -0.2057
      7  C4A       -0.6650   16.3820    7.8520 C.2   322  FMN322      0.2700
      8  N5        -0.8270   15.2530    8.4950 N.2   322  FMN322     -0.3878
      9  C5A       -1.0770   15.3340    9.8460 C.2   322  FMN322      0.1320
     10  C6        -1.5220   14.1550   10.5310 C.2   322  FMN322      0.0250
     11  C7        -1.9310   14.1930   11.8280 C.2   322  FMN322     -0.0238
     12  C7M       -2.4140   12.9530   12.5880 C.3   322  FMN322      0.0308
     13  C8        -1.9740   15.4380   12.5380 C.2   322  FMN322     -0.0280
     14  C8M       -2.3850   15.4740   14.0100 C.3   322  FMN322      0.0304
     15  C9        -1.5190   16.5940   11.9450 C.2   322  FMN322     -0.0041
     16  C9A       -1.0900   16.5590   10.5980 C.3   322  FMN322      0.1497
     17  N10       -0.8450   17.7210    9.8670 N.pl3 322  FMN322     -0.2691
     18  C10       -0.5490   17.6800    8.5320 C.2   322  FMN322      0.2416
     19  C1'       -0.7090   19.0350   10.5450 C.3   322  FMN322      0.1294
     20  C2'       -2.1030   19.6420   10.7340 C.3   322  FMN322      0.2044
     21  O2'       -2.6070   19.9970    9.4360 O.3   322  FMN322     -0.2185
     22  C3'       -2.0920   20.9050   11.6090 C.3   322  FMN322      0.2164
     23  O3'       -1.3700   22.0040   10.9680 O.3   322  FMN322     -0.2175
     24  C4'       -1.4490   20.6900   12.9530 C.3   322  FMN322      0.2147
     25  O4'       -2.0580   19.5410   13.5540 O.3   322  FMN322     -0.2176
     26  C5'       -1.6260   21.8630   13.8960 C.3   322  FMN322      0.1892
     27  O5'       -3.0290   22.1600   14.1640 O.3   322  FMN322     -0.2674
     28  P         -3.6660   21.7400   15.5750 P.3   322  FMN322      0.5327
     29  O1P       -2.6480   22.0210   16.6530 O.3   322  FMN322     -0.1145
     30  O2P       -4.0340   20.2780   15.5390 O.2   322  FMN322     -0.2224
     31  O3P       -4.8470   22.7140   15.6120 O.3   322  FMN322     -0.1145
@<TRIPOS>BOND
     1     6     5    2
     2     4     5    2
     3     4     2    2
     4     3     2    2
     5     5     7    1
     6     2     1    2
     7     7     8    2
     8     7    18    1
     9     1    18    2
    10     8     9    2
    11    18    17    1
    12    21    20    1
    13     9    10    1
    14     9    16    1
    15    17    19    1
    16    17    16    1
    17    10    11    2
    18    19    20    1
    19    16    15    1
    20    20    22    1
    21    23    22    1
    22    22    24    1
    23    11    13    1
    24    11    12    1
    25    15    13    2
    26    13    14    1
    27    24    25    1
    28    24    26    1
    29    26    27    1
    30    27    28    1
    31    30    28    2
    32    28    31    1
    33    28    29    1
