@<TRIPOS>MOLECULE
1vht_BA3_A_1.pdb
 49 54 0 0 0
SMALL
GASTEIGER

@<TRIPOS>ATOM
      1  N9A       41.7500   31.9090   65.9440 N.pl3 218  BA3218     -0.1439
      2  C8A       41.0640   30.7870   66.3880 C.3   218  BA3218      0.3377
      3  N7A       39.7550   30.8970   66.3710 N.2   218  BA3218     -0.2095
      4  C5A       39.5380   32.1540   65.8430 C.2   218  BA3218      0.2526
      5  C6A       38.3490   32.7790   65.5800 C.2   218  BA3218      0.4393
      6  N6A       37.2590   32.3000   65.7690 N.pl3 218  BA3218      0.2180
      7  N1A       38.4710   34.0740   65.0540 N.2   218  BA3218      0.0021
      8  C2A       39.6830   34.6260   64.8080 C.3   218  BA3218      0.5254
      9  N3A       40.8350   34.0360   65.0510 N.2   218  BA3218     -0.0055
     10  C4A       40.7140   32.7870   65.5620 C.2   218  BA3218      0.3518
     11  O5B       44.1340   28.7640   66.1830 O.3   218  BA3218     -0.3112
     12  C5B       45.0740   29.2620   65.2210 C.3   218  BA3218      0.1813
     13  C4B       44.9750   30.7040   65.0940 C.3   218  BA3218      0.1821
     14  O4B       43.7030   31.1550   64.7940 O.3   218  BA3218     -0.3135
     15  C3B       45.4260   31.3260   66.3570 C.3   218  BA3218      0.2184
     16  O3B       46.1840   32.5210   66.0450 O.3   218  BA3218     -0.2174
     17  C2B       44.2200   31.6300   67.0340 C.3   218  BA3218      0.2570
     18  O2B       44.3360   32.7330   67.9230 O.3   218  BA3218     -0.2130
     19  C1B       43.2540   32.0300   65.8240 C.3   218  BA3218      0.3186
     20  PE        44.4580   27.4120   66.9080 P.3   218  BA3218      0.2189
     21  O1E       45.8280   27.3840   67.4110 O.2   218  BA3218     -0.5170
     22  O2E       43.3010   27.1320   67.8110 O.3   218  BA3218     -0.4371
     23  O3E       44.3320   26.4590   65.6830 O.3   218  BA3218     -0.2701
     24  PF        44.8100   25.0270   65.4330 P.3   218  BA3218      0.2237
     25  O1F       43.9610   24.5600   64.3490 O.2   218  BA3218     -0.5168
     26  O2F       44.8600   24.3080   66.7340 O.3   218  BA3218     -0.4369
     27  O3F       46.3230   25.1600   64.9810 O.3   218  BA3218     -0.2701
     28  PG        47.1480   25.0240   63.6780 P.3   218  BA3218      0.2189
     29  O1G       46.8600   26.3230   62.8620 O.2   218  BA3218     -0.5170
     30  O2G       46.9600   23.7700   62.8990 O.3   218  BA3218     -0.4371
     31  O5D       48.6800   25.1890   64.1280 O.3   218  BA3218     -0.3112
     32  C5D       49.0900   26.4370   64.8300 C.3   218  BA3218      0.1813
     33  C4D       50.5970   26.8150   64.3390 C.3   218  BA3218      0.1821
     34  O4D       51.3560   25.6000   64.2080 O.3   218  BA3218     -0.3135
     35  C3D       50.5170   27.3230   62.8880 C.3   218  BA3218      0.2184
     36  O3D       50.2220   28.7230   62.8500 O.3   218  BA3218     -0.2174
     37  C2D       51.8950   27.0840   62.4300 C.3   218  BA3218      0.2570
     38  O2D       52.6920   28.0210   63.1660 O.3   218  BA3218     -0.2130
     39  C1D       52.1420   25.6410   63.0200 C.3   218  BA3218      0.3186
     40  N9G       51.8500   24.4680   62.1190 N.pl3 218  BA3218     -0.1439
     41  C8G       50.8740   23.5240   62.2750 C.3   218  BA3218      0.3377
     42  N7G       50.8120   22.5770   61.3950 N.2   218  BA3218     -0.2095
     43  C5G       51.8650   22.9010   60.5500 C.2   218  BA3218      0.2526
     44  C6G       52.3200   22.2220   59.3720 C.2   218  BA3218      0.4393
     45  N6G       51.8200   21.1950   58.8880 N.pl3 218  BA3218      0.2180
     46  N1G       53.4200   22.8690   58.7930 N.2   218  BA3218      0.0021
     47  C2G       54.0260   24.0250   59.2850 C.3   218  BA3218      0.5254
     48  N3G       53.5840   24.6500   60.4010 N.2   218  BA3218     -0.0055
     49  C4G       52.5170   24.0430   60.9750 C.2   218  BA3218      0.3518
@<TRIPOS>BOND
     1    46    47    1
     2    46    44    2
     3    45    44    1
     4    47    48    1
     5    44    43    1
     6    48    49    2
     7    43    49    1
     8    43    42    2
     9    49    40    1
    10    42    41    1
    11    40    41    1
    12    40    39    1
    13    37    35    1
    14    37    39    1
    15    37    38    1
    16    36    35    1
    17    29    28    2
    18    35    33    1
    19    30    28    1
    20    39    34    1
    21    28    31    1
    22    28    27    1
    23    31    32    1
    24    34    33    1
    25    33    32    1
    26    25    24    2
    27    14    13    1
    28    14    19    1
    29     8     9    1
    30     8     7    1
    31    27    24    1
    32     9    10    2
    33     7     5    2
    34    13    12    1
    35    13    15    1
    36    12    11    1
    37    24    23    1
    38    24    26    1
    39    10     4    1
    40    10     1    1
    41     5     6    1
    42     5     4    1
    43    23    20    1
    44    19     1    1
    45    19    17    1
    46     4     3    2
    47     1     2    1
    48    16    15    1
    49    11    20    1
    50    15    17    1
    51     3     2    1
    52    20    21    2
    53    20    22    1
    54    17    18    1
