@<TRIPOS>MOLECULE
1vhw_ADN_A_1.pdb
 19 21 0 0 0
SMALL
GASTEIGER

@<TRIPOS>ATOM
      1  O5'       -2.0340  -20.6910   88.7270 O.3   252  ADN252     -0.2176
      2  C5'       -3.0470  -19.7260   88.3640 C.3   252  ADN252      0.2143
      3  C4'       -4.1130  -19.6740   89.4530 C.3   252  ADN252      0.1851
      4  O4'       -3.5480  -19.4330   90.7430 O.3   252  ADN252     -0.3134
      5  C3'       -5.1630  -18.5930   89.2190 C.3   252  ADN252      0.2186
      6  O3'       -6.4710  -19.2090   89.3260 O.3   252  ADN252     -0.2174
      7  C2'       -4.8410  -17.5480   90.3110 C.3   252  ADN252      0.2570
      8  O2'       -5.9300  -17.5000   91.2770 O.3   252  ADN252     -0.2130
      9  C1'       -3.6100  -18.0870   91.0510 C.3   252  ADN252      0.3186
     10  N9        -2.3750  -17.4080   90.7760 N.pl3 252  ADN252     -0.1439
     11  C8        -1.2530  -17.4830   91.5660 C.3   252  ADN252      0.3377
     12  N7        -0.2080  -16.8860   91.1170 N.2   252  ADN252     -0.2095
     13  C5        -0.6100  -16.3920   89.9700 C.2   252  ADN252      0.2526
     14  C6         0.1020  -15.6530   89.0590 C.2   252  ADN252      0.4393
     15  N6         1.3920  -15.3180   89.1940 N.pl3 252  ADN252      0.2180
     16  N1        -0.5360  -15.2550   87.9510 N.2   252  ADN252      0.0021
     17  C2        -1.8690  -15.6000   87.7840 C.3   252  ADN252      0.5254
     18  N3        -2.6130  -16.2870   88.6000 N.2   252  ADN252     -0.0055
     19  C4        -1.9420  -16.6660   89.6980 C.2   252  ADN252      0.3518
@<TRIPOS>BOND
     1    17    16    1
     2    17    18    1
     3    16    14    2
     4     2     1    1
     5     2     3    1
     6    18    19    2
     7    14    15    1
     8    14    13    1
     9     5     6    1
    10     5     3    1
    11     5     7    1
    12     3     4    1
    13    19    13    1
    14    19    10    1
    15    13    12    2
    16     7     9    1
    17     7     8    1
    18     4     9    1
    19    10     9    1
    20    10    11    1
    21    12    11    1
