@<TRIPOS>MOLECULE
1vhz_APR_A_1.pdb
 18 20 0 0 0
SMALL
GASTEIGER

@<TRIPOS>ATOM
      1  N1        44.1060   15.1360  150.6220 N.2   197  APR197      0.0021
      2  C2        44.5380   16.4190  150.2360 C.3   197  APR197      0.5254
      3  N3        43.9980   17.2100  149.3070 N.2   197  APR197     -0.0055
      4  C4        42.8710   16.6370  148.6750 C.2   197  APR197      0.3518
      5  C5        42.3040   15.3730  148.9370 C.2   197  APR197      0.2526
      6  C6        42.9740   14.5740  149.9850 C.2   197  APR197      0.4393
      7  N6        42.5610   13.3570  150.3460 N.pl3 197  APR197      0.2180
      8  N7        41.2060   15.1560  148.1210 N.2   197  APR197     -0.2095
      9  C8        41.1120   16.2690  147.3820 C.3   197  APR197      0.3377
     10  N9        42.0880   17.1820  147.6800 N.pl3 197  APR197     -0.1439
     11  C1'       42.3850   18.6580  147.0660 C.3   197  APR197      0.3185
     12  C2'       42.6880   18.5080  145.5480 C.3   197  APR197      0.2569
     13  O2'       43.6430   19.4840  145.1800 O.3   197  APR197     -0.2130
     14  C3'       41.3300   18.8080  144.8130 C.3   197  APR197      0.2159
     15  O3'       41.4670   19.8820  143.8940 O.3   197  APR197     -0.2175
     16  O4'       41.1900   19.3800  147.0940 O.3   197  APR197     -0.3162
     17  C4'       40.3510   19.1740  145.8530 C.3   197  APR197      0.1524
     18  C5'       39.7490   20.4630  145.4530 C.3   197  APR197      0.0350
@<TRIPOS>BOND
     1    15    14    1
     2    14    12    1
     3    14    17    1
     4    13    12    1
     5    18    17    1
     6    12    11    1
     7    17    16    1
     8    11    16    1
     9    11    10    1
    10     9    10    1
    11     9     8    1
    12    10     4    1
    13     8     5    2
    14     4     5    1
    15     4     3    2
    16     5     6    1
    17     3     2    1
    18     6     7    1
    19     6     1    2
    20     2     1    1
