@<TRIPOS>MOLECULE
1vi2_NAD_A_1.pdb
 44 48 0 0 0
SMALL
GASTEIGER

@<TRIPOS>ATOM
      1  PA        31.0050   84.9780    7.7760 P.3   300  NAD300      0.2189
      2  O1A       32.4350   84.4540    7.7390 O.3   300  NAD300     -0.4371
      3  O2A       30.2040   84.3390    6.7330 O.2   300  NAD300     -0.5170
      4  O5B       31.0700   86.5490    7.4830 O.3   300  NAD300     -0.3112
      5  C5B       31.6270   87.4550    8.5060 C.3   300  NAD300      0.1813
      6  C4B       31.2230   88.9020    8.1990 C.3   300  NAD300      0.1821
      7  O4B       31.9530   89.7220    9.1710 O.3   300  NAD300     -0.3135
      8  C3B       31.5690   89.4430    6.8410 C.3   300  NAD300      0.2184
      9  O3B       30.5520   90.2260    6.1960 O.3   300  NAD300     -0.2174
     10  C2B       32.7880   90.3550    7.0810 C.3   300  NAD300      0.2570
     11  O2B       32.8840   91.3210    6.0560 O.3   300  NAD300     -0.2130
     12  C1B       32.5270   90.8480    8.4860 C.3   300  NAD300      0.3186
     13  N9A       33.7420   91.1690    9.2560 N.pl3 300  NAD300     -0.1439
     14  C8A       34.6140   90.3100    9.8450 C.3   300  NAD300      0.3377
     15  N7A       35.6030   90.9350   10.4670 N.2   300  NAD300     -0.2095
     16  C5A       35.3500   92.2710   10.2400 C.2   300  NAD300      0.2526
     17  C6A       36.0560   93.4240   10.6480 C.2   300  NAD300      0.4393
     18  N6A       37.1720   93.3200   11.3670 N.pl3 300  NAD300      0.2180
     19  N1A       35.5450   94.6250   10.2690 N.2   300  NAD300      0.0021
     20  C2A       34.3850   94.6280    9.5160 C.3   300  NAD300      0.5254
     21  N3A       33.6630   93.6160    9.0820 N.2   300  NAD300     -0.0055
     22  C4A       34.2100   92.4430    9.5010 C.2   300  NAD300      0.3518
     23  O3        30.4730   84.8450    9.2540 O.3   300  NAD300     -0.2703
     24  PN        29.0590   84.3400    9.8600 P.3   300  NAD300      0.2189
     25  O1N       28.8740   82.8820    9.6880 O.3   300  NAD300     -0.4371
     26  O2N       28.0130   85.0900    9.1310 O.2   300  NAD300     -0.5170
     27  O5D       29.2740   84.6230   11.4140 O.3   300  NAD300     -0.3112
     28  C5D       29.1760   85.9590   11.9240 C.3   300  NAD300      0.1813
     29  C4D       29.1520   85.9640   13.4360 C.3   300  NAD300      0.1799
     30  O4D       27.8070   85.4990   13.8430 O.3   300  NAD300     -0.3327
     31  C3D       30.1400   85.0740   14.1420 C.3   300  NAD300      0.2158
     32  O3D       30.5060   85.6330   15.4100 O.3   300  NAD300     -0.2175
     33  C2D       29.2900   83.7740   14.4130 C.3   300  NAD300      0.2309
     34  O2D       29.7790   83.2160   15.6520 O.3   300  NAD300     -0.2158
     35  C1D       27.9190   84.3930   14.6800 C.3   300  NAD300      0.2263
     36  N1N       26.7850   83.5090   14.5190 N.pl3 300  NAD300     -0.2787
     37  C2N       25.9430   83.3790   15.5860 C.3   300  NAD300      0.1244
     38  C3N       24.8270   82.5930   15.4780 C.2   300  NAD300      0.0544
     39  C7N       23.7690   82.4320   16.6060 C.2   300  NAD300      0.2818
     40  O7N       22.8710   81.6380   16.4520 O.2   300  NAD300     -0.2670
     41  N7N       23.8480   83.3240   17.6200 N.am  300  NAD300     -0.0839
     42  C4N       24.4640   81.8910   14.2830 C.2   300  NAD300      0.0033
     43  C5N       25.3840   82.1300   13.2390 C.2   300  NAD300      0.0157
     44  C6N       26.5490   82.8420   13.2780 C.2   300  NAD300      0.0633
@<TRIPOS>BOND
     1    11    10    1
     2     9     8    1
     3     3     1    2
     4     8    10    1
     5     8     6    1
     6    10    12    1
     7     4     1    1
     8     4     5    1
     9     2     1    1
    10     1    23    1
    11     6     5    1
    12     6     7    1
    13    12     7    1
    14    12    13    1
    15    21    22    2
    16    21    20    1
    17    26    24    2
    18    23    24    1
    19    13    22    1
    20    13    14    1
    21    22    16    1
    22    20    19    1
    23    25    24    1
    24    14    15    1
    25    24    27    1
    26    16    15    2
    27    16    17    1
    28    19    17    2
    29    17    18    1
    30    27    28    1
    31    28    29    1
    32    43    44    2
    33    43    42    1
    34    44    36    1
    35    29    30    1
    36    29    31    1
    37    30    35    1
    38    31    33    1
    39    31    32    1
    40    42    38    2
    41    33    35    1
    42    33    34    1
    43    36    35    1
    44    36    37    1
    45    38    37    1
    46    38    39    1
    47    40    39    2
    48    39    41   am
