@<TRIPOS>MOLECULE
1vid_DNC_A_1.pdb
 14 14 0 0 0
SMALL
GASTEIGER

@<TRIPOS>ATOM
      1  C1       -25.0370   61.8400   50.4500 C.ar  302  DNC302      0.2376
      2  O1       -25.1650   63.1630   50.3020 O.3   302  DNC302     -0.2830
      3  C2       -23.9370   61.1190   49.8560 C.ar  302  DNC302      0.2565
      4  O2       -23.0120   61.8390   49.1860 O.3   302  DNC302     -0.2813
      5  C3       -23.8600   59.6760   50.0210 C.ar  302  DNC302      0.1864
      6  N1       -22.7910   58.7990   49.4300 N.pl3 302  DNC302      0.0610
      7  O3       -21.8670   59.2100   48.7460 O.2   302  DNC302     -0.1260
      8  O4       -22.8460   57.5860   49.6470 O.2   302  DNC302     -0.1260
      9  C4       -24.8960   59.0440   50.7760 C.ar  302  DNC302      0.0517
     10  C5       -25.9710   59.7910   51.3530 C.ar  302  DNC302      0.1479
     11  N2       -27.0120   59.1030   52.1100 N.pl3 302  DNC302      0.0578
     12  O5       -26.9440   57.9230   52.2630 O.2   302  DNC302     -0.1261
     13  O6       -27.9120   59.7170   52.5960 O.2   302  DNC302     -0.1261
     14  C6       -26.0440   61.1880   51.1960 C.ar  302  DNC302      0.0695
@<TRIPOS>BOND
     1     7     6    2
     2     4     3    1
     3     6     8    2
     4     6     5    1
     5     3     5   ar
     6     3     1   ar
     7     5     9   ar
     8     2     1    1
     9     1    14   ar
    10     9    10   ar
    11    14    10   ar
    12    10    11    1
    13    11    12    2
    14    11    13    2
