@<TRIPOS>MOLECULE
1vid_SAM_A_1.pdb
 27 29 0 0 0
SMALL
GASTEIGER

@<TRIPOS>ATOM
      1  N        -21.5480   65.5460   44.0340 N.3   301  SAM301     -0.1159
      2  CA       -22.5850   64.8340   43.4650 C.3   301  SAM301      0.2168
      3  C        -23.7690   65.7160   43.3900 C.2   301  SAM301      0.3860
      4  O        -24.0930   66.4840   44.3130 O.co2 301  SAM301     -0.2437
      5  OXT      -24.4140   65.6890   42.3660 O.co2 301  SAM301     -0.2437
      6  CB       -22.5970   63.6290   44.2540 C.2   301  SAM301      0.0100
      7  CG       -21.9990   62.3110   44.0540 C.2   301  SAM301      0.0231
      8  SD       -22.4940   60.8250   44.9650 S.3   301  SAM301     -0.1303
      9  CE       -22.6240   61.3280   46.6350 C.3   301  SAM301      0.0682
     10  C5'      -20.7990   60.3700   44.5630 C.2   301  SAM301      0.0609
     11  C4'      -20.0980   59.4610   43.6030 C.2   301  SAM301      0.1590
     12  O4'      -18.7770   59.2110   43.6520 O.2   301  SAM301     -0.4406
     13  C3'      -20.9340   58.4240   42.8570 C.3   301  SAM301      0.2466
     14  O3'      -21.3930   58.8160   41.6040 O.3   301  SAM301     -0.2118
     15  C2'      -19.8510   57.2250   42.9350 C.3   301  SAM301      0.2756
     16  O2'      -19.7080   56.3350   41.8470 O.3   301  SAM301     -0.2112
     17  C1'      -18.5610   57.9950   43.1520 C.3   301  SAM301      0.3698
     18  N9       -17.2690   57.9060   43.7850 N.pl3 301  SAM301     -0.1327
     19  C8       -17.0070   57.1030   44.8160 C.3   301  SAM301      0.3386
     20  N7       -15.7850   56.7390   45.1140 N.2   301  SAM301     -0.2095
     21  C5       -15.1700   57.3240   44.1170 C.2   301  SAM301      0.2526
     22  C6       -13.7540   57.4650   43.9040 C.2   301  SAM301      0.4393
     23  N6       -12.8230   56.8630   44.6640 N.pl3 301  SAM301      0.2180
     24  N1       -13.3020   58.2180   42.9040 N.2   301  SAM301      0.0021
     25  C2       -14.2590   58.7410   42.0970 C.3   301  SAM301      0.5254
     26  N3       -15.5950   58.6350   42.1340 N.2   301  SAM301     -0.0054
     27  C4       -16.0680   58.0160   43.2400 C.2   301  SAM301      0.3527
@<TRIPOS>BOND
     1    14    13    1
     2    16    15    1
     3    25    26    1
     4    25    24    1
     5    26    27    2
     6     5     3   ar
     7    13    15    1
     8    13    11    1
     9    24    22    2
    10    15    17    1
    11    17    12    1
    12    17    18    1
    13    27    18    1
    14    27    21    1
    15     3     2    1
    16     3     4   ar
    17     2     1    1
    18     2     6    1
    19    11    12    1
    20    11    10    2
    21    18    19    1
    22    22    21    1
    23    22    23    1
    24     7     6    2
    25     7     8    1
    26    21    20    2
    27    10     8    1
    28    19    20    1
    29     8     9    1
