@<TRIPOS>MOLECULE
1vif_FOL_A_1.pdb
 13 14 0 0 0
SMALL
GASTEIGER

@<TRIPOS>ATOM
      1  N1        36.9080   34.5050   25.4780 N.2     1  FOL1       -0.2672
      2  C2        37.6810   33.6470   26.2830 C.1     1  FOL1        0.2609
      3  NA2       38.5900   32.8370   25.7750 N.pl3   1  FOL1       -0.0220
      4  N3        37.5280   33.6500   27.7400 N.2     1  FOL1       -0.2466
      5  C4        36.6220   34.4050   28.3630 C.1     1  FOL1        0.2569
      6  O4        36.5870   34.2930   29.6810 O.2     1  FOL1       -0.2052
      7  C4A       35.7200   35.3380   27.4020 C.2     1  FOL1        0.2988
      8  N5        34.7310   36.1900   27.9090 N.2     1  FOL1       -0.3856
      9  C6        34.0400   36.9960   27.2200 C.2     1  FOL1        0.1143
     10  C7        34.2930   36.9060   25.8310 C.3     1  FOL1        0.1913
     11  N8        35.1800   36.1400   25.2310 N.2     1  FOL1       -0.1993
     12  C8A       35.9090   35.3400   26.0890 C.1     1  FOL1        0.1401
     13  C9        33.0090   37.8050   27.9730 C.3     1  FOL1        0.0637
@<TRIPOS>BOND
     1    11    10    1
     2    11    12    2
     3     1    12    2
     4     1     2    2
     5     3     2    1
     6    10     9    1
     7    12     7    1
     8     2     4    2
     9     9     8    2
    10     9    13    1
    11     7     8    2
    12     7     5    1
    13     4     5    2
    14     5     6    2
