@<TRIPOS>MOLECULE
1vj3_TAB_A_1.pdb
 33 35 0 0 0
SMALL
GASTEIGER

@<TRIPOS>ATOM
      1  C1'       15.0450    6.6160   13.1760 C.ar  300  TAB300      0.0969
      2  C2'       15.7380    6.3580   14.3580 C.ar  300  TAB300      0.0741
      3  C3'       15.2280    5.2940   15.0970 C.ar  300  TAB300      0.0124
      4  C4'       14.1280    4.5350   14.6620 C.ar  300  TAB300     -0.0025
      5  C5'       13.4660    4.8020   13.4930 C.ar  300  TAB300     -0.0067
      6  C6'       13.9460    5.8540   12.7210 C.ar  300  TAB300      0.0152
      7 CL8        17.0920    7.2940   14.9000 Cl    300  TAB300     -0.0808
      8  N8'       15.4110    7.6330   12.4110 N.pl3 300  TAB300     -0.1313
      9  C9'       12.4070    4.0080   13.0710 C.3   300  TAB300      0.1421
     10  C10       12.5690    3.2390   11.8700 C.2   300  TAB300      0.1122
     11  C11       13.8140    3.3250   10.9950 C.3   300  TAB300      0.0563
     12  N17       11.6230    2.4020   11.4010 N.2   300  TAB300     -0.3339
     13  C14       10.4560    2.3120   12.1100 C.1   300  TAB300      0.2419
     14  N22        9.5130    1.4490   11.6050 N.pl3 300  TAB300     -0.0232
     15  N15       10.3270    2.9980   13.2700 N.2   300  TAB300     -0.3112
     16  C15       11.2370    3.8170   13.8030 C.2   300  TAB300      0.2201
     17  N20       11.0490    4.5360   14.9540 N.pl3 300  TAB300     -0.0962
     18  N18       15.7300    8.3340   10.2010 N.3   300  TAB300     -0.1763
     19  C19       17.1610    8.0180   10.4040 C.3   300  TAB300      0.1182
     20  C20       14.6310    1.9880   11.1380 C.3   300  TAB300      0.0075
     21  C21       15.3500    9.1790    9.1320 C.3   300  TAB300      0.1395
     22  C22       14.4240    8.5330    8.1140 C.3   300  TAB300      0.2273
     23  O23       14.1680    9.5980    7.1140 O.3   300  TAB300     -0.4469
     24  C24       12.8350    9.7320    6.9620 C.2   300  TAB300      0.3176
     25  C25       12.2830   10.6060    5.8570 C.3   300  TAB300      0.1212
     26  O26       11.8920    9.1800    7.5760 O.2   300  TAB300     -0.2501
     27  C27       17.4900    7.4420    9.0240 C.ar  300  TAB300     -0.0047
     28  C28       17.3770    6.1060    8.5820 C.ar  300  TAB300     -0.0029
     29  C29       17.9760    8.3990    8.1030 C.ar  300  TAB300     -0.0029
     30  C30       18.3480    8.0910    6.8010 C.ar  300  TAB300     -0.0003
     31  C31       18.2120    6.7840    6.3860 C.ar  300  TAB300     -0.0000
     32  C32       17.7290    5.8170    7.2660 C.ar  300  TAB300     -0.0003
     33  N65       14.8150    7.9470   11.2370 N.3   300  TAB300     -0.0324
@<TRIPOS>BOND
     1    25    24    1
     2    31    30   ar
     3    31    32   ar
     4    30    29   ar
     5    24    23    1
     6    24    26    2
     7    23    22    1
     8    32    28   ar
     9    29    27   ar
    10    22    21    1
    11    28    27   ar
    12    27    19    1
    13    21    18    1
    14    18    19    1
    15    18    33    1
    16    11    20    1
    17    11    10    1
    18    33     8    1
    19    12    10    2
    20    12    13    2
    21    14    13    1
    22    10     9    1
    23    13    15    2
    24     8     1    1
    25     6     1   ar
    26     6     5   ar
    27     9     5    1
    28     9    16    1
    29     1     2   ar
    30    15    16    2
    31     5     4   ar
    32    16    17    1
    33     2     7    1
    34     2     3   ar
    35     4     3   ar
