@<TRIPOS>MOLECULE
1vj3_NDP_A_1.pdb
 48 52 0 0 0
SMALL
GASTEIGER

@<TRIPOS>ATOM
      1  PA        15.6570    9.2400   23.5850 P.3   207  NDP207      0.2189
      2  O1A       15.7010    9.3170   22.0910 O.2   207  NDP207     -0.5170
      3  O2A       14.4280    8.8250   24.2270 O.3   207  NDP207     -0.4371
      4  O5B       16.2010   10.7260   24.0640 O.3   207  NDP207     -0.3112
      5  C5B       16.7040   10.8840   25.4310 C.3   207  NDP207      0.1813
      6  C4B       16.3810   12.3530   25.7410 C.3   207  NDP207      0.1820
      7  O4B       15.2240   12.6600   25.4590 O.3   207  NDP207     -0.3136
      8  C3B       16.3790   12.3700   27.3780 C.3   207  NDP207      0.2157
      9  O3B       17.8620   12.4810   27.3800 O.3   207  NDP207     -0.2175
     10  C2B       15.6620   13.7430   27.5040 C.3   207  NDP207      0.2314
     11  O2B       16.5190   14.7410   27.0660 O.3   207  NDP207     -0.2630
     12  C1B       14.5620   13.4760   26.4550 C.3   207  NDP207      0.3158
     13  N9A       13.4390   12.7680   27.0220 N.pl3 207  NDP207     -0.1439
     14  C8A       13.0470   11.5160   26.6450 C.3   207  NDP207      0.3377
     15  N7A       11.9850   11.0940   27.2850 N.2   207  NDP207     -0.2095
     16  C5A       11.7530   12.2240   28.1450 C.2   207  NDP207      0.2526
     17  C6A       10.6570   12.5140   29.2210 C.2   207  NDP207      0.4393
     18  N6A        9.7360   11.5670   29.4960 N.pl3 207  NDP207      0.2180
     19  N1A       10.7260   13.6570   29.7750 N.2   207  NDP207      0.0021
     20  C2A       11.7030   14.5240   29.4010 C.3   207  NDP207      0.5254
     21  N3A       12.6730   14.4190   28.5470 N.2   207  NDP207     -0.0055
     22  C4A       12.6230   13.1830   27.9630 C.2   207  NDP207      0.3518
     23  O3        16.9270    8.4130   23.9980 O.3   207  NDP207     -0.2703
     24  PN        17.4350    6.8850   24.1030 P.3   207  NDP207      0.2189
     25  O1N       16.6970    6.2080   25.0920 O.3   207  NDP207     -0.4371
     26  O2N       18.8530    6.9500   24.4790 O.2   207  NDP207     -0.5170
     27  O5D       17.4920    6.2460   22.6600 O.3   207  NDP207     -0.3112
     28  C5D       18.0040    6.6900   21.4140 C.3   207  NDP207      0.1813
     29  C4D       18.5610    5.3940   20.7560 C.3   207  NDP207      0.1799
     30  O4D       17.3620    4.5770   20.3920 O.3   207  NDP207     -0.3327
     31  C3D       19.4460    5.4930   19.4780 C.3   207  NDP207      0.2158
     32  O3D       20.2010    4.2560   19.2930 O.3   207  NDP207     -0.2175
     33  C2D       18.3200    5.4840   18.3990 C.3   207  NDP207      0.2309
     34  O2D       18.8060    5.1270   17.1700 O.3   207  NDP207     -0.2158
     35  C1D       17.4840    4.3220   18.9470 C.3   207  NDP207      0.2263
     36  N1N       16.0840    4.2360   18.3340 N.pl3 207  NDP207     -0.2787
     37  C2N       15.6230    3.1120   17.5980 C.3   207  NDP207      0.1244
     38  C3N       14.3640    3.2060   17.1300 C.2   207  NDP207      0.0544
     39  C7N       13.8210    2.0180   16.3440 C.2   207  NDP207      0.2818
     40  O7N       12.7060    2.0800   15.8580 O.2   207  NDP207     -0.2670
     41  N7N       14.7350    1.0500   16.2410 N.am  207  NDP207     -0.0839
     42  C4N       13.4240    4.4180   17.3100 C.2   207  NDP207      0.0033
     43  C5N       14.0860    5.4970   18.1060 C.2   207  NDP207      0.0157
     44  C6N       15.3200    5.4010   18.5540 C.2   207  NDP207      0.0633
     45  P2B       17.6610   15.7980   27.7940 P.3   207  NDP207      0.5328
     46  O1X       18.7550   14.9190   28.2870 O.3   207  NDP207     -0.1145
     47  O2X       16.8830   16.2650   29.0300 O.3   207  NDP207     -0.1145
     48  O3X       17.7600   16.8870   26.7980 O.2   207  NDP207     -0.2224
@<TRIPOS>BOND
     1    40    39    2
     2    41    39   am
     3    39    38    1
     4    38    42    2
     5    38    37    1
     6    34    33    1
     7    42    43    1
     8    37    36    1
     9    43    44    2
    10    36    44    1
    11    36    35    1
    12    33    35    1
    13    33    31    1
    14    35    30    1
    15    32    31    1
    16    31    29    1
    17    30    29    1
    18    29    28    1
    19    28    27    1
    20     2     1    2
    21    27    24    1
    22     1    23    1
    23     1     4    1
    24     1     3    1
    25    23    24    1
    26     4     5    1
    27    24    26    2
    28    24    25    1
    29     5     6    1
    30     7     6    1
    31     7    12    1
    32     6     8    1
    33    12    13    1
    34    12    10    1
    35    14    13    1
    36    14    15    1
    37    48    45    2
    38    13    22    1
    39    11    10    1
    40    11    45    1
    41    15    16    2
    42     8     9    1
    43     8    10    1
    44    45    46    1
    45    45    47    1
    46    22    16    1
    47    22    21    2
    48    16    17    1
    49    21    20    1
    50    17    18    1
    51    17    19    2
    52    20    19    1
