@<TRIPOS>MOLECULE
1vj5_CIU_A_1.pdb
 17 18 0 0 0
SMALL
GASTEIGER

@<TRIPOS>ATOM
      1  C1        13.5790   10.6230  142.8130 C.3   781  CIU781      0.0018
      2  C2        14.0880   10.8790  141.3560 C.3   781  CIU781      0.0217
      3  C3        15.2020   11.9700  141.3250 C.3   781  CIU781      0.0970
      4  C4        14.6830   13.3090  141.9410 C.3   781  CIU781      0.0217
      5  C5        14.2110   13.0920  143.4170 C.3   781  CIU781      0.0018
      6  C6        13.1240   11.9580  143.5160 C.3   781  CIU781      0.0001
      7  N1        15.6320   12.1750  139.9280 N.am  781  CIU781     -0.1887
      8  C7        16.4570   11.3760  139.2540 C.2   781  CIU781      0.3434
      9  O2        16.6090   10.2710  139.7650 O.2   781  CIU781     -0.2488
     10  N2        17.0770   11.7040  138.1310 N.am  781  CIU781     -0.1610
     11  C8        17.9780   10.9550  137.3190 C.ar  781  CIU781      0.0750
     12  I4        21.1070    8.3390  134.4770 I     781  CIU781     -0.0425
     13  C9        18.3260    9.6360  137.6510 C.ar  781  CIU781      0.0171
     14  C10       19.2730    8.8590  136.7900 C.ar  781  CIU781      0.0071
     15  C11       19.7880    9.4640  135.6590 C.ar  781  CIU781      0.0301
     16  C12       19.4350   10.8040  135.3180 C.ar  781  CIU781      0.0071
     17  C13       18.5250   11.5450  136.1460 C.ar  781  CIU781      0.0171
@<TRIPOS>BOND
     1    12    15    1
     2    16    15   ar
     3    16    17   ar
     4    15    14   ar
     5    17    11   ar
     6    14    13   ar
     7    11    13   ar
     8    11    10    1
     9    10     8   am
    10     8     9    2
    11     8     7   am
    12     7     3    1
    13     3     2    1
    14     3     4    1
    15     2     1    1
    16     4     5    1
    17     1     6    1
    18     5     6    1
