@<TRIPOS>MOLECULE
1vj9_5IN_U_1.pdb
 40 42 0 0 0
SMALL
GASTEIGER

@<TRIPOS>ATOM
      1  C1        26.9540   13.3560   31.6730 C.3   300  5IN300      0.1687
      2  O2        27.7720   12.2340   32.0140 O.3   300  5IN300     -0.3466
      3  C3        27.8100   11.3520   30.9070 C.3   300  5IN300      0.1735
      4  C4        29.0800   10.4880   30.9340 C.3   300  5IN300      0.2021
      5  N5        30.2260   11.3780   30.9580 N.am  300  5IN300     -0.1938
      6  C6        31.5370   10.8760   30.9940 C.2   300  5IN300      0.2622
      7  C7        32.6730   11.9030   31.0090 C.3   300  5IN300      0.2075
      8  N8        33.6380   11.7600   29.9540 N.3   300  5IN300     -0.0711
      9  S9        33.4900   12.0200   28.3290 S.O2  300  5IN300      0.0621
     10  C10       32.1710   10.9600   27.7080 C.3   300  5IN300      0.1969
     11  C11       32.0150   11.2020   26.1530 C.ar  300  5IN300      0.0030
     12  C12       31.0180   12.1550   25.7940 C.ar  300  5IN300     -0.0025
     13  C13       30.7720   12.4540   24.4210 C.ar  300  5IN300     -0.0003
     14  C14       31.5280   11.7920   23.4260 C.ar  300  5IN300     -0.0000
     15  C15       32.5220   10.8440   23.7770 C.ar  300  5IN300     -0.0003
     16  C16       32.7670   10.5470   25.1410 C.ar  300  5IN300     -0.0025
     17  O17       33.0920   13.3950   28.2000 O.2   300  5IN300     -0.1558
     18  O18       34.8540   11.7180   27.8430 O.2   300  5IN300     -0.1558
     19  C19       33.5270   11.8780   32.2870 C.3   300  5IN300      0.2106
     20  O20       32.6690   12.0990   33.3800 O.3   300  5IN300     -0.2182
     21  O21       31.7780    9.6830   31.0070 O.2   300  5IN300     -0.2717
     22  C22       29.0220    9.5980   29.7210 C.2   300  5IN300      0.2641
     23  O23       29.2530   10.0540   28.6280 O.2   300  5IN300     -0.2714
     24  N24       28.6870    8.2860   29.9850 N.am  300  5IN300     -0.1990
     25  C25       28.5770    7.3270   28.9210 C.3   300  5IN300      0.1415
     26  C26       29.8580    6.5740   28.6010 C.ar  300  5IN300     -0.0006
     27  C27       29.9480    5.2030   28.9490 C.ar  300  5IN300     -0.0023
     28  C28       31.1100    4.4580   28.6640 C.ar  300  5IN300      0.0077
     29  C29       32.2480    5.0480   28.0170 C.ar  300  5IN300      0.0975
     30  C30       32.1860    6.4360   27.6530 C.ar  300  5IN300      0.0077
     31  C31       30.9930    7.1780   27.9490 C.ar  300  5IN300     -0.0023
     32  C32       33.3730    4.2280   27.7550 C.2   300  5IN300      0.4766
     33  N33       33.3600    2.9200   28.0940 N.pl3 300  5IN300      0.2047
     34  N34       34.5170    4.6290   27.1660 N.pl3 300  5IN300      0.2047
     35  C35       26.4810   14.0440   32.9540 C.ar  300  5IN300      0.0073
     36  C36       25.1870   13.7490   33.4850 C.ar  300  5IN300     -0.0019
     37  C37       24.7470   14.3920   34.6820 C.ar  300  5IN300     -0.0002
     38  C38       25.5980   15.3270   35.3460 C.ar  300  5IN300     -0.0000
     39  C39       26.8890   15.6210   34.8150 C.ar  300  5IN300     -0.0002
     40  C40       27.3330   14.9820   33.6210 C.ar  300  5IN300     -0.0019
@<TRIPOS>BOND
     1    14    15   ar
     2    14    13   ar
     3    15    16   ar
     4    13    12   ar
     5    16    11   ar
     6    12    11   ar
     7    11    10    1
     8    34    32    2
     9    30    31   ar
    10    30    29   ar
    11    10     9    1
    12    32    29    1
    13    32    33    1
    14    18     9    2
    15    31    26   ar
    16    29    28   ar
    17    17     9    2
    18     9     8    1
    19    26    25    1
    20    26    27   ar
    21    23    22    2
    22    28    27   ar
    23    25    24    1
    24    22    24   am
    25    22     4    1
    26     8     7    1
    27     3     4    1
    28     3     2    1
    29     4     5    1
    30     5     6   am
    31     6    21    2
    32     6     7    1
    33     7    19    1
    34     1     2    1
    35     1    35    1
    36    19    20    1
    37    35    36   ar
    38    35    40   ar
    39    36    37   ar
    40    40    39   ar
    41    37    38   ar
    42    39    38   ar
