@<TRIPOS>MOLECULE
1vja_7IN_U_1.pdb
 33 34 0 0 0
SMALL
GASTEIGER

@<TRIPOS>ATOM
      1  O2        26.6200   11.5010   30.3330 O.3   300  7IN300     -0.2179
      2  C3        27.6950   11.4140   31.2160 C.3   300  7IN300      0.2130
      3  C4        28.9390   10.5140   31.0670 C.3   300  7IN300      0.2055
      4  N5        30.0860   11.4000   31.0500 N.am  300  7IN300     -0.1937
      5  C6        31.4060   10.9170   30.9290 C.2   300  7IN300      0.2622
      6  C7        32.5150   11.9670   30.9090 C.3   300  7IN300      0.2075
      7  N8        33.5050   11.7890   29.8860 N.3   300  7IN300     -0.0711
      8  S9        33.4490   12.0880   28.2590 S.O2  300  7IN300      0.0621
      9  C10       32.0990   11.1390   27.5200 C.3   300  7IN300      0.1969
     10  C11       32.1310   11.3430   26.0080 C.ar  300  7IN300      0.0030
     11  C12       31.8260   12.6110   25.3700 C.ar  300  7IN300     -0.0025
     12  C13       31.8810   12.7340   23.9270 C.ar  300  7IN300     -0.0003
     13  C14       32.2400   11.5820   23.1410 C.ar  300  7IN300     -0.0000
     14  C15       32.5410   10.3240   23.7700 C.ar  300  7IN300     -0.0003
     15  C16       32.4870   10.2030   25.2030 C.ar  300  7IN300     -0.0025
     16  O17       33.1630   13.4880   28.1530 O.2   300  7IN300     -0.1558
     17  O18       34.8170   11.6920   27.8400 O.2   300  7IN300     -0.1558
     18  C19       33.3410   12.0460   32.1970 C.3   300  7IN300      0.2106
     19  O20       32.4440   12.2230   33.2660 O.3   300  7IN300     -0.2182
     20  O21       31.6740    9.7320   30.8350 O.2   300  7IN300     -0.2717
     21  C22       28.8140    9.7060   29.7820 C.2   300  7IN300      0.2642
     22  O23       28.9940   10.2470   28.7110 O.2   300  7IN300     -0.2714
     23  N24       28.5130    8.3620   29.9660 N.am  300  7IN300     -0.1990
     24  C25       28.3800    7.4570   28.8450 C.3   300  7IN300      0.1415
     25  C26       29.6510    6.6940   28.4840 C.ar  300  7IN300     -0.0006
     26  C27       29.7260    5.2930   28.7870 C.ar  300  7IN300     -0.0023
     27  C28       30.8930    4.5330   28.4710 C.ar  300  7IN300      0.0077
     28  C29       32.0570    5.1440   27.8310 C.ar  300  7IN300      0.0975
     29  C30       32.0060    6.5630   27.5140 C.ar  300  7IN300      0.0077
     30  C31       30.8100    7.3170   27.8420 C.ar  300  7IN300     -0.0023
     31  C32       33.1900    4.3320   27.5450 C.2   300  7IN300      0.4766
     32  N33       33.1990    3.0170   27.8500 N.pl3 300  7IN300      0.2047
     33  N34       34.3300    4.7580   26.9660 N.pl3 300  7IN300      0.2047
@<TRIPOS>BOND
     1    13    14   ar
     2    13    12   ar
     3    14    15   ar
     4    12    11   ar
     5    15    10   ar
     6    11    10   ar
     7    10     9    1
     8    33    31    2
     9    29    28   ar
    10    29    30   ar
    11     9     8    1
    12    31    28    1
    13    31    32    1
    14    28    27   ar
    15    17     8    2
    16    30    25   ar
    17    16     8    2
    18     8     7    1
    19    27    26   ar
    20    25    26   ar
    21    25    24    1
    22    22    21    2
    23    24    23    1
    24    21    23   am
    25    21     3    1
    26     7     6    1
    27     1     2    1
    28    20     5    2
    29     6     5    1
    30     6    18    1
    31     5     4   am
    32     4     3    1
    33     3     2    1
    34    18    19    1
