@<TRIPOS>MOLECULE
1vjb_OHT_A_1.pdb
 29 31 0 0 0
SMALL
GASTEIGER

@<TRIPOS>ATOM
      1  C10      -19.2580   54.3850  -10.0820 C.3   100  OHT100      0.0050
      2  C9       -19.2290   55.2590  -11.3080 C.3   100  OHT100      0.0264
      3  C8       -17.9430   56.0490  -11.4340 C.2   100  OHT100     -0.0222
      4  C11      -16.8070   55.1990  -11.9480 C.ar  100  OHT100     -0.0040
      5  C16      -15.7970   54.7000  -11.0560 C.ar  100  OHT100     -0.0003
      6  C15      -14.7380   53.8970  -11.5380 C.ar  100  OHT100     -0.0000
      7  C14      -14.6490   53.5700  -12.8940 C.ar  100  OHT100     -0.0000
      8  C13      -15.6180   54.0420  -13.7800 C.ar  100  OHT100     -0.0000
      9  C12      -16.6870   54.8500  -13.3090 C.ar  100  OHT100     -0.0003
     10  C7       -17.8490   57.4090  -11.1200 C.2   100  OHT100     -0.0040
     11  C1       -18.9540   58.2370  -10.4470 C.ar  100  OHT100     -0.0001
     12  C2       -19.4370   59.4800  -11.0360 C.ar  100  OHT100      0.0033
     13  C3       -20.4430   60.2430  -10.3960 C.ar  100  OHT100      0.0420
     14  C4       -20.9850   59.7820   -9.1620 C.ar  100  OHT100      0.1957
     15  O4       -21.9500   60.5330   -8.5680 O.3   100  OHT100     -0.2866
     16  C5       -20.5270   58.5670   -8.5660 C.ar  100  OHT100      0.0420
     17  C6       -19.5250   57.8200   -9.2120 C.ar  100  OHT100      0.0033
     18  C17      -16.6580   58.2410  -11.4070 C.ar  100  OHT100     -0.0001
     19  C18      -16.1900   58.4630  -12.7220 C.ar  100  OHT100      0.0031
     20  C19      -15.0890   59.2560  -12.9920 C.ar  100  OHT100      0.0369
     21  C20      -14.3990   59.8720  -11.9330 C.ar  100  OHT100      0.1386
     22  O20      -13.3010   60.6840  -12.1380 O.3   100  OHT100     -0.4740
     23  C23      -12.6210   61.3250  -11.0490 C.3   100  OHT100      0.2226
     24  C24      -11.2720   61.7410  -11.5640 C.3   100  OHT100      0.1201
     25  N24      -11.2860   62.9850  -12.2660 N.3   100  OHT100     -0.2672
     26  C25      -10.3620   63.9470  -11.6520 C.3   100  OHT100      0.0898
     27  C26      -10.8830   62.7680  -13.6620 C.3   100  OHT100      0.0898
     28  C21      -14.8430   59.6640  -10.5960 C.ar  100  OHT100      0.0369
     29  C22      -15.9390   58.8670  -10.3530 C.ar  100  OHT100      0.0031
@<TRIPOS>BOND
     1     8     9   ar
     2     8     7   ar
     3    27    25    1
     4     9     4   ar
     5    20    19   ar
     6    20    21   ar
     7     7     6   ar
     8    19    18   ar
     9    25    26    1
    10    25    24    1
    11    22    21    1
    12    22    23    1
    13     4     3    1
    14     4     5   ar
    15    21    28   ar
    16    24    23    1
    17     6     5   ar
    18     3     2    1
    19     3    10    2
    20    18    10    1
    21    18    29   ar
    22     2     1    1
    23    10    11    1
    24    12    11   ar
    25    12    13   ar
    26    28    29   ar
    27    11    17   ar
    28    13    14   ar
    29    17    16   ar
    30    14    15    1
    31    14    16   ar
