@<TRIPOS>MOLECULE
1vjc_ATP_A_1.pdb
 31 33 0 0 0
SMALL
GASTEIGER

@<TRIPOS>ATOM
      1  PG         8.8290   -0.7400   23.5190 P.3   417  ATP417      0.5373
      2  O1G       10.2840   -0.6010   23.8230 O.3   417  ATP417     -0.1143
      3  O2G        8.3370   -2.1300   23.4440 O.2   417  ATP417     -0.2221
      4  O3G        7.9700    0.2250   24.2740 O.3   417  ATP417     -0.1143
      5  PB         9.3940    0.8970   21.2100 P.3   417  ATP417      0.2277
      6  O1B       10.8330    0.7800   21.3730 O.3   417  ATP417     -0.4368
      7  O2B        8.8570    0.9830   19.8930 O.2   417  ATP417     -0.5168
      8  O3B        8.7190   -0.3170   21.9830 O.3   417  ATP417     -0.2258
      9  PA         9.3240    3.6380   22.4940 P.3   417  ATP417      0.2189
     10  O1A       10.6370    3.6520   23.1500 O.3   417  ATP417     -0.4371
     11  O2A        9.1170    4.4860   21.3390 O.2   417  ATP417     -0.5170
     12  O3A        8.9180    2.1590   22.2050 O.3   417  ATP417     -0.2700
     13  O5'        8.3250    3.9390   23.5210 O.3   417  ATP417     -0.3112
     14  C5'        6.9160    3.9860   23.2330 C.3   417  ATP417      0.1813
     15  C4'        6.1440    3.7760   24.4910 C.3   417  ATP417      0.1821
     16  O4'        6.3980    4.9330   25.3270 O.3   417  ATP417     -0.3135
     17  C3'        4.6490    3.7630   24.3000 C.3   417  ATP417      0.2184
     18  O3'        4.1560    2.4350   24.5440 O.3   417  ATP417     -0.2174
     19  C2'        4.1160    4.7940   25.2710 C.3   417  ATP417      0.2570
     20  O2'        3.0380    4.3380   26.0780 O.3   417  ATP417     -0.2130
     21  C1'        5.2980    5.0750   26.2160 C.3   417  ATP417      0.3186
     22  N9         5.2580    6.4560   26.7800 N.pl3 417  ATP417     -0.1439
     23  C8         5.0370    7.6490   26.1280 C.3   417  ATP417      0.3377
     24  N7         5.0470    8.7000   26.8800 N.2   417  ATP417     -0.2095
     25  C5         5.2970    8.1720   28.1320 C.2   417  ATP417      0.2526
     26  C6         5.4310    8.7700   29.4170 C.2   417  ATP417      0.4393
     27  N6         5.3130   10.0860   29.5700 N.pl3 417  ATP417      0.2180
     28  N1         5.6810    7.9690   30.4910 N.2   417  ATP417      0.0021
     29  C2         5.7940    6.6440   30.3180 C.3   417  ATP417      0.5254
     30  N3         5.6840    5.9510   29.1630 N.2   417  ATP417     -0.0055
     31  C4         5.4310    6.7970   28.0880 C.2   417  ATP417      0.3518
@<TRIPOS>BOND
     1     7     5    2
     2     5     6    1
     3     5     8    1
     4     5    12    1
     5    11     9    2
     6     8     1    1
     7    12     9    1
     8     9    10    1
     9     9    13    1
    10    14    13    1
    11    14    15    1
    12     3     1    2
    13     1     2    1
    14     1     4    1
    15    17    15    1
    16    17    18    1
    17    17    19    1
    18    15    16    1
    19    19    20    1
    20    19    21    1
    21    16    21    1
    22    23    22    1
    23    23    24    1
    24    21    22    1
    25    22    31    1
    26    24    25    2
    27    31    25    1
    28    31    30    2
    29    25    26    1
    30    30    29    1
    31    26    27    1
    32    26    28    2
    33    29    28    1
