@<TRIPOS>MOLECULE
1vjd_ATP_A_1.pdb
 31 33 0 0 0
SMALL
GASTEIGER

@<TRIPOS>ATOM
      1  PG         7.2830    4.1830    7.4010 P.3   417  ATP417      0.5373
      2  O1G        8.3390    4.6840    6.4980 O.2   417  ATP417     -0.2221
      3  O2G        7.3640    2.7460    7.7120 O.3   417  ATP417     -0.1143
      4  O3G        7.0210    5.0980    8.5660 O.3   417  ATP417     -0.1143
      5  PB         5.6130    4.9560    5.0640 P.3   417  ATP417      0.2277
      6  O1B        6.8010    5.7980    4.7040 O.2   417  ATP417     -0.5168
      7  O2B        4.2950    5.6100    5.1440 O.3   417  ATP417     -0.4368
      8  O3B        5.9420    4.2060    6.4960 O.3   417  ATP417     -0.2258
      9  PA         5.2320    3.4470    2.5720 P.3   417  ATP417      0.2189
     10  O1A        5.4370    2.0140    2.3280 O.3   417  ATP417     -0.4371
     11  O2A        3.9180    4.0500    2.2160 O.2   417  ATP417     -0.5170
     12  O3A        5.6430    3.7440    4.0820 O.3   417  ATP417     -0.2700
     13  O5'        6.3690    4.2240    1.8300 O.3   417  ATP417     -0.3112
     14  C5'        7.7580    4.1050    2.1670 C.3   417  ATP417      0.1813
     15  C4'        8.5460    3.9370    0.9050 C.3   417  ATP417      0.1821
     16  O4'        8.3460    5.1360    0.1280 O.3   417  ATP417     -0.3135
     17  C3'       10.0370    3.8370    1.0960 C.3   417  ATP417      0.2184
     18  O3'       10.4680    2.4940    0.8260 O.3   417  ATP417     -0.2174
     19  C2'       10.6100    4.8490    0.1200 C.3   417  ATP417      0.2570
     20  O2'       11.6160    4.3220   -0.7240 O.3   417  ATP417     -0.2130
     21  C1'        9.4170    5.2240   -0.7900 C.3   417  ATP417      0.3186
     22  N9         9.4830    6.6130   -1.3410 N.pl3 417  ATP417     -0.1439
     23  C8         9.6880    7.8040   -0.6820 C.3   417  ATP417      0.3377
     24  N7         9.6970    8.8620   -1.4420 N.2   417  ATP417     -0.2095
     25  C5         9.4830    8.3270   -2.7060 C.2   417  ATP417      0.2526
     26  C6         9.3770    8.9150   -3.9990 C.2   417  ATP417      0.4393
     27  N6         9.4930   10.2250   -4.1670 N.pl3 417  ATP417      0.2180
     28  N1         9.1550    8.1100   -5.0750 N.2   417  ATP417      0.0021
     29  C2         9.0400    6.7870   -4.8980 C.3   417  ATP417      0.5254
     30  N3         9.1200    6.1010   -3.7330 N.2   417  ATP417     -0.0055
     31  C4         9.3440    6.9530   -2.6580 C.2   417  ATP417      0.3518
@<TRIPOS>BOND
     1    28    29    1
     2    28    26    2
     3    29    30    1
     4    27    26    1
     5    26    25    1
     6    30    31    2
     7    25    31    1
     8    25    24    2
     9    31    22    1
    10    24    23    1
    11    22    21    1
    12    22    23    1
    13    21    19    1
    14    21    16    1
    15    20    19    1
    16    19    17    1
    17    16    15    1
    18    18    17    1
    19    15    17    1
    20    15    14    1
    21    13    14    1
    22    13     9    1
    23    11     9    2
    24    10     9    1
    25     9    12    1
    26    12     5    1
    27     6     5    2
    28     5     7    1
    29     5     8    1
    30     8     1    1
    31     2     1    2
    32     1     3    1
    33     1     4    1
