@<TRIPOS>MOLECULE
1vji_FMN_A_1.pdb
 31 33 0 0 0
SMALL
GASTEIGER

@<TRIPOS>ATOM
      1  N1        14.1900   42.6630   60.2290 N.2   373  FMN373     -0.2887
      2  C2        13.8200   41.4600   59.6940 C.1   373  FMN373      0.3669
      3  O2        14.6400   40.5530   59.5540 O.2   373  FMN373     -0.1744
      4  N3        12.5570   41.2620   59.2380 N.2   373  FMN373     -0.2300
      5  C4        11.5860   42.2130   59.3540 C.1   373  FMN373      0.2513
      6  O4        10.5460   42.0780   58.6360 O.2   373  FMN373     -0.2057
      7  C4A       11.9290   43.4260   59.9410 C.2   373  FMN373      0.2703
      8  N5        10.9740   44.4430   60.0290 N.2   373  FMN373     -0.3882
      9  C5A       11.3770   45.7270   60.5200 C.2   373  FMN373      0.1277
     10  C6        10.4620   46.7750   60.5900 C.3   373  FMN373      0.0820
     11  C7        10.7870   48.0200   61.1140 C.2   373  FMN373     -0.0408
     12  C7M        9.8490   49.1840   60.8680 C.3   373  FMN373      0.0265
     13  C8        12.1030   48.2320   61.5330 C.2   373  FMN373     -0.0280
     14  C8M       12.5330   49.6440   61.8570 C.3   373  FMN373      0.0304
     15  C9        13.0500   47.1950   61.4820 C.2   373  FMN373      0.0123
     16  C9A       12.6920   45.9550   60.9660 C.2   373  FMN373      0.0793
     17  N10       13.6380   44.9200   60.8200 N.pl3 373  FMN373     -0.2545
     18  C10       13.2360   43.6610   60.3580 C.2   373  FMN373      0.2449
     19  C1'       15.1040   45.1820   61.0980 C.3   373  FMN373      0.1336
     20  C2'       15.8160   45.8420   59.9050 C.3   373  FMN373      0.2048
     21  O2'       15.8180   44.9560   58.8070 O.3   373  FMN373     -0.2185
     22  C3'       17.2510   46.3170   60.3330 C.3   373  FMN373      0.2165
     23  O3'       18.0820   45.2470   60.7890 O.3   373  FMN373     -0.2175
     24  C4'       17.1830   47.3770   61.4820 C.3   373  FMN373      0.2147
     25  O4'       16.2490   48.4330   61.1800 O.3   373  FMN373     -0.2176
     26  C5'       18.5550   47.9540   61.8910 C.3   373  FMN373      0.1892
     27  O5'       19.0130   48.5270   60.6970 O.3   373  FMN373     -0.2674
     28  P         18.9500   50.1850   60.5900 P.3   373  FMN373      0.5327
     29  O1P       19.7950   50.7410   61.6050 O.3   373  FMN373     -0.1145
     30  O2P       17.5030   50.6390   60.7000 O.3   373  FMN373     -0.1145
     31  O3P       19.4070   50.4320   59.1800 O.2   373  FMN373     -0.2224
@<TRIPOS>BOND
     1     6     5    2
     2    21    20    1
     3    31    28    2
     4     4     5    2
     5     4     2    2
     6     5     7    1
     7     3     2    2
     8     2     1    2
     9    20    22    1
    10    20    19    1
    11     7     8    2
    12     7    18    1
    13     8     9    2
    14     1    18    2
    15    22    23    1
    16    22    24    1
    17    18    17    1
    18     9    10    1
    19     9    16    1
    20    28    27    1
    21    28    30    1
    22    28    29    1
    23    10    11    1
    24    27    26    1
    25    17    16    1
    26    17    19    1
    27    12    11    1
    28    16    15    2
    29    11    13    2
    30    25    24    1
    31    24    26    1
    32    15    13    1
    33    13    14    1
