@<TRIPOS>MOLECULE
1vjm_RET_A_1.pdb
 20 20 0 0 0
SMALL
GASTEIGER

@<TRIPOS>ATOM
      1  C1        14.7600   45.1360   -0.2770 C.3   300  RET300      0.0183
      2  C2        14.0590   46.1000   -1.2850 C.3   300  RET300      0.0044
      3  C3        14.7260   47.4570   -1.3830 C.3   300  RET300      0.0047
      4  C4        14.7830   48.1710   -0.0380 C.3   300  RET300      0.0217
      5  C5        15.1320   47.2500    1.1510 C.2   300  RET300     -0.0479
      6  C6        15.1360   45.8580    1.0750 C.2   300  RET300     -0.0307
      7  C7        15.5470   45.1010    2.2740 C.2   300  RET300     -0.0052
      8  C8        15.7770   43.8360    2.7030 C.2   300  RET300     -0.0046
      9  C9        16.2980   43.2850    3.9110 C.2   300  RET300     -0.0219
     10  C10       16.4050   41.9400    3.7830 C.2   300  RET300     -0.0043
     11  C11       16.9470   41.0340    4.7270 C.2   300  RET300     -0.0007
     12  C12       17.0350   39.7160    4.5620 C.2   300  RET300     -0.0046
     13  C13       17.4990   38.7200    5.4800 C.2   300  RET300     -0.0261
     14  C14       17.3650   37.4960    4.9170 C.2   300  RET300     -0.0300
     15  C15       17.6090   36.2160    5.3370 C.3   300  RET300      0.0304
     16  C16       13.7350   44.0140   -0.2280 C.3   300  RET300      0.0043
     17  C17       16.0590   44.5830   -0.9490 C.3   300  RET300      0.0043
     18  C18       15.4140   48.1790    2.3140 C.3   300  RET300      0.0260
     19  C19       16.7340   44.1810    5.0460 C.3   300  RET300      0.0310
     20  C20       17.9880   39.0390    6.8740 C.3   300  RET300      0.0307
@<TRIPOS>BOND
     1     3     2    1
     2     3     4    1
     3     2     1    1
     4    17     1    1
     5     1    16    1
     6     1     6    1
     7     4     5    1
     8     6     5    2
     9     6     7    1
    10     5    18    1
    11     7     8    2
    12     8     9    1
    13    10     9    2
    14    10    11    1
    15     9    19    1
    16    12    11    2
    17    12    13    1
    18    14    15    1
    19    14    13    2
    20    13    20    1
