@<TRIPOS>MOLECULE
1vjo_PLP_A_1.pdb
 16 16 0 0 0
SMALL
GASTEIGER

@<TRIPOS>ATOM
      1  N1        25.3440   50.3080   28.2520 N.ar  400  PLP400     -0.2452
      2  C2        24.4910   49.4340   28.9090 C.ar  400  PLP400      0.0982
      3  C2A       23.0100   49.6740   28.7450 C.3   400  PLP400      0.0555
      4  C3        25.0590   48.4210   29.7140 C.ar  400  PLP400      0.2120
      5  O3        24.2570   47.5490   30.3830 O.3   400  PLP400     -0.2852
      6  C4        26.4610   48.3040   29.7690 C.ar  400  PLP400      0.0822
      7  C4A       27.0950   47.2430   30.6220 C.2   400  PLP400      0.2372
      8  O4A       26.6650   46.0940   30.5420 O.2   400  PLP400     -0.2830
      9  C5        27.3090   49.2010   29.0670 C.ar  400  PLP400      0.0333
     10  C6        26.7220   50.2100   28.3050 C.ar  400  PLP400      0.0969
     11  C5A       28.8170   49.1110   29.1760 C.3   400  PLP400      0.1819
     12  O4P       29.3300   47.9000   28.6060 O.3   400  PLP400     -0.2653
     13  P         30.6860   47.2980   29.2540 P.3   400  PLP400      0.5329
     14  O1P       30.7940   46.0420   28.4160 O.2   400  PLP400     -0.2224
     15  O2P       30.4290   46.9200   30.6920 O.3   400  PLP400     -0.1145
     16  O3P       31.8570   48.2540   29.1450 O.3   400  PLP400     -0.1145
@<TRIPOS>BOND
     1     1    10   ar
     2     1     2   ar
     3    10     9   ar
     4    14    13    2
     5    12    11    1
     6    12    13    1
     7     3     2    1
     8     2     4   ar
     9     9    11    1
    10     9     6   ar
    11    16    13    1
    12    13    15    1
    13     4     6   ar
    14     4     5    1
    15     6     7    1
    16     8     7    2
