@<TRIPOS>MOLECULE
1vjt_NAD_A_1.pdb
 36 39 0 0 0
SMALL
GASTEIGER

@<TRIPOS>ATOM
      1  PA        63.4910    3.4770   11.6150 P.3   500  NAD500      0.2189
      2  O1A       62.3030    3.1150   10.8080 O.2   500  NAD500     -0.5170
      3  O2A       64.5370    2.4310   11.5180 O.3   500  NAD500     -0.4371
      4  O5B       64.0130    4.9290   11.1420 O.3   500  NAD500     -0.3112
      5  C5B       65.2960    5.4200   11.4580 C.3   500  NAD500      0.1813
      6  C4B       65.9490    5.8600   10.1600 C.3   500  NAD500      0.1821
      7  O4B       67.0920    6.6460   10.4380 O.3   500  NAD500     -0.3135
      8  C3B       66.4110    4.6670    9.3330 C.3   500  NAD500      0.2184
      9  O3B       65.9000    4.7480    8.0240 O.3   500  NAD500     -0.2174
     10  C2B       67.9170    4.7810    9.3160 C.3   500  NAD500      0.2570
     11  O2B       68.4400    4.3500    8.0830 O.3   500  NAD500     -0.2130
     12  C1B       68.1430    6.2700    9.5720 C.3   500  NAD500      0.3186
     13  N9A       69.4670    6.6220   10.1250 N.pl3 500  NAD500     -0.1439
     14  C8A       70.2440    5.8990   10.9930 C.3   500  NAD500      0.3377
     15  N7A       71.3760    6.5940   11.2230 N.2   500  NAD500     -0.2095
     16  C5A       71.3380    7.7450   10.5250 C.2   500  NAD500      0.2526
     17  C6A       72.2420    8.8050   10.4080 C.2   500  NAD500      0.4393
     18  N6A       73.5170    8.6030   10.7560 N.pl3 500  NAD500      0.2180
     19  N1A       71.9100    9.8790    9.5880 N.2   500  NAD500      0.0021
     20  C2A       70.7120    9.8830    8.9030 C.3   500  NAD500      0.5254
     21  N3A       69.8380    8.8160    9.0250 N.2   500  NAD500     -0.0055
     22  C4A       70.1400    7.7710    9.8250 C.2   500  NAD500      0.3518
     23  O3        63.0820    3.6970   13.1630 O.3   500  NAD500     -0.2703
     24  PN        61.7230    4.4390   13.6360 P.3   500  NAD500      0.2189
     25  O1N       60.7550    3.4480   14.1640 O.3   500  NAD500     -0.4371
     26  O2N       61.2790    5.3410   12.5590 O.2   500  NAD500     -0.5170
     27  O5D       62.3000    5.3480   14.8490 O.3   500  NAD500     -0.3112
     28  C5D       62.9430    6.5960   14.6620 C.3   500  NAD500      0.1813
     29  C4D       63.2490    7.2530   16.0090 C.3   500  NAD500      0.1797
     30  O4D       62.0950    7.9110   16.5190 O.3   500  NAD500     -0.3336
     31  C3D       63.6800    6.2400   17.0650 C.3   500  NAD500      0.2156
     32  O3D       64.7960    6.7090   17.7860 O.3   500  NAD500     -0.2176
     33  C2D       62.4720    6.0840   17.9690 C.3   500  NAD500      0.2298
     34  O2D       62.8480    5.8150   19.3030 O.3   500  NAD500     -0.2160
     35  C1D       61.7430    7.4170   17.8080 C.3   500  NAD500      0.2397
     36  N1N       60.2790    7.2530   17.9660 N.3   500  NAD500     -0.0972
@<TRIPOS>BOND
     1     9     8    1
     2    11    10    1
     3    20    21    1
     4    20    19    1
     5    21    22    2
     6    10     8    1
     7    10    12    1
     8     8     6    1
     9    12    13    1
    10    12     7    1
    11    19    17    2
    12    22    13    1
    13    22    16    1
    14    13    14    1
    15     6     7    1
    16     6     5    1
    17    17    16    1
    18    17    18    1
    19    16    15    2
    20     2     1    2
    21    14    15    1
    22     4     5    1
    23     4     1    1
    24     3     1    1
    25     1    23    1
    26    26    24    2
    27    23    24    1
    28    24    25    1
    29    24    27    1
    30    28    27    1
    31    28    29    1
    32    29    30    1
    33    29    31    1
    34    30    35    1
    35    31    32    1
    36    31    33    1
    37    35    36    1
    38    35    33    1
    39    33    34    1
