@<TRIPOS>MOLECULE
1vjy_460_A_1.pdb
 22 25 0 0 0
SMALL
GASTEIGER

@<TRIPOS>ATOM
      1  C1        10.4350   64.4240    4.9820 C.3   999  460999      0.0664
      2  C2        11.8830   64.6150    4.6530 C.2   999  460999      0.1087
      3  C3        12.4630   63.9310    3.5640 C.2   999  460999      0.0234
      4  C4        13.8400   64.1450    3.2930 C.2   999  460999     -0.0163
      5  C5        14.6020   65.0260    4.1070 C.3   999  460999      0.0863
      6  C6        13.9440   65.6800    5.1860 C.2   999  460999      0.1288
      7  N7        12.6020   65.4750    5.4500 N.2   999  460999     -0.4089
      8  C8        14.6390   66.6150    6.0950 C.2   999  460999      0.1181
      9  N9        14.4190   66.5460    7.4360 N.2   999  460999     -0.1496
     10  N10       15.1840   67.5170    7.9720 N.2   999  460999     -0.1505
     11  C12       15.8960   68.2180    7.0370 C.2   999  460999      0.1085
     12  C13       15.5820   67.6780    5.7960 C.3   999  460999      0.1394
     13  C14       16.1650   68.1850    4.5400 C.2   999  460999      0.1198
     14  C15       15.3930   68.3920    3.3680 C.2   999  460999      0.0299
     15  C16       16.0420   68.8870    2.2080 C.2   999  460999      0.0237
     16  C17       17.4170   69.1720    2.2040 C.2   999  460999      0.1070
     17  N18       18.0320   69.6550    1.0710 N.2   999  460999     -0.2419
     18  C19       19.3920   69.9150    1.1360 C.2   999  460999      0.0948
     19  C20       20.1620   69.7100    2.2950 C.2   999  460999      0.0020
     20  C21       19.4980   69.2120    3.4510 C.3   999  460999      0.0881
     21  C22       18.1180   68.9310    3.4440 C.2   999  460999      0.1305
     22  N23       17.5110   68.4510    4.5760 N.2   999  460999     -0.4079
@<TRIPOS>BOND
     1    17    18    1
     2    17    16    2
     3    18    19    2
     4    16    15    1
     5    16    21    1
     6    15    14    2
     7    19    20    1
     8     4     3    2
     9     4     5    1
    10    14    13    1
    11    21    20    1
    12    21    22    2
    13     3     2    1
    14     5     6    1
    15    13    22    2
    16    13    12    1
    17     2     1    1
    18     2     7    2
    19     6     7    2
    20     6     8    1
    21    12     8    1
    22    12    11    1
    23     8     9    2
    24    11    10    2
    25     9    10    1
