@<TRIPOS>MOLECULE
1vk5_CPS_A_1.pdb
 32 35 0 0 0
SMALL
GASTEIGER

@<TRIPOS>ATOM
      1  C1        38.7360   35.6520  -11.4370 C.3   200  CPS200      0.0026
      2  C2        38.5940   35.9160  -12.9650 C.3   200  CPS200      0.0004
      3  C3        37.1540   33.7800  -13.3050 C.3   200  CPS200      0.0330
      4  C4        36.8280   32.5390  -14.1730 C.3   200  CPS200      0.1519
      5  C5        36.7180   32.9120  -15.6670 C.3   200  CPS200      0.0282
      6  C6        38.0810   33.5520  -16.0550 C.3   200  CPS200      0.0048
      7  C7        37.9240   33.7280  -17.5720 C.3   200  CPS200      0.0002
      8  C8        37.1740   32.4430  -17.9990 C.3   200  CPS200      0.0001
      9  C9        36.7250   31.7510  -16.6580 C.3   200  CPS200      0.0024
     10  C10       35.4840   33.8380  -15.8950 C.3   200  CPS200      0.0025
     11  C11       37.4290   36.9330  -13.0920 C.3   200  CPS200      0.0000
     12  C12       40.0460   35.0230  -10.9680 C.3   200  CPS200      0.0329
     13  C13       41.2170   35.9340  -11.4240 C.3   200  CPS200      0.1520
     14  C14       41.2120   35.9550  -12.9730 C.3   200  CPS200      0.0330
     15  C15       39.9140   36.6310  -13.4630 C.3   200  CPS200      0.0050
     16  C16       39.9420   36.8090  -15.0140 C.3   200  CPS200      0.0330
     17  C17       39.6430   35.5440  -15.8290 C.3   200  CPS200      0.1519
     18  C18       38.3490   34.8540  -15.3200 C.3   200  CPS200      0.0306
     19  C19       38.3970   34.6110  -13.7940 C.3   200  CPS200      0.0050
     20  C20       35.3720   30.9660  -16.8410 C.3   200  CPS200      0.0002
     21  C21       34.8830   30.2810  -15.5430 C.3   200  CPS200      0.0000
     22  C22       35.4910   29.9350  -18.0020 C.3   200  CPS200      0.0041
     23  C23       36.4800   28.8260  -17.6510 C.3   200  CPS200      0.0514
     24  C24       36.7130   27.8190  -18.8040 C.3   200  CPS200      0.2256
     25  C25       35.2790   27.4440  -20.7020 C.3   200  CPS200      0.0913
     26  C26       34.0740   28.3390  -20.9910 C.3   200  CPS200      0.0189
     27  C27       33.8670   28.4520  -22.5150 C.3   200  CPS200      0.0015
     28  N1        35.4470   27.2820  -19.2580 N.3   200  CPS200     -0.1893
     29  O1        37.5940   26.7570  -18.3800 O.3   200  CPS200     -0.2037
     30  O2        42.4380   35.3660  -10.9810 O.3   200  CPS200     -0.2232
     31  O3        40.7250   34.5940  -15.7270 O.3   200  CPS200     -0.2232
     32  O4        37.8030   31.5110  -13.9420 O.3   200  CPS200     -0.2232
@<TRIPOS>BOND
     1    27    26    1
     2    26    25    1
     3    25    28    1
     4    28    24    1
     5    24    29    1
     6    24    23    1
     7    22    23    1
     8    22    20    1
     9     8     7    1
    10     8     9    1
    11     7     6    1
    12    20     9    1
    13    20    21    1
    14     9     5    1
    15     6     5    1
    16     6    18    1
    17    10     5    1
    18    17    31    1
    19    17    18    1
    20    17    16    1
    21     5     4    1
    22    18    19    1
    23    16    15    1
    24     4    32    1
    25     4     3    1
    26    19     3    1
    27    19     2    1
    28    15    14    1
    29    15     2    1
    30    11     2    1
    31    14    13    1
    32     2     1    1
    33     1    12    1
    34    13    30    1
    35    13    12    1
