@<TRIPOS>MOLECULE
1vk8_UNL_A_1.pdb
 12 7 0 0 0
SMALL
GASTEIGER

@<TRIPOS>ATOM
      1  O1        14.3500   18.6600   35.1110 O.3   400  UNL400      0.0000
      2  O2        13.6010   20.0690   34.5170 O.3   400  UNL400      0.0000
      3  O3        14.1720   21.5970   32.7860 O.3   400  UNL400      0.0000
      4  O4        15.6240   21.0540   34.4220 O.3   400  UNL400      0.0000
      5  O5        17.5540   20.7760   33.8280 O.3   400  UNL400      0.0000
      6  O6        17.6410   22.0940   33.3240 O.3   400  UNL400      0.0000
      7  O7        18.5020   19.7280   34.2680 O.3   400  UNL400      0.0000
      8  O8        18.1370   18.3090   34.8160 O.3   400  UNL400      0.0000
      9  O9        19.4450   17.1030   35.1110 O.3   400  UNL400      0.0000
     10  O10       16.7920   17.6360   35.3480 O.3   400  UNL400      0.0000
     11  O11       16.0310   18.9510   35.1610 O.3   400  UNL400      0.0000
     12  O12       14.0270   22.4860   30.5950 O.3   400  UNL400      0.0000
@<TRIPOS>BOND
     1     6     5    1
     2     5     7    1
     3     7     8    1
     4     2     1    1
     5     8    10    1
     6     1    11    1
     7    11    10    1
