@<TRIPOS>MOLECULE
1vk9_UNL_A_1.pdb
 29 1 0 0 0
SMALL
GASTEIGER

@<TRIPOS>ATOM
      1  O1        10.1030   67.2890   43.4280 O.3   201  UNL201      0.0000
      2  O2         7.3400   68.3490   44.0910 O.3   201  UNL201      0.0000
      3  O3        11.7830   65.5970   43.9500 O.3   201  UNL201      0.0000
      4  O4        13.0510   64.9460   42.3750 O.3   201  UNL201      0.0000
      5  O5        15.0330   65.2270   43.7050 O.3   201  UNL201      0.0000
      6  O6        13.7320   67.0340   44.4740 O.3   201  UNL201      0.0000
      7  O7         9.7140   69.2200   42.7830 O.3   201  UNL201      0.0000
      8  O8         8.1380   70.9070   45.3720 O.3   201  UNL201      0.0000
      9  O9         7.8530   69.0790   46.3050 O.3   201  UNL201      0.0000
     10  O10        9.1300   67.1320   47.3790 O.3   201  UNL201      0.0000
     11  O11        9.8980   68.8860   44.8840 O.3   201  UNL201      0.0000
     12  O12        7.3850   66.7020   43.1440 O.3   201  UNL201      0.0000
     13  O13        2.8260   69.4150   43.0590 O.3   201  UNL201      0.0000
     14  O14        5.5010   68.3990   42.1850 O.3   201  UNL201      0.0000
     15  O15        2.9020   67.3170   41.7680 O.3   201  UNL201      0.0000
     16  O16        2.7470   63.3830   42.1200 O.3   201  UNL201      0.0000
     17  O17        1.4580   64.4950   40.2260 O.3   201  UNL201      0.0000
     18  O18        1.4060   62.0080   40.5170 O.3   201  UNL201      0.0000
     19  O19        7.4930   66.1390   45.2450 O.3   201  UNL201      0.0000
     20  O20       -0.2270   62.7910   39.0960 O.3   201  UNL201      0.0000
     21  O21        2.8700   65.4220   42.1590 O.3   201  UNL201      0.0000
     22  O22       11.8430   73.4450   41.2940 O.3   201  UNL201      0.0000
     23  O23        9.1280   74.2360   40.8580 O.3   201  UNL201      0.0000
     24  O24       11.1650   71.2630   37.8020 O.3   201  UNL201      0.0000
     25  O25       10.8410   70.8870   40.6710 O.3   201  UNL201      0.0000
     26  O26       13.3380   68.7250   36.8640 O.3   201  UNL201      0.0000
     27  O27       12.4620   70.4680   34.7150 O.3   201  UNL201      0.0000
     28  O28       -0.6920   61.3190   38.9200 O.3   201  UNL201      0.0000
     29  O29       10.2000   72.4510   40.0550 O.3   201  UNL201      0.0000
@<TRIPOS>BOND
     1    28    20    1
