@<TRIPOS>MOLECULE
1vkj_A3P_A_1.pdb
 27 29 0 0 0
SMALL
GASTEIGER

@<TRIPOS>ATOM
      1  P1        18.9850   85.5140   28.6730 P.3   602  A3P602      0.5327
      2  O1P       19.0000   86.0600   30.0970 O.3   602  A3P602     -0.1145
      3  O2P       19.6970   84.1740   28.6080 O.3   602  A3P602     -0.1145
      4  O3P       17.6240   85.4170   28.0210 O.2   602  A3P602     -0.2224
      5  P2        20.8180   88.6690   22.5970 P.3   602  A3P602      0.5327
      6  O4P       22.1350   89.1370   21.9970 O.2   602  A3P602     -0.2224
      7  O5P       19.7360   89.7240   22.4470 O.3   602  A3P602     -0.1145
      8  O6P       20.3500   87.3010   22.1140 O.3   602  A3P602     -0.1145
      9  O5'       21.1260   88.5330   24.2000 O.3   602  A3P602     -0.2675
     10  C5'       20.0680   88.1380   25.0920 C.3   602  A3P602      0.1859
     11  C4'       20.4570   88.4020   26.5140 C.3   602  A3P602      0.1796
     12  O4'       20.4640   89.8180   26.7630 O.3   602  A3P602     -0.3136
     13  C3'       19.5210   87.8500   27.5760 C.3   602  A3P602      0.1928
     14  O3'       19.9300   86.5220   27.8410 O.3   602  A3P602     -0.2673
     15  C2'       19.7730   88.7740   28.7720 C.3   602  A3P602      0.2543
     16  O2'       20.6440   88.1730   29.6860 O.3   602  A3P602     -0.2131
     17  C1'       20.4720   89.9970   28.1510 C.3   602  A3P602      0.3185
     18  N9        19.8770   91.3010   28.4570 N.pl3 602  A3P602     -0.1439
     19  C8        20.5720   92.4700   28.6470 C.3   602  A3P602      0.3377
     20  N7        19.8140   93.5010   28.9460 N.2   602  A3P602     -0.2095
     21  C5        18.5370   92.9750   28.9510 C.2   602  A3P602      0.2526
     22  C6        17.2990   93.5530   29.2310 C.2   602  A3P602      0.4393
     23  N6        17.1690   94.8130   29.6470 N.pl3 602  A3P602      0.2180
     24  N1        16.1910   92.7810   29.0990 N.2   602  A3P602      0.0021
     25  C2        16.3560   91.4960   28.7640 C.3   602  A3P602      0.5254
     26  N3        17.4910   90.8140   28.5450 N.2   602  A3P602     -0.0055
     27  C4        18.5550   91.6260   28.6360 C.2   602  A3P602      0.3518
@<TRIPOS>BOND
     1     6     5    2
     2     8     5    1
     3     7     5    1
     4     5     9    1
     5     9    10    1
     6    10    11    1
     7    11    12    1
     8    11    13    1
     9    12    17    1
    10    13    14    1
    11    13    15    1
    12    14     1    1
    13     4     1    2
    14    17    18    1
    15    17    15    1
    16    18    27    1
    17    18    19    1
    18    26    27    2
    19    26    25    1
    20     3     1    1
    21    27    21    1
    22    19    20    1
    23     1     2    1
    24    25    24    1
    25    15    16    1
    26    20    21    2
    27    21    22    1
    28    24    22    2
    29    22    23    1
