@<TRIPOS>MOLECULE
1vko_NAD_A_1.pdb
 44 48 0 0 0
SMALL
GASTEIGER

@<TRIPOS>ATOM
      1  PA        19.2440   56.4360   46.0710 P.3   601  NAD601      0.2189
      2  O1A       19.0510   57.4090   45.0090 O.2   601  NAD601     -0.5170
      3  O2A       20.0640   57.0500   47.1290 O.3   601  NAD601     -0.4371
      4  O5B       19.8950   55.1460   45.4170 O.3   601  NAD601     -0.3112
      5  C5B       19.7500   54.8970   44.0510 C.3   601  NAD601      0.1813
      6  C4B       21.1330   54.6260   43.4890 C.3   601  NAD601      0.1821
      7  O4B       20.9990   53.7670   42.3790 O.3   601  NAD601     -0.3135
      8  C3B       21.8050   55.8740   42.9910 C.3   601  NAD601      0.2184
      9  O3B       23.1770   55.6750   43.2930 O.3   601  NAD601     -0.2174
     10  C2B       21.6990   55.8320   41.4930 C.3   601  NAD601      0.2570
     11  O2B       22.9860   56.2330   41.0270 O.3   601  NAD601     -0.2130
     12  C1B       21.5500   54.3370   41.2280 C.3   601  NAD601      0.3186
     13  N9A       20.8910   53.8680   39.9820 N.pl3 601  NAD601     -0.1439
     14  C8A       19.8270   54.3780   39.3020 C.3   601  NAD601      0.3377
     15  N7A       19.6140   53.6100   38.2100 N.2   601  NAD601     -0.2095
     16  C5A       20.5130   52.6100   38.1530 C.2   601  NAD601      0.2526
     17  C6A       20.7700   51.5730   37.2390 C.2   601  NAD601      0.4393
     18  N6A       20.0890   51.4080   36.0930 N.pl3 601  NAD601      0.2180
     19  N1A       21.8190   50.7250   37.4850 N.2   601  NAD601      0.0021
     20  C2A       22.6180   50.9020   38.5770 C.3   601  NAD601      0.5254
     21  N3A       22.3770   51.9360   39.4230 N.2   601  NAD601     -0.0055
     22  C4A       21.3410   52.7830   39.2440 C.2   601  NAD601      0.3518
     23  O3        17.8360   55.8790   46.6500 O.3   601  NAD601     -0.2703
     24  PN        17.8190   54.9240   47.9240 P.3   601  NAD601      0.2189
     25  O1N       19.1420   54.2480   47.9810 O.2   601  NAD601     -0.5170
     26  O2N       17.3750   55.7260   49.0670 O.3   601  NAD601     -0.4371
     27  O5D       16.7840   53.7270   47.5680 O.3   601  NAD601     -0.3112
     28  C5D       16.8490   53.0530   46.3230 C.3   601  NAD601      0.1813
     29  C4D       15.5410   52.3490   45.9150 C.3   601  NAD601      0.1799
     30  O4D       15.0240   51.6080   46.9930 O.3   601  NAD601     -0.3327
     31  C3D       14.4270   53.3030   45.4680 C.3   601  NAD601      0.2158
     32  O3D       13.7700   52.7380   44.3680 O.3   601  NAD601     -0.2175
     33  C2D       13.4310   53.2280   46.5970 C.3   601  NAD601      0.2309
     34  O2D       12.0740   53.4100   46.2250 O.3   601  NAD601     -0.2158
     35  C1D       13.6300   51.8120   47.0640 C.3   601  NAD601      0.2263
     36  N1N       13.0350   51.7520   48.3940 N.pl3 601  NAD601     -0.2787
     37  C2N       13.5430   52.5130   49.4000 C.3   601  NAD601      0.1244
     38  C3N       12.9450   52.4600   50.6390 C.2   601  NAD601      0.0544
     39  C7N       13.7460   52.9910   51.7670 C.2   601  NAD601      0.2818
     40  O7N       14.9770   53.5890   51.4050 O.2   601  NAD601     -0.2670
     41  N7N       13.3020   52.8660   53.0240 N.am  601  NAD601     -0.0839
     42  C4N       11.8380   51.6230   50.8790 C.2   601  NAD601      0.0033
     43  C5N       11.3280   50.8750   49.8410 C.2   601  NAD601      0.0157
     44  C6N       11.9350   50.9510   48.5780 C.2   601  NAD601      0.0633
@<TRIPOS>BOND
     1    18    17    1
     2    17    19    2
     3    17    16    1
     4    19    20    1
     5    16    15    2
     6    16    22    1
     7    15    14    1
     8    20    21    1
     9    22    21    2
    10    22    13    1
    11    14    13    1
    12    13    12    1
    13    11    10    1
    14    12    10    1
    15    12     7    1
    16    10     8    1
    17     7     6    1
    18     8     9    1
    19     8     6    1
    20     6     5    1
    21     5     4    1
    22    32    31    1
    23     2     1    2
    24     4     1    1
    25    31    29    1
    26    31    33    1
    27    29    28    1
    28    29    30    1
    29     1    23    1
    30     1     3    1
    31    34    33    1
    32    28    27    1
    33    33    35    1
    34    23    24    1
    35    30    35    1
    36    35    36    1
    37    27    24    1
    38    24    25    2
    39    24    26    1
    40    36    44    1
    41    36    37    1
    42    44    43    2
    43    37    38    1
    44    43    42    1
    45    38    42    2
    46    38    39    1
    47    40    39    2
    48    39    41   am
