@<TRIPOS>MOLECULE
1vl0_NAI_A_1.pdb
 44 48 0 0 0
SMALL
GASTEIGER

@<TRIPOS>ATOM
      1  PA        26.0970   19.5360   19.4500 P.3   300  NAI300      0.2189
      2  O1A       27.1660   18.5140   19.1820 O.2   300  NAI300     -0.5170
      3  O2A       25.8820   19.8320   20.9140 O.3   300  NAI300     -0.4371
      4  O5B       24.7870   19.0460   18.6630 O.3   300  NAI300     -0.3112
      5  C5B       24.9270   18.7250   17.2930 C.3   300  NAI300      0.1813
      6  C4B       23.7530   17.8840   16.8090 C.3   300  NAI300      0.1821
      7  O4B       24.0870   17.2670   15.5670 O.3   300  NAI300     -0.3135
      8  C3B       23.3600   16.7160   17.7110 C.3   300  NAI300      0.2184
      9  O3B       22.0810   16.9340   18.2760 O.3   300  NAI300     -0.2174
     10  C2B       23.3810   15.5260   16.7400 C.3   300  NAI300      0.2570
     11  O2B       22.4980   14.4600   17.0630 O.3   300  NAI300     -0.2130
     12  C1B       23.0970   16.2660   15.4290 C.3   300  NAI300      0.3186
     13  N9A       23.1760   15.5120   14.1640 N.pl3 300  NAI300     -0.1439
     14  C8A       24.2000   14.6820   13.8020 C.3   300  NAI300      0.3377
     15  N7A       23.9080   14.1500   12.5980 N.2   300  NAI300     -0.2095
     16  C5A       22.7040   14.5980   12.1740 C.2   300  NAI300      0.2526
     17  C6A       21.9660   14.3440   11.0160 C.2   300  NAI300      0.4393
     18  N6A       22.4110   13.5100   10.0890 N.pl3 300  NAI300      0.2180
     19  N1A       20.7470   14.9600   10.8470 N.2   300  NAI300      0.0021
     20  C2A       20.2680   15.8380   11.8250 C.3   300  NAI300      0.5254
     21  N3A       20.9760   16.0670   12.9780 N.2   300  NAI300     -0.0055
     22  C4A       22.2050   15.4670   13.1580 C.2   300  NAI300      0.3518
     23  O3        26.4520   20.8540   18.6080 O.3   300  NAI300     -0.2703
     24  PN        26.7390   22.3400   19.1840 P.3   300  NAI300      0.2189
     25  O1N       25.4780   23.0860   19.3590 O.2   300  NAI300     -0.5170
     26  O2N       27.8250   22.2450   20.1850 O.3   300  NAI300     -0.4371
     27  O5D       27.2890   23.0030   17.8140 O.3   300  NAI300     -0.3112
     28  C5D       26.4050   23.8050   17.0420 C.3   300  NAI300      0.1813
     29  C4D       27.1330   24.3260   15.8310 C.3   300  NAI300      0.1799
     30  O4D       28.2910   25.1030   16.2050 O.3   300  NAI300     -0.3327
     31  C3D       27.6120   23.2060   14.9090 C.3   300  NAI300      0.2158
     32  O3D       27.1780   23.5840   13.6330 O.3   300  NAI300     -0.2175
     33  C2D       29.1360   23.2040   15.0250 C.3   300  NAI300      0.2309
     34  O2D       29.8850   22.8270   13.8740 O.3   300  NAI300     -0.2158
     35  C1D       29.3850   24.6710   15.3940 C.3   300  NAI300      0.2263
     36  N1N       30.6090   24.8860   16.1630 N.pl3 300  NAI300     -0.2787
     37  C2N       30.6520   24.4710   17.4750 C.3   300  NAI300      0.1244
     38  C3N       31.8190   24.7090   18.1990 C.2   300  NAI300      0.0544
     39  C7N       32.0620   23.9880   19.4910 C.2   300  NAI300      0.2818
     40  O7N       33.0800   24.4800   20.3210 O.2   300  NAI300     -0.2670
     41  N7N       31.3260   22.9200   19.8240 N.am  300  NAI300     -0.0839
     42  C4N       32.9020   25.3590   17.5910 C.2   300  NAI300      0.0033
     43  C5N       32.8430   25.7720   16.2600 C.2   300  NAI300      0.0157
     44  C6N       31.6640   25.5130   15.5680 C.2   300  NAI300      0.0633
@<TRIPOS>BOND
     1    18    17    1
     2    19    17    2
     3    19    20    1
     4    17    16    1
     5    20    21    1
     6    16    15    2
     7    16    22    1
     8    15    14    1
     9    21    22    2
    10    22    13    1
    11    32    31    1
    12    14    13    1
    13    34    33    1
    14    13    12    1
    15    31    33    1
    16    31    29    1
    17    33    35    1
    18    35    36    1
    19    35    30    1
    20    12     7    1
    21    12    10    1
    22     7     6    1
    23    44    36    1
    24    44    43    2
    25    29    30    1
    26    29    28    1
    27    36    37    1
    28    43    42    1
    29    10    11    1
    30    10     8    1
    31     6     5    1
    32     6     8    1
    33    28    27    1
    34     5     4    1
    35    37    38    1
    36    42    38    2
    37     8     9    1
    38    27    24    1
    39    38    39    1
    40    23    24    1
    41    23     1    1
    42     4     1    1
    43     2     1    2
    44    24    25    2
    45    24    26    1
    46     1     3    1
    47    39    41   am
    48    39    40    2
