@<TRIPOS>MOLECULE
1vl8_NAP_A_1.pdb
 48 52 0 0 0
SMALL
GASTEIGER

@<TRIPOS>ATOM
      1  PA         3.8370   35.3060    5.1290 P.3   274  NAP274      0.2189
      2  O1A        3.6510   36.6800    5.6070 O.3   274  NAP274     -0.4371
      3  O2A        2.8110   34.7570    4.1990 O.2   274  NAP274     -0.5170
      4  O5B        3.9960   34.2820    6.3920 O.3   274  NAP274     -0.3112
      5  C5B        4.6720   34.6350    7.5960 C.3   274  NAP274      0.1813
      6  C4B        4.2240   33.6700    8.6670 C.3   274  NAP274      0.1820
      7  O4B        4.8820   33.9910    9.8740 O.3   274  NAP274     -0.3136
      8  C3B        2.7100   33.7320    8.9640 C.3   274  NAP274      0.2157
      9  O3B        2.2300   32.4450    9.3770 O.3   274  NAP274     -0.2175
     10  C2B        2.6980   34.7330   10.1070 C.3   274  NAP274      0.2314
     11  O2B        1.5610   34.6360   10.9070 O.3   274  NAP274     -0.2630
     12  C1B        3.9340   34.2970   10.8750 C.3   274  NAP274      0.3158
     13  N9A        4.5340   35.2890   11.7440 N.pl3 274  NAP274     -0.1439
     14  C8A        5.0330   36.5570   11.4710 C.3   274  NAP274      0.3377
     15  N7A        5.5060   37.0840   12.6250 N.2   274  NAP274     -0.2095
     16  C5A        5.3450   36.1630   13.6110 C.2   274  NAP274      0.2526
     17  C6A        5.6280   36.1640   14.9780 C.2   274  NAP274      0.4393
     18  N6A        6.0730   37.2350   15.6110 N.pl3 274  NAP274      0.2180
     19  N1A        5.2980   35.0390   15.6860 N.2   274  NAP274      0.0021
     20  C2A        4.7010   33.9540   15.1030 C.3   274  NAP274      0.5254
     21  N3A        4.3650   33.9360   13.7700 N.2   274  NAP274     -0.0055
     22  C4A        4.7140   35.0320   13.0660 C.2   274  NAP274      0.3518
     23  O3         5.2980   35.3110    4.4190 O.3   274  NAP274     -0.2703
     24  PN         6.1080   34.0230    3.8280 P.3   274  NAP274      0.2189
     25  O1N        6.7940   34.5050    2.5890 O.2   274  NAP274     -0.5170
     26  O2N        5.2760   32.7820    3.8550 O.3   274  NAP274     -0.4371
     27  O5D        7.1970   33.8840    5.0280 O.3   274  NAP274     -0.3112
     28  C5D        7.5840   32.6500    5.5930 C.3   274  NAP274      0.1813
     29  C4D        9.0860   32.6100    5.8450 C.3   274  NAP274      0.1799
     30  O4D        9.7500   32.4470    4.5860 O.3   274  NAP274     -0.3327
     31  C3D        9.6820   33.8500    6.5330 C.3   274  NAP274      0.2158
     32  O3D       10.6940   33.4540    7.4560 O.3   274  NAP274     -0.2175
     33  C2D       10.2980   34.6230    5.3910 C.3   274  NAP274      0.2309
     34  O2D       11.3230   35.5000    5.8170 O.3   274  NAP274     -0.2158
     35  C1D       10.7880   33.4190    4.5810 C.3   274  NAP274      0.2263
     36  N1N       11.1390   33.6730    3.2040 N.pl3 274  NAP274     -0.2787
     37  C2N       10.1800   34.0010    2.2960 C.3   274  NAP274      0.1244
     38  C3N       10.5210   34.1960    0.9440 C.2   274  NAP274      0.0544
     39  C7N        9.4850   34.5090   -0.1170 C.2   274  NAP274      0.2818
     40  O7N        9.9070   34.8150   -1.4210 O.2   274  NAP274     -0.2670
     41  N7N        8.2020   34.5270    0.2300 N.am  274  NAP274     -0.0839
     42  C4N       11.8470   34.1120    0.5600 C.2   274  NAP274      0.0033
     43  C5N       12.7840   33.7720    1.5130 C.2   274  NAP274      0.0157
     44  C6N       12.4240   33.5440    2.8330 C.2   274  NAP274      0.0633
     45  P2B        0.9670   35.8620   11.8470 P.3   274  NAP274      0.5328
     46  O1X       -0.4720   35.3590   12.0810 O.3   274  NAP274     -0.1145
     47  O2X        1.1760   37.1290   11.0760 O.2   274  NAP274     -0.2224
     48  O3X        1.8250   35.8550   13.1240 O.3   274  NAP274     -0.1145
@<TRIPOS>BOND
     1    40    39    2
     2    39    41   am
     3    39    38    1
     4    42    38    2
     5    42    43    1
     6    38    37    1
     7    43    44    2
     8    37    36    1
     9    25    24    2
    10    44    36    1
    11    36    35    1
    12    24    26    1
    13    24    23    1
    14    24    27    1
    15     3     1    2
    16    23     1    1
    17    35    30    1
    18    35    33    1
    19    30    29    1
    20    27    28    1
    21     1     2    1
    22     1     4    1
    23    33    34    1
    24    33    31    1
    25    28    29    1
    26    29    31    1
    27     4     5    1
    28    31    32    1
    29     5     6    1
    30     6     8    1
    31     6     7    1
    32     8     9    1
    33     8    10    1
    34     7    12    1
    35    10    12    1
    36    10    11    1
    37    12    13    1
    38    11    45    1
    39    47    45    2
    40    14    13    1
    41    14    15    1
    42    13    22    1
    43    45    46    1
    44    45    48    1
    45    15    16    2
    46    22    16    1
    47    22    21    2
    48    16    17    1
    49    21    20    1
    50    17    18    1
    51    17    19    2
    52    20    19    1
