@<TRIPOS>MOLECULE
1vlb_PCD_A_1.pdb
 48 53 0 0 0
SMALL
GASTEIGER

@<TRIPOS>ATOM
      1  N1        57.2160  -24.3240   23.3020 N.am  921  PCD921      0.0000
      2  C2        58.6150  -24.4650   23.1640 C.1   921  PCD921      0.0000
      3  N3        59.1970  -25.4500   23.9500 N.2   921  PCD921      0.0000
      4  C4        58.5380  -26.1330   24.8040 C.2   921  PCD921      0.0000
      5  C5        57.0450  -25.9450   25.0250 C.2   921  PCD921      0.0000
      6  C6        56.4770  -25.0770   24.1690 C.2   921  PCD921      0.0000
      7  O2        59.2580  -23.7540   22.3730 O.2   921  PCD921      0.0000
      8  N4        59.0690  -27.0730   25.6550 N.pl3 921  PCD921      0.0000
      9  C1'       56.5350  -23.3850   22.4060 C.3   921  PCD921      0.0000
     10  C2D       55.5910  -24.1280   21.3900 C.3   921  PCD921      0.0000
     11  O2'       56.2460  -24.4820   20.2220 O.3   921  PCD921      0.0000
     12  C3'       54.5460  -23.0360   21.1680 C.3   921  PCD921      0.0000
     13  C4D       54.3170  -22.4130   22.6280 C.3   921  PCD921      0.0000
     14  O4D       55.6530  -22.5930   23.2600 O.3   921  PCD921      0.0000
     15  O3'       54.9750  -22.0700   20.2090 O.3   921  PCD921      0.0000
     16  C5'       53.1770  -22.8800   23.4050 C.3   921  PCD921      0.0000
     17  O5'       53.3120  -24.4080   23.2980 O.3   921  PCD921      0.0000
     18  PA        52.2430  -25.2890   24.1310 P.3   921  PCD921      0.0000
     19  O1A       52.2930  -26.6850   23.5290 O.2   921  PCD921     -0.5000
     20  O2A       52.4950  -25.1520   25.5640 O.3   921  PCD921     -0.5000
     21  O3A       50.8370  -24.5930   23.8750 O.3   921  PCD921      0.0000
     22  PB        49.8250  -24.6960   22.5710 P.3   921  PCD921      0.0000
     23  O1B       48.9900  -25.9080   22.7990 O.3   921  PCD921     -0.5000
     24  O2B       50.5600  -24.4840   21.3090 O.2   921  PCD921     -0.5000
     25  O3B       48.9730  -23.3290   22.8320 O.3   921  PCD921      0.0000
     26  C10       47.8910  -23.2910   23.7350 C.3   921  PCD921      0.0000
     27  C9'       48.2690  -22.3290   24.9290 C.3   921  PCD921      0.0000
     28  C8'       46.9990  -22.0840   25.6920 C.2   921  PCD921      0.0000
     29  S8'       46.0830  -23.4590   26.3000 S.3   921  PCD921      0.0000
     30  C7'       46.5740  -20.8470   25.9700 C.2   921  PCD921      0.0000
     31  S7'       45.0150  -20.5560   26.8180 S.3   921  PCD921      0.0000
     32  C6'       47.3770  -19.6010   25.8000 C.3   921  PCD921      0.0000
     33  C7        48.8440  -20.0920   25.4470 C.3   921  PCD921      0.0000
     34  O9'       48.8170  -21.0910   24.4140 O.3   921  PCD921      0.0000
     35  N5'       46.8570  -18.7730   24.6980 N.2   921  PCD921      0.0000
     36  C4A       47.8500  -17.7830   24.2310 C.2   921  PCD921      0.0000
     37  N8'       49.7280  -19.0350   25.0960 N.2   921  PCD921      0.0000
     38  C4B       49.2000  -17.9780   24.4460 C.1   921  PCD921      0.0000
     39  N1'       50.1490  -17.0460   24.0530 N.2   921  PCD921      0.0000
     40  C2'       49.8300  -16.0330   23.2780 C.1   921  PCD921      0.0000
     41  N2'       50.6550  -15.0760   22.7080 N.pl3 921  PCD921      0.0000
     42  N3'       48.4380  -15.8340   22.9710 N.2   921  PCD921      0.0000
     43  C4'       47.4660  -16.6300   23.5510 C.1   921  PCD921      0.0000
     44  O4'       46.2550  -16.3430   23.2420 O.2   921  PCD921      0.0000
     45 MO         43.8180  -22.6420   26.9530 Mo    921  PCD921      0.0000
     46  OR1       42.8290  -21.8500   28.2190 O.3   921  PCD921      0.0000
     47  OM2       43.7750  -24.4460   27.7900 O.3   921  PCD921      0.0000
     48  OM1       42.8340  -22.7690   25.5230 O.3   921  PCD921      0.0000
@<TRIPOS>BOND
     1    15    12    1
     2    11    10    1
     3    12    10    1
     4    12    13    1
     5    24    22    2
     6    10     9    1
     7     7     2    2
     8     9    14    1
     9     9     1    1
    10    22    23    1
    11    22    25    1
    12    22    21    1
    13    13    14    1
    14    13    16    1
    15    41    40    1
    16    25    26    1
    17    42    40    2
    18    42    43    2
    19     2     1   am
    20     2     3    2
    21    44    43    2
    22    40    39    2
    23    17    16    1
    24    17    18    1
    25     1     6    1
    26    19    18    2
    27    43    36    1
    28    26    27    1
    29    21    18    1
    30     3     4    2
    31    39    38    2
    32    18    20    1
    33     6     5    2
    34    36    38    1
    35    36    35    2
    36    34    27    1
    37    34    33    1
    38    38    37    2
    39    35    32    1
    40     4     5    1
    41     4     8    1
    42    27    28    1
    43    37    33    1
    44    33    32    1
    45    48    45    1
    46    28    30    2
    47    28    29    1
    48    32    30    1
    49    30    31    1
    50    29    45    1
    51    31    45    1
    52    45    47    1
    53    45    46    1
