@<TRIPOS>MOLECULE
1vld_MGD_M_1.pdb
 47 52 0 0 0
SMALL
GASTEIGER

@<TRIPOS>ATOM
      1  PB       -48.7670   -3.1530   33.0850 P.3   900  MGD900      0.2189
      2  O1B      -49.0070   -4.2890   32.1420 O.2   900  MGD900     -0.5170
      3  O2B      -47.8990   -3.4140   34.2810 O.3   900  MGD900     -0.4371
      4  O3B      -48.0890   -1.8980   32.3400 O.3   900  MGD900     -0.2703
      5  O3A      -46.5720    0.4320   32.5000 O.3   900  MGD900     -0.3112
      6  PA       -47.9530   -0.2930   32.6830 P.3   900  MGD900      0.2189
      7  O1A      -48.9320    0.4230   33.6050 O.2   900  MGD900     -0.5170
      8  O2A      -47.2400   -0.9030   33.8560 O.3   900  MGD900     -0.4371
      9  O5'      -50.2020   -2.5310   33.6020 O.3   900  MGD900     -0.3112
     10  C5'      -51.4800   -3.0890   33.0970 C.3   900  MGD900      0.1813
     11  C4'      -52.4770   -3.1470   34.2540 C.3   900  MGD900      0.1799
     12  O4'      -53.6300   -3.7220   33.5940 O.3   900  MGD900     -0.3326
     13  C3'      -52.0700   -4.1600   35.3550 C.3   900  MGD900      0.2158
     14  O3'      -52.2660   -3.5520   36.6390 O.3   900  MGD900     -0.2175
     15  C2'      -53.0030   -5.3910   35.1460 C.3   900  MGD900      0.2310
     16  O2'      -53.2830   -6.1710   36.3150 O.3   900  MGD900     -0.2158
     17  C1'      -54.2230   -4.7650   34.4260 C.3   900  MGD900      0.2293
     18  N9       -54.8950   -5.6490   33.4880 N.pl3 900  MGD900     -0.2354
     19  C8       -54.3030   -6.4900   32.5210 C.3   900  MGD900      0.2246
     20  N7       -55.1950   -7.1620   31.8140 N.2   900  MGD900     -0.2322
     21  C5       -56.4330   -6.7590   32.3220 C.2   900  MGD900      0.2182
     22  C6       -57.7730   -7.1360   31.9570 C.1   900  MGD900      0.2372
     23  O6       -58.1130   -7.9550   31.0490 O.2   900  MGD900     -0.2069
     24  N1       -58.7920   -6.4890   32.7310 N.2   900  MGD900     -0.2485
     25  C2       -58.4850   -5.5620   33.7620 C.1   900  MGD900      0.2531
     26  N2       -59.5410   -4.9990   34.4430 N.pl3 900  MGD900     -0.0226
     27  N3       -57.2360   -5.1970   34.1130 N.2   900  MGD900     -0.3074
     28  C4       -56.2830   -5.8330   33.3550 C.2   900  MGD900      0.2300
     29  C10      -45.5640   -0.1740   31.6340 C.3   900  MGD900      0.1798
     30  C11      -44.7310    1.0030   31.2420 C.3   900  MGD900      0.1623
     31  O11      -43.6210    1.0570   32.2500 O.3   900  MGD900     -0.3309
     32  C12      -44.0620    0.8070   29.8810 C.3   900  MGD900      0.1141
     33  S12      -44.7810    0.0090   28.4360 S.3   900  MGD900     -0.0753
     34  C13      -42.7990    1.2210   29.6290 C.2   900  MGD900      0.0309
     35  S13      -42.3260    0.8140   28.0720 S.2   900  MGD900     -0.0569
     36  C14      -41.9150    1.9290   30.6560 C.3   900  MGD900      0.1817
     37  N15      -40.7200    1.0230   30.8740 N.2   900  MGD900     -0.2414
     38  C16      -39.8630    1.5950   31.9260 C.2   900  MGD900      0.2467
     39  C17      -38.4710    1.3630   31.9220 C.1   900  MGD900      0.2441
     40  O17      -37.8070    0.8530   30.9570 O.2   900  MGD900     -0.2063
     41  N18      -37.7900    1.7470   33.1400 N.2   900  MGD900     -0.2474
     42  C19      -38.4460    2.3080   34.2420 C.1   900  MGD900      0.2608
     43  N19      -37.7280    2.6480   35.3630 N.pl3 900  MGD900     -0.0220
     44  N20      -39.7670    2.5410   34.2450 N.2   900  MGD900     -0.2682
     45  C21      -40.4540    2.1820   33.0750 C.1   900  MGD900      0.1293
     46  N22      -41.8280    2.4570   33.1130 N.2   900  MGD900     -0.1763
     47  C23      -42.7370    2.1800   31.9530 C.3   900  MGD900      0.2567
@<TRIPOS>BOND
     1    35    34    2
     2    33    32    1
     3    34    32    1
     4    34    36    1
     5    32    30    1
     6    36    37    1
     7    36    47    1
     8    37    38    2
     9    40    39    2
    10    23    22    2
    11    30    29    1
    12    30    31    1
    13    29     5    1
    14    20    21    2
    15    20    19    1
    16    39    38    1
    17    39    41    2
    18    38    45    1
    19    47    31    1
    20    47    46    1
    21    22    21    1
    22    22    24    2
    23     2     1    2
    24    21    28    1
    25     4     6    1
    26     4     1    1
    27     5     6    1
    28    19    18    1
    29     6     7    2
    30     6     8    1
    31    24    25    2
    32    45    46    2
    33    45    44    2
    34     1     9    1
    35     1     3    1
    36    10     9    1
    37    10    11    1
    38    41    42    2
    39    28    18    1
    40    28    27    2
    41    18    17    1
    42    12    11    1
    43    12    17    1
    44    25    27    2
    45    25    26    1
    46    42    44    2
    47    42    43    1
    48    11    13    1
    49    17    15    1
    50    15    13    1
    51    15    16    1
    52    13    14    1
