@<TRIPOS>MOLECULE
1vle_MGD_M_1.pdb
 47 52 0 0 0
SMALL
GASTEIGER

@<TRIPOS>ATOM
      1  PB       -48.6650   -3.5080   32.9630 P.3   900  MGD900      0.2189
      2  O1B      -48.8400   -4.0680   31.5830 O.2   900  MGD900     -0.5170
      3  O2B      -48.0510   -4.4330   33.9870 O.3   900  MGD900     -0.4371
      4  O3B      -47.7270   -2.2270   33.0600 O.3   900  MGD900     -0.2703
      5  O3A      -46.6290    0.0360   31.8000 O.3   900  MGD900     -0.3109
      6  PA       -47.8580   -0.7760   32.3350 P.3   900  MGD900      0.2189
      7  O1A      -49.0890    0.0350   32.5950 O.2   900  MGD900     -0.5170
      8  O2A      -47.3080   -0.3650   33.6480 O.3   900  MGD900     -0.4371
      9  O5'      -50.0740   -3.0560   33.6100 O.3   900  MGD900     -0.3112
     10  C5'      -51.3510   -3.3200   32.9290 C.3   900  MGD900      0.1813
     11  C4'      -52.3320   -3.3880   34.1030 C.3   900  MGD900      0.1799
     12  O4'      -53.5540   -3.8190   33.4510 O.3   900  MGD900     -0.3326
     13  C3'      -51.9430   -4.4590   35.1750 C.3   900  MGD900      0.2158
     14  O3'      -51.9540   -3.8750   36.5220 O.3   900  MGD900     -0.2175
     15  C2'      -52.9840   -5.5840   34.9840 C.3   900  MGD900      0.2310
     16  O2'      -53.3530   -6.3380   36.1450 O.3   900  MGD900     -0.2158
     17  C1'      -54.1630   -4.8980   34.2270 C.3   900  MGD900      0.2293
     18  N9       -54.8020   -5.8100   33.2830 N.pl3 900  MGD900     -0.2354
     19  C8       -54.1830   -6.6310   32.3230 C.3   900  MGD900      0.2246
     20  N7       -55.0420   -7.3480   31.6260 N.2   900  MGD900     -0.2322
     21  C5       -56.3030   -6.9900   32.1430 C.2   900  MGD900      0.2182
     22  C6       -57.6240   -7.4420   31.7850 C.1   900  MGD900      0.2372
     23  O6       -57.9290   -8.2840   30.9020 O.2   900  MGD900     -0.2069
     24  N1       -58.6740   -6.8330   32.5510 N.2   900  MGD900     -0.2485
     25  C2       -58.4250   -5.8730   33.5670 C.1   900  MGD900      0.2531
     26  N2       -59.5160   -5.3650   34.2210 N.pl3 900  MGD900     -0.0226
     27  N3       -57.1880   -5.4420   33.9140 N.2   900  MGD900     -0.3074
     28  C4       -56.1910   -6.0430   33.1610 C.2   900  MGD900      0.2300
     29  C10      -45.3350   -0.5670   31.4970 C.3   900  MGD900      0.1837
     30  C11      -44.4820    0.6450   31.1320 C.3   900  MGD900      0.1762
     31  O11      -43.3590    0.6960   32.1400 O.3   900  MGD900     -0.3271
     32  C12      -43.8230    0.4800   29.7500 C.2   900  MGD900      0.0473
     33  S12      -44.6260   -0.2640   28.3260 S.3   900  MGD900     -0.0526
     34  C13      -42.5130    0.8850   29.4880 C.2   900  MGD900      0.0449
     35  S13      -42.0160    0.5030   27.8800 S.3   900  MGD900     -0.0530
     36  C14      -41.6270    1.5570   30.5600 C.3   900  MGD900      0.1850
     37  N15      -40.4590    0.6420   30.8400 N.2   900  MGD900     -0.2411
     38  C16      -39.6340    1.2220   31.9090 C.2   900  MGD900      0.2467
     39  C17      -38.2480    0.9780   31.9410 C.1   900  MGD900      0.2441
     40  O17      -37.5620    0.4450   31.0110 O.2   900  MGD900     -0.2063
     41  N18      -37.5900    1.3730   33.1530 N.2   900  MGD900     -0.2474
     42  C19      -38.2570    1.9580   34.2260 C.1   900  MGD900      0.2608
     43  N19      -37.5450    2.2960   35.3420 N.pl3 900  MGD900     -0.0220
     44  N20      -39.5880    2.2110   34.2050 N.2   900  MGD900     -0.2682
     45  C21      -40.2550    1.8370   33.0280 C.1   900  MGD900      0.1293
     46  N22      -41.6200    2.1250   33.0260 N.2   900  MGD900     -0.1763
     47  C23      -42.4870    1.8320   31.8470 C.3   900  MGD900      0.2573
@<TRIPOS>BOND
     1    35    34    1
     2    33    32    1
     3    34    32    2
     4    34    36    1
     5    32    30    1
     6    36    37    1
     7    36    47    1
     8    37    38    2
     9    23    22    2
    10    40    39    2
    11    30    29    1
    12    30    31    1
    13    29     5    1
    14     2     1    2
    15    20    21    2
    16    20    19    1
    17    22    21    1
    18    22    24    2
    19     5     6    1
    20    47    31    1
    21    47    46    1
    22    38    39    1
    23    38    45    1
    24    39    41    2
    25    21    28    1
    26    19    18    1
    27     6     7    2
    28     6     4    1
    29     6     8    1
    30    24    25    2
    31    10     9    1
    32    10    11    1
    33     1     4    1
    34     1     9    1
    35     1     3    1
    36    46    45    2
    37    45    44    2
    38    41    42    2
    39    28    18    1
    40    28    27    2
    41    18    17    1
    42    12    11    1
    43    12    17    1
    44    25    27    2
    45    25    26    1
    46    11    13    1
    47    44    42    2
    48    42    43    1
    49    17    15    1
    50    15    13    1
    51    15    16    1
    52    13    14    1
