@<TRIPOS>MOLECULE
1vlf_BTT_M_1.pdb
 10 10 0 0 0
SMALL
GASTEIGER

@<TRIPOS>ATOM
      1  C1       -46.8190   -2.0880   22.7010 C.2   950  BTT950      0.2330
      2  C2       -48.2180   -1.3740   22.9020 C.2   950  BTT950      0.2370
      3  C3       -48.3140   -0.1900   23.9800 C.2   950  BTT950      0.0858
      4  C4       -47.2020    0.1920   24.7110 C.2   950  BTT950      0.2109
      5  C5       -45.8420   -0.5140   24.5020 C.3   950  BTT950      0.2383
      6  C6       -45.7340   -1.6900   23.4390 C.2   950  BTT950      0.0594
      7  O1       -46.5780   -3.0930   21.8370 O.2   950  BTT950     -0.2834
      8  O2       -49.1240   -1.7470   22.2480 O.2   950  BTT950     -0.2831
      9  O4       -47.1960    1.1650   25.6220 O.2   950  BTT950     -0.2882
     10  O5       -45.4120   -1.0450   25.6110 O.3   950  BTT950     -0.2097
@<TRIPOS>BOND
     1     7     1    1
     2     8     2    2
     3     1     2    1
     4     1     6    2
     5     2     3    1
     6     6     5    1
     7     3     4    2
     8     5     4    1
     9     5    10    1
    10     4     9    1
