@<TRIPOS>MOLECULE
1vlf_MGD_M_1.pdb
 47 52 0 0 0
SMALL
GASTEIGER

@<TRIPOS>ATOM
      1  PB       -48.6070   -3.3490   33.1510 P.3   900  MGD900      0.2189
      2  O1B      -48.6650   -3.8170   31.7410 O.2   900  MGD900     -0.5170
      3  O2B      -47.9040   -4.2550   34.1500 O.3   900  MGD900     -0.4371
      4  O3B      -47.8920   -1.9450   33.3340 O.3   900  MGD900     -0.2703
      5  O3A      -46.6530   -0.0880   31.6220 O.3   900  MGD900     -0.3109
      6  PA       -47.9250   -0.8460   32.1960 P.3   900  MGD900      0.2189
      7  O1A      -49.2420   -0.1900   31.8600 O.2   900  MGD900     -0.5170
      8  O2A      -47.7340    0.0230   33.3820 O.3   900  MGD900     -0.4371
      9  O5'      -50.0870   -3.1180   33.7690 O.3   900  MGD900     -0.3112
     10  C5'      -51.3510   -3.4420   33.0480 C.3   900  MGD900      0.1813
     11  C4'      -52.3150   -3.4400   34.2220 C.3   900  MGD900      0.1799
     12  O4'      -53.5310   -3.8950   33.6190 O.3   900  MGD900     -0.3326
     13  C3'      -51.8910   -4.4460   35.3160 C.3   900  MGD900      0.2158
     14  O3'      -51.9320   -3.8130   36.6210 O.3   900  MGD900     -0.2175
     15  C2'      -52.8890   -5.6110   35.1550 C.3   900  MGD900      0.2310
     16  O2'      -53.2040   -6.3370   36.3330 O.3   900  MGD900     -0.2158
     17  C1'      -54.0940   -4.9790   34.3950 C.3   900  MGD900      0.2293
     18  N9       -54.7100   -5.8670   33.4380 N.pl3 900  MGD900     -0.2354
     19  C8       -54.0910   -6.6950   32.4740 C.3   900  MGD900      0.2246
     20  N7       -54.9740   -7.3800   31.7600 N.2   900  MGD900     -0.2322
     21  C5       -56.2230   -6.9880   32.2720 C.2   900  MGD900      0.2182
     22  C6       -57.5660   -7.3790   31.9160 C.1   900  MGD900      0.2372
     23  O6       -57.8900   -8.2000   31.0130 O.2   900  MGD900     -0.2069
     24  N1       -58.5850   -6.7420   32.6870 N.2   900  MGD900     -0.2485
     25  C2       -58.2940   -5.8160   33.7060 C.1   900  MGD900      0.2531
     26  N2       -59.3560   -5.2530   34.3900 N.pl3 900  MGD900     -0.0226
     27  N3       -57.0470   -5.4410   34.0510 N.2   900  MGD900     -0.3074
     28  C4       -56.0840   -6.0620   33.3000 C.2   900  MGD900      0.2300
     29  C10      -45.2790   -0.5510   31.7790 C.3   900  MGD900      0.1837
     30  C11      -44.4910    0.6700   31.2820 C.3   900  MGD900      0.1762
     31  O11      -43.3500    0.7820   32.2370 O.3   900  MGD900     -0.3271
     32  C12      -43.8500    0.4760   29.8710 C.2   900  MGD900      0.0473
     33  S12      -44.6370   -0.3180   28.4620 S.3   900  MGD900     -0.0526
     34  C13      -42.5360    0.9020   29.5760 C.2   900  MGD900      0.0449
     35  S13      -42.0240    0.4930   27.9830 S.3   900  MGD900     -0.0530
     36  C14      -41.6590    1.6050   30.6090 C.3   900  MGD900      0.1850
     37  N15      -40.4810    0.7140   30.8870 N.2   900  MGD900     -0.2411
     38  C16      -39.6640    1.3050   31.9390 C.2   900  MGD900      0.2467
     39  C17      -38.2750    1.0610   31.9800 C.1   900  MGD900      0.2441
     40  O17      -37.5860    0.5390   31.0490 O.2   900  MGD900     -0.2063
     41  N18      -37.6280    1.4460   33.2080 N.2   900  MGD900     -0.2474
     42  C19      -38.3150    2.0220   34.2720 C.1   900  MGD900      0.2608
     43  N19      -37.6320    2.3530   35.4090 N.pl3 900  MGD900     -0.0220
     44  N20      -39.6400    2.2720   34.2340 N.2   900  MGD900     -0.2682
     45  C21      -40.2900    1.9110   33.0620 C.1   900  MGD900      0.1293
     46  N22      -41.6570    2.2000   33.0610 N.2   900  MGD900     -0.1763
     47  C23      -42.5100    1.9150   31.8990 C.3   900  MGD900      0.2573
@<TRIPOS>BOND
     1    35    34    1
     2    33    32    1
     3    34    32    2
     4    34    36    1
     5    32    30    1
     6    36    37    1
     7    36    47    1
     8    37    38    2
     9    23    22    2
    10    40    39    2
    11    30    29    1
    12    30    31    1
    13     5    29    1
    14     5     6    1
    15     2     1    2
    16    20    21    2
    17    20    19    1
    18     7     6    2
    19    47    31    1
    20    47    46    1
    21    22    21    1
    22    22    24    2
    23    38    39    1
    24    38    45    1
    25    39    41    2
    26     6     4    1
    27     6     8    1
    28    21    28    1
    29    19    18    1
    30    24    25    2
    31    10     9    1
    32    10    11    1
    33    46    45    2
    34    45    44    2
    35     1     4    1
    36     1     9    1
    37     1     3    1
    38    41    42    2
    39    28    18    1
    40    28    27    2
    41    18    17    1
    42    12    11    1
    43    12    17    1
    44    25    27    2
    45    25    26    1
    46    11    13    1
    47    44    42    2
    48    42    43    1
    49    17    15    1
    50    15    13    1
    51    15    16    1
    52    13    14    1
