@<TRIPOS>MOLECULE
1vlh_PNS_A_1.pdb
 22 21 0 0 0
SMALL
GASTEIGER

@<TRIPOS>ATOM
      1  O23       41.6700    7.9710   24.5850 O.2   200  PNS200     -0.2224
      2  P24       41.4990    7.1380   25.8380 P.3   200  PNS200      0.5326
      3  O25       40.7940    5.8110   25.5440 O.3   200  PNS200     -0.1145
      4  O26       40.9920    7.9230   27.0230 O.3   200  PNS200     -0.1145
      5  O27       42.9830    6.5650   26.2790 O.3   200  PNS200     -0.2702
      6  C28       43.9870    7.4300   26.8470 C.3   200  PNS200      0.1565
      7  C29       44.8000    6.6990   27.9180 C.3   200  PNS200      0.0647
      8  C30       45.7460    5.6950   27.2890 C.3   200  PNS200      0.0056
      9  C31       43.8170    5.9460   28.7940 C.3   200  PNS200      0.0056
     10  C32       45.4360    7.6640   28.9290 C.3   200  PNS200      0.2312
     11  O33       45.3580    9.0130   28.5490 O.3   200  PNS200     -0.2131
     12  C34       46.8340    7.3760   29.4560 C.2   200  PNS200      0.2719
     13  O35       47.8180    7.0190   28.7750 O.2   200  PNS200     -0.2706
     14  N36       46.7190    7.5950   30.7960 N.am  200  PNS200     -0.2028
     15  C37       47.4990    7.6600   32.0180 C.3   200  PNS200      0.1248
     16  C38       48.9210    7.2690   31.7610 C.3   200  PNS200      0.1102
     17  C39       49.8160    8.2300   30.9940 C.2   200  PNS200      0.2432
     18  O40       50.9250    7.8010   30.6940 O.2   200  PNS200     -0.2733
     19  N41       49.4280    9.4320   30.5880 N.am  200  PNS200     -0.2044
     20  C42       50.3130   10.3360   29.8450 C.3   200  PNS200      0.1276
     21  C43       50.3360    9.9820   28.3620 C.3   200  PNS200      0.0920
     22  S44       51.7010   10.9600   27.5820 S.3   200  PNS200     -0.0802
@<TRIPOS>BOND
     1     1     2    2
     2     3     2    1
     3     2     5    1
     4     2     4    1
     5     5     6    1
     6     6     7    1
     7     8     7    1
     8    22    21    1
     9     7     9    1
    10     7    10    1
    11    21    20    1
    12    11    10    1
    13    13    12    2
    14    10    12    1
    15    12    14   am
    16    20    19    1
    17    19    17   am
    18    18    17    2
    19    14    15    1
    20    17    16    1
    21    16    15    1
