@<TRIPOS>MOLECULE
1vlj_NAP_A_1.pdb
 48 52 0 0 0
SMALL
GASTEIGER

@<TRIPOS>ATOM
      1  PA        16.2740   49.6670   38.0650 P.3   800  NAP800      0.2189
      2  O1A       17.6680   50.2080   38.0640 O.2   800  NAP800     -0.5170
      3  O2A       15.7840   49.2120   39.3580 O.3   800  NAP800     -0.4371
      4  O5B       15.2720   50.7470   37.3720 O.3   800  NAP800     -0.3112
      5  C5B       15.6000   51.4120   36.1540 C.3   800  NAP800      0.1813
      6  C4B       14.5880   52.5420   35.9220 C.3   800  NAP800      0.1820
      7  O4B       13.2440   52.0500   35.8320 O.3   800  NAP800     -0.3136
      8  C3B       14.5640   53.5530   37.0600 C.3   800  NAP800      0.2157
      9  O3B       14.8640   54.8190   36.5000 O.3   800  NAP800     -0.2175
     10  C2B       13.1620   53.4700   37.6980 C.3   800  NAP800      0.2314
     11  O2B       12.6240   54.7330   38.0760 O.3   800  NAP800     -0.2630
     12  C1B       12.3470   52.9040   36.5610 C.3   800  NAP800      0.3158
     13  N9A       11.1500   52.1110   36.8760 N.pl3 800  NAP800     -0.1439
     14  C8A       11.0910   50.9200   37.5820 C.3   800  NAP800      0.3377
     15  N7A        9.7990   50.4710   37.5330 N.2   800  NAP800     -0.2095
     16  C5A        9.0560   51.3480   36.7840 C.2   800  NAP800      0.2526
     17  C6A        7.6980   51.3750   36.4120 C.2   800  NAP800      0.4393
     18  N6A        6.9600   50.2580   36.5140 N.pl3 800  NAP800      0.2180
     19  N1A        7.2520   52.4410   35.6240 N.2   800  NAP800      0.0021
     20  C2A        8.1110   53.4340   35.2030 C.3   800  NAP800      0.5254
     21  N3A        9.4420   53.3910   35.5600 N.2   800  NAP800     -0.0055
     22  C4A        9.9050   52.3750   36.3550 C.2   800  NAP800      0.3518
     23  O3        16.1880   48.4960   36.9290 O.3   800  NAP800     -0.2703
     24  PN        16.5890   46.9380   37.1130 P.3   800  NAP800      0.2189
     25  O1N       15.4590   46.1920   37.6660 O.3   800  NAP800     -0.4371
     26  O2N       17.0440   46.5540   35.7070 O.2   800  NAP800     -0.5170
     27  O5D       17.8890   46.9710   38.1010 O.3   800  NAP800     -0.3112
     28  C5D       19.2120   47.1640   37.6710 C.3   800  NAP800      0.1813
     29  C4D       20.1330   46.7950   38.8250 C.3   800  NAP800      0.1799
     30  O4D       20.0660   45.3960   39.0970 O.3   800  NAP800     -0.3327
     31  C3D       21.5900   47.1000   38.5000 C.3   800  NAP800      0.2158
     32  O3D       22.2120   47.6610   39.6210 O.3   800  NAP800     -0.2175
     33  C2D       22.2020   45.7350   38.2240 C.3   800  NAP800      0.2309
     34  O2D       23.5850   45.6690   38.4630 O.3   800  NAP800     -0.2158
     35  C1D       21.4100   44.8570   39.1900 C.3   800  NAP800      0.2263
     36  N1N       21.5520   43.3920   38.9510 N.pl3 800  NAP800     -0.2787
     37  C2N       21.2010   42.5790   39.9930 C.3   800  NAP800      0.1244
     38  C3N       21.3120   41.1920   39.8690 C.2   800  NAP800      0.0544
     39  C7N       20.5910   40.3630   40.8990 C.2   800  NAP800      0.2818
     40  O7N       20.0090   39.1270   40.5230 O.2   800  NAP800     -0.2670
     41  N7N       20.4860   40.8820   42.1230 N.am  800  NAP800     -0.0839
     42  C4N       21.7750   40.6010   38.6830 C.2   800  NAP800      0.0033
     43  C5N       22.1460   41.3930   37.6170 C.2   800  NAP800      0.0157
     44  C6N       22.0430   42.8010   37.7780 C.2   800  NAP800      0.0633
     45  P2B       12.2930   55.1100   39.6220 P.3   800  NAP800      0.5328
     46  O1X       13.5990   55.0230   40.3740 O.3   800  NAP800     -0.1145
     47  O2X       11.6670   56.5090   39.6700 O.2   800  NAP800     -0.2224
     48  O3X       11.3700   54.0930   40.2710 O.3   800  NAP800     -0.1145
@<TRIPOS>BOND
     1    20    21    1
     2    20    19    1
     3    21    22    2
     4    19    17    2
     5    26    24    2
     6     7     6    1
     7     7    12    1
     8     6     5    1
     9     6     8    1
    10     5     4    1
    11    22    16    1
    12    22    13    1
    13    17    18    1
    14    17    16    1
    15     9     8    1
    16    12    13    1
    17    12    10    1
    18    16    15    2
    19    13    14    1
    20    23    24    1
    21    23     1    1
    22     8    10    1
    23    24    25    1
    24    24    27    1
    25     4     1    1
    26    15    14    1
    27    43    44    2
    28    43    42    1
    29    28    27    1
    30    28    29    1
    31    10    11    1
    32    44    36    1
    33     2     1    2
    34     1     3    1
    35    11    45    1
    36    33    34    1
    37    33    31    1
    38    33    35    1
    39    31    29    1
    40    31    32    1
    41    42    38    2
    42    29    30    1
    43    36    35    1
    44    36    37    1
    45    30    35    1
    46    45    47    2
    47    45    48    1
    48    45    46    1
    49    38    37    1
    50    38    39    1
    51    40    39    2
    52    39    41   am
