@<TRIPOS>MOLECULE
1vm1_TAZ_A_1.pdb
 20 22 0 0 0
SMALL
GASTEIGER

@<TRIPOS>ATOM
      1  S1        31.1680   65.9480   -7.5410 S.O2  504  TAZ504      0.0070
      2  C2        29.4850   65.2000   -7.5400 C.3   504  TAZ504      0.1619
      3  C3        29.3310   64.6080   -8.9710 C.3   504  TAZ504      0.2025
      4  C5        31.8640   64.5900   -8.5620 C.3   504  TAZ504      0.2154
      5  C6        32.6510   65.0840   -9.7880 C.3   504  TAZ504      0.1296
      6  C7        31.3160   64.9060  -10.5160 C.2   504  TAZ504      0.2307
      7  C9        28.2940   63.5010   -9.0860 C.2   504  TAZ504      0.3842
      8  N4        30.7070   64.3020   -9.3770 N.am  504  TAZ504     -0.2517
      9  C20       29.4880   64.1330   -6.4480 C.3   504  TAZ504      0.0280
     10  C14       28.3760   66.2750   -7.3610 C.3   504  TAZ504      0.1532
     11  C19       28.6690   67.8540   -4.1820 C.ar  504  TAZ504      0.1441
     12  C18       29.1610   67.7150   -5.4230 C.ar  504  TAZ504      0.1193
     13  N15       28.4240   66.7640   -5.9730 N.ar  504  TAZ504     -0.2284
     14  N16       27.4750   66.3130   -5.1260 N.ar  504  TAZ504     -0.0637
     15  N17       27.6450   66.9920   -4.0210 N.ar  504  TAZ504     -0.1271
     16  O12       31.8930   65.9670   -6.3140 O.2   504  TAZ504     -0.1714
     17  O13       31.1180   67.0700   -8.4220 O.2   504  TAZ504     -0.1714
     18  O8        30.8280   64.8660  -11.5940 O.2   504  TAZ504     -0.2747
     19  O10       27.1210   63.6790   -8.8770 O.co2 504  TAZ504     -0.2438
     20  O11       28.6880   62.3110   -9.4060 O.co2 504  TAZ504     -0.2438
@<TRIPOS>BOND
     1    18     6    2
     2     6     5    1
     3     6     8   am
     4     5     4    1
     5    20     7   ar
     6     8     3    1
     7     8     4    1
     8     7     3    1
     9     7    19   ar
    10     3     2    1
    11     4     1    1
    12    17     1    2
    13     1     2    1
    14     1    16    2
    15     2    10    1
    16     2     9    1
    17    10    13    1
    18    13    12   ar
    19    13    14   ar
    20    12    11   ar
    21    14    15   ar
    22    11    15   ar
