@<TRIPOS>MOLECULE
1vm1_TBE_A_1.pdb
 20 20 0 0 0
SMALL
GASTEIGER

@<TRIPOS>ATOM
      1  S1        31.0930   65.2760    1.4790 S.3   501  TBE501     -0.0178
      2  O12       29.8530   64.6440    1.8860 O.3   501  TBE501     -0.0782
      3  O13       32.3630   64.5360    1.6050 O.3   501  TBE501     -0.0782
      4  C2        31.2460   66.7040    2.4890 C.3   501  TBE501      0.1556
      5  C3        32.1930   66.5380    3.7400 C.3   501  TBE501      0.1977
      6  N4        32.6540   65.1440    3.6960 N.3   501  TBE501     -0.2064
      7  C5        32.2100   64.5200    4.7370 C.3   501  TBE501      0.0975
      8  C20       31.8420   67.7970    1.5950 C.3   501  TBE501      0.0274
      9  C14       29.7600   66.8730    2.8270 C.3   501  TBE501      0.1526
     10  N15       29.4660   67.7480    3.9510 N.ar  501  TBE501     -0.2284
     11  N16       29.4820   69.0290    3.7210 N.ar  501  TBE501     -0.0637
     12  N17       29.6240   69.6670    4.8580 N.ar  501  TBE501     -0.1271
     13  C18       29.6960   68.7700    5.8440 C.ar  501  TBE501      0.1441
     14  C19       29.5970   67.5480    5.2630 C.ar  501  TBE501      0.1193
     15  C9        33.5090   67.2880    3.9420 C.2   501  TBE501      0.3820
     16  O10       34.5090   67.1320    3.2010 O.co2 501  TBE501     -0.2440
     17  O11       33.6700   68.1020    4.8950 O.co2 501  TBE501     -0.2440
     18  C6        31.8200   63.0660    4.5420 C.3   501  TBE501      0.0910
     19  C7        32.8170   62.2570    5.3510 C.2   501  TBE501      0.2089
     20  O8        33.7350   62.6730    6.0010 O.2   501  TBE501     -0.2882
@<TRIPOS>BOND
     1     1     3    1
     2     1     2    1
     3     1     4    1
     4     8     4    1
     5     4     9    1
     6     4     5    1
     7     9    10    1
     8    16    15   ar
     9     6     5    1
    10     6     7    1
    11    11    10   ar
    12    11    12   ar
    13     5    15    1
    14    15    17   ar
    15    10    14   ar
    16    18     7    1
    17    18    19    1
    18    12    13   ar
    19    14    13   ar
    20    19    20    2
