@<TRIPOS>MOLECULE
1vm1_MA4_A_1.pdb
 35 37 0 0 0
SMALL
GASTEIGER

@<TRIPOS>ATOM
      1  C1        59.6910   53.5110    1.9490 C.3   300  MA4300      0.2695
      2  C2        60.0880   52.6950    0.8680 C.3   300  MA4300      0.2406
      3  C3        59.7480   51.3210    0.9310 C.3   300  MA4300      0.2198
      4  C4        60.1080   50.7340    2.1620 C.3   300  MA4300      0.2144
      5  C5        59.7940   51.4630    3.3260 C.3   300  MA4300      0.1835
      6  C6        60.2370   50.9560    4.6700 C.3   300  MA4300      0.2142
      7  O2        61.5220   52.6980    0.8610 O.3   300  MA4300     -0.2149
      8  O3        60.3910   50.6560   -0.1530 O.3   300  MA4300     -0.2174
      9  O5        60.0450   52.8860    3.2030 O.3   300  MA4300     -0.3256
     10  O6        59.1680   51.0100    5.5990 O.3   300  MA4300     -0.2176
     11  O1        58.2730   53.7240    1.8830 O.3   300  MA4300     -0.3257
     12  O4        59.5210   49.4380    2.2510 O.3   300  MA4300     -0.2176
     13  C10       55.0190   55.2100    2.6450 C.3   300  MA4300      0.2695
     14  C20       55.8240   56.0410    1.8940 C.3   300  MA4300      0.2404
     15  C30       57.1420   55.7010    1.6480 C.3   300  MA4300      0.2167
     16  C40       57.8220   54.8890    2.6010 C.3   300  MA4300      0.1804
     17  C50       57.1110   54.4420    3.7260 C.3   300  MA4300      0.1803
     18  C60       57.5810   54.4800    5.1470 C.3   300  MA4300      0.2141
     19  O10       53.8560   55.8270    3.1880 O.3   300  MA4300     -0.3286
     20  O20       55.1080   56.5410    0.7690 O.3   300  MA4300     -0.2149
     21  O30       57.3960   55.1270    0.3660 O.3   300  MA4300     -0.2175
     22  O50       55.6820   54.4510    3.6360 O.3   300  MA4300     -0.3257
     23  O60       58.4770   55.5520    5.3780 O.3   300  MA4300     -0.2176
     24  C11       53.3060   56.8130    2.3240 C.3   300  MA4300      0.1449
     25  C21       51.7930   56.7910    2.4460 C.3   300  MA4300      0.0322
     26  C31       51.3430   56.7280    3.9100 C.3   300  MA4300      0.0026
     27  C41       49.8140   56.6550    3.9330 C.3   300  MA4300      0.0001
     28  C51       49.2920   56.0470    5.2340 C.3   300  MA4300      0.0000
     29  C61       48.0320   56.8030    5.6870 C.3   300  MA4300      0.0000
     30  C12       47.1100   55.7410    6.3260 C.3   300  MA4300      0.0000
     31  C22       47.3440   56.0720    7.8180 C.3   300  MA4300      0.0000
     32  C32       47.7590   54.7830    8.5510 C.3   300  MA4300      0.0000
     33  C42       46.7460   53.7240    8.0670 C.3   300  MA4300      0.0000
     34  C52       47.1520   53.2820    6.6650 C.3   300  MA4300      0.0000
     35  C62       47.8290   54.4240    5.9050 C.3   300  MA4300      0.0000
@<TRIPOS>BOND
     1     8     3    1
     2    21    15    1
     3    20    14    1
     4     7     2    1
     5     2     3    1
     6     2     1    1
     7     3     4    1
     8    15    14    1
     9    15    16    1
    10    11     1    1
    11    11    16    1
    12    14    13    1
    13     1     9    1
    14     4    12    1
    15     4     5    1
    16    24    25    1
    17    24    19    1
    18    25    26    1
    19    16    17    1
    20    13    19    1
    21    13    22    1
    22     9     5    1
    23     5     6    1
    24    22    17    1
    25    17    18    1
    26    26    27    1
    27    27    28    1
    28     6    10    1
    29    18    23    1
    30    28    29    1
    31    29    30    1
    32    35    30    1
    33    35    34    1
    34    30    31    1
    35    34    33    1
    36    31    32    1
    37    33    32    1
