@<TRIPOS>MOLECULE
1vm6_NAD_A_1.pdb
 44 48 0 0 0
SMALL
GASTEIGER

@<TRIPOS>ATOM
      1  PA         7.5060   23.2350   29.8890 P.3   300  NAD300      0.2189
      2  O1A        6.2430   22.5260   29.6250 O.2   300  NAD300     -0.5170
      3  O2A        8.0560   23.0170   31.2400 O.3   300  NAD300     -0.4371
      4  O5B        7.3540   24.8270   29.7440 O.3   300  NAD300     -0.3112
      5  C5B        6.7230   25.5020   28.6880 C.3   300  NAD300      0.1813
      6  C4B        6.8560   26.9870   29.0110 C.3   300  NAD300      0.1821
      7  O4B        6.2780   27.7020   27.9430 O.3   300  NAD300     -0.3135
      8  C3B        6.0580   27.3960   30.2450 C.3   300  NAD300      0.2184
      9  O3B        6.6070   28.5330   30.8710 O.3   300  NAD300     -0.2174
     10  C2B        4.7020   27.7480   29.6730 C.3   300  NAD300      0.2570
     11  O2B        3.9680   28.6070   30.5150 O.3   300  NAD300     -0.2130
     12  C1B        5.1260   28.4200   28.3680 C.3   300  NAD300      0.3186
     13  N9A        4.0810   28.4570   27.3120 N.pl3 300  NAD300     -0.1439
     14  C8A        3.3570   27.4150   26.7690 C.3   300  NAD300      0.3377
     15  N7A        2.5130   27.9150   25.8230 N.2   300  NAD300     -0.2095
     16  C5A        2.7000   29.2630   25.7510 C.2   300  NAD300      0.2526
     17  C6A        2.1170   30.2730   24.9760 C.2   300  NAD300      0.4393
     18  N6A        1.1560   29.9940   24.1010 N.pl3 300  NAD300      0.2180
     19  N1A        2.5260   31.5800   25.1330 N.2   300  NAD300      0.0021
     20  C2A        3.5070   31.9000   26.0580 C.3   300  NAD300      0.5254
     21  N3A        4.0710   30.8980   26.8290 N.2   300  NAD300     -0.0055
     22  C4A        3.6780   29.6100   26.6800 C.2   300  NAD300      0.3518
     23  O3         8.4860   22.7150   28.7120 O.3   300  NAD300     -0.2703
     24  PN        10.0730   22.5120   28.7680 P.3   300  NAD300      0.2189
     25  O1N       10.3380   21.0710   29.0600 O.2   300  NAD300     -0.5170
     26  O2N       10.7440   23.6110   29.5160 O.3   300  NAD300     -0.4371
     27  O5D       10.4100   22.7080   27.2070 O.3   300  NAD300     -0.3112
     28  C5D       10.0990   23.8970   26.5170 C.3   300  NAD300      0.1813
     29  C4D       10.4910   23.7560   25.0540 C.3   300  NAD300      0.1799
     30  O4D       11.9000   23.6720   24.9900 O.3   300  NAD300     -0.3327
     31  C3D        9.9380   22.5170   24.3740 C.3   300  NAD300      0.2158
     32  O3D        9.5310   22.8380   23.0480 O.3   300  NAD300     -0.2175
     33  C2D       11.1270   21.5600   24.4150 C.3   300  NAD300      0.2309
     34  O2D       11.1390   20.5660   23.4270 O.3   300  NAD300     -0.2158
     35  C1D       12.2360   22.5560   24.1860 C.3   300  NAD300      0.2263
     36  N1N       13.5790   22.1410   24.5700 N.pl3 300  NAD300     -0.2787
     37  C2N       14.5480   22.4310   23.6620 C.3   300  NAD300      0.1244
     38  C3N       15.8590   22.1280   23.9520 C.2   300  NAD300      0.0544
     39  C7N       16.9120   22.7130   23.0710 C.2   300  NAD300      0.2818
     40  O7N       18.2210   22.5070   23.4360 O.2   300  NAD300     -0.2670
     41  N7N       16.6070   23.3990   21.9830 N.am  300  NAD300     -0.0839
     42  C4N       16.1850   21.5110   25.1550 C.2   300  NAD300      0.0033
     43  C5N       15.1760   21.2300   26.0810 C.2   300  NAD300      0.0157
     44  C6N       13.8610   21.5540   25.7880 C.2   300  NAD300      0.0633
@<TRIPOS>BOND
     1    41    39   am
     2    32    31    1
     3    39    40    2
     4    39    38    1
     5    34    33    1
     6    37    38    1
     7    37    36    1
     8    38    42    2
     9    18    17    1
    10    35    33    1
    11    35    36    1
    12    35    30    1
    13    31    33    1
    14    31    29    1
    15    36    44    1
    16    17    19    2
    17    17    16    1
    18    30    29    1
    19    29    28    1
    20    19    20    1
    21    42    43    1
    22    16    15    2
    23    16    22    1
    24    44    43    2
    25    15    14    1
    26    20    21    1
    27    28    27    1
    28    22    21    2
    29    22    13    1
    30    14    13    1
    31    27    24    1
    32    13    12    1
    33     7    12    1
    34     7     6    1
    35    12    10    1
    36     5     6    1
    37     5     4    1
    38    23    24    1
    39    23     1    1
    40    24    25    2
    41    24    26    1
    42     6     8    1
    43     2     1    2
    44    10     8    1
    45    10    11    1
    46     4     1    1
    47     1     3    1
    48     8     9    1
