@<TRIPOS>MOLECULE
1vom_ADP_A_1.pdb
 27 29 0 0 0
SMALL
GASTEIGER

@<TRIPOS>ATOM
      1  PB        64.1510   39.4250  -25.3330 P.3   999  ADP999      0.5373
      2  O1B       65.4000   40.1040  -25.7420 O.3   999  ADP999     -0.1143
      3  O2B       64.3850   37.9930  -24.9690 O.3   999  ADP999     -0.1143
      4  O3B       62.9790   39.6130  -26.2120 O.2   999  ADP999     -0.2221
      5  PA        64.4110   41.3350  -23.1250 P.3   999  ADP999      0.2231
      6  O1A       65.7810   40.9730  -22.7840 O.3   999  ADP999     -0.4370
      7  O2A       64.3410   42.6470  -23.8710 O.2   999  ADP999     -0.5169
      8  O3A       63.6960   40.1710  -23.9540 O.3   999  ADP999     -0.2261
      9  O5'       63.5230   41.4560  -21.7870 O.3   999  ADP999     -0.3111
     10  C5'       62.1930   41.9710  -21.8860 C.3   999  ADP999      0.1813
     11  C4'       61.9810   42.7860  -20.6130 C.3   999  ADP999      0.1821
     12  O4'       62.0410   41.8570  -19.4680 O.3   999  ADP999     -0.3135
     13  C3'       63.1170   43.7840  -20.3770 C.3   999  ADP999      0.2184
     14  O3'       62.8920   45.0100  -21.0930 O.3   999  ADP999     -0.2174
     15  C2'       62.9770   43.9320  -18.8530 C.3   999  ADP999      0.2570
     16  O2'       61.8150   44.7550  -18.5580 O.3   999  ADP999     -0.2130
     17  C1'       62.6740   42.5060  -18.4160 C.3   999  ADP999      0.3186
     18  N9        63.8640   41.7710  -18.0640 N.pl3 999  ADP999     -0.1439
     19  C8        64.4340   40.7060  -18.6820 C.3   999  ADP999      0.3377
     20  N7        65.4460   40.1610  -18.0030 N.2   999  ADP999     -0.2095
     21  C5        65.5190   40.9800  -16.8860 C.2   999  ADP999      0.2526
     22  C6        66.3740   40.9460  -15.7660 C.2   999  ADP999      0.4393
     23  N6        67.3540   40.0620  -15.5790 N.pl3 999  ADP999      0.2180
     24  N1        66.2150   41.9560  -14.8660 N.2   999  ADP999      0.0021
     25  C2        65.2220   42.8860  -15.0180 C.3   999  ADP999      0.5254
     26  N3        64.3570   42.9740  -15.9930 N.2   999  ADP999     -0.0055
     27  C4        64.5960   42.0100  -16.9310 C.2   999  ADP999      0.3518
@<TRIPOS>BOND
     1     4     1    2
     2     2     1    1
     3     1     3    1
     4     1     8    1
     5     8     5    1
     6     7     5    2
     7     5     6    1
     8     5     9    1
     9    10     9    1
    10    10    11    1
    11    14    13    1
    12    11    13    1
    13    11    12    1
    14    13    15    1
    15    12    17    1
    16    15    16    1
    17    15    17    1
    18    19    18    1
    19    19    20    1
    20    17    18    1
    21    18    27    1
    22    20    21    2
    23    27    21    1
    24    27    26    2
    25    21    22    1
    26    26    25    1
    27    22    23    1
    28    22    24    2
    29    25    24    1
