@<TRIPOS>MOLECULE
1vot_HUP_A_1.pdb
 18 20 0 0 0
SMALL
GASTEIGER

@<TRIPOS>ATOM
      1  C1         1.0960   69.1690   60.6670 C.1   999  HUP999      0.2045
      2  O1         0.5910   69.5470   59.5810 O.2   999  HUP999     -0.2093
      3  N1         2.4300   68.8470   60.7360 N.2   999  HUP999     -0.3413
      4  C2         0.3550   69.0160   61.8850 C.2   999  HUP999      0.1024
      5  C3         0.9710   68.6140   63.0250 C.2   999  HUP999     -0.0049
      6  C4         2.3680   68.3330   63.0880 C.3   999  HUP999      0.0883
      7  C5         3.0880   68.4370   61.8980 C.2   999  HUP999      0.1050
      8  C6         4.5590   68.2360   61.7940 C.3   999  HUP999      0.0601
      9  C7         5.1250   67.5770   63.0860 C.3   999  HUP999      0.0295
     10  C8         4.8110   66.0980   63.1810 C.2   999  HUP999     -0.0344
     11  C9         6.4780   69.8190   64.7220 C.3   999  HUP999      0.0001
     12  C10        5.0720   69.3510   64.8500 C.3   999  HUP999      0.0018
     13  C11        4.5400   68.3110   64.2660 C.3   999  HUP999      0.0217
     14  C12        3.0810   67.9710   64.4350 C.3   999  HUP999      0.0906
     15  N2         2.4610   68.7050   65.5570 N.3   999  HUP999     -0.1333
     16  C13        2.9410   66.4850   64.7410 C.3   999  HUP999      0.0400
     17  C14        3.8190   65.6040   63.9290 C.2   999  HUP999     -0.0467
     18  C15        3.5550   64.1250   64.1060 C.3   999  HUP999      0.0261
@<TRIPOS>BOND
     1     2     1    2
     2     1     3    2
     3     1     4    1
     4     3     7    2
     5     8     7    1
     6     8     9    1
     7     4     5    2
     8     7     6    1
     9     5     6    1
    10     9    10    1
    11     9    13    1
    12     6    14    1
    13    10    17    2
    14    17    18    1
    15    17    16    1
    16    13    14    1
    17    13    12    1
    18    14    16    1
    19    14    15    1
    20    11    12    1
