@<TRIPOS>MOLECULE
1vp3_SAH_A_1.pdb
 26 28 0 0 0
SMALL
GASTEIGER

@<TRIPOS>ATOM
      1  N         -4.1890   12.8080   24.0410 N.3   400  SAH400     -0.1208
      2  CA        -4.3110   11.7890   25.0740 C.3   400  SAH400      0.1952
      3  CB        -3.0270   10.9630   25.1690 C.3   400  SAH400      0.0422
      4  CG        -2.6210   10.3460   23.8450 C.3   400  SAH400      0.0597
      5  SD        -1.3450    9.1010   23.9790 S.3   400  SAH400     -0.1375
      6  C         -4.5910   12.4610   26.4100 C.2   400  SAH400      0.3819
      7  O         -5.1510   13.5720   26.3680 O.co2 400  SAH400     -0.2441
      8  OXT       -4.5420   11.7480   27.4420 O.co2 400  SAH400     -0.2441
      9  C5'       -1.2900    8.5940   22.2510 C.3   400  SAH400      0.0899
     10  C4'       -2.4970    7.8060   21.8130 C.3   400  SAH400      0.1630
     11  O4'       -2.5700    7.7370   20.3840 O.3   400  SAH400     -0.3153
     12  C3'       -2.7480    6.4130   22.4710 C.3   400  SAH400      0.2168
     13  O3'       -3.8670    6.4500   23.3910 O.3   400  SAH400     -0.2175
     14  C2'       -3.0640    5.6020   21.2150 C.3   400  SAH400      0.2569
     15  O2'       -3.9910    4.4900   21.4030 O.3   400  SAH400     -0.2130
     16  C1'       -3.5040    6.6880   20.2010 C.3   400  SAH400      0.3185
     17  N9        -3.4690    6.3130   18.7650 N.pl3 400  SAH400     -0.1439
     18  C8        -2.4590    5.6680   18.0800 C.3   400  SAH400      0.3377
     19  N7        -2.8670    5.3430   16.9060 N.2   400  SAH400     -0.2095
     20  C5        -4.1770    5.8170   16.7600 C.2   400  SAH400      0.2526
     21  C6        -5.1420    5.7810   15.7350 C.2   400  SAH400      0.4393
     22  N6        -4.9210    5.2340   14.5440 N.pl3 400  SAH400      0.2180
     23  N1        -6.3740    6.2620   15.9910 N.2   400  SAH400      0.0021
     24  C2        -6.7030    6.6450   17.1930 C.3   400  SAH400      0.5254
     25  N3        -5.8920    6.7210   18.2260 N.2   400  SAH400     -0.0055
     26  C4        -4.6100    6.3110   17.9370 C.2   400  SAH400      0.3518
@<TRIPOS>BOND
     1    22    21    1
     2    21    23    2
     3    21    20    1
     4    23    24    1
     5    20    19    2
     6    20    26    1
     7    19    18    1
     8    24    25    1
     9    26    25    2
    10    26    17    1
    11    18    17    1
    12    17    16    1
    13    16    11    1
    14    16    14    1
    15    11    10    1
    16    14    15    1
    17    14    12    1
    18    10     9    1
    19    10    12    1
    20     9     5    1
    21    12    13    1
    22     4     5    1
    23     4     3    1
    24     1     2    1
    25     2     3    1
    26     2     6    1
    27     7     6   ar
    28     6     8   ar
