@<TRIPOS>MOLECULE
1vp4_PLP_A_1.pdb
 15 15 0 0 0
SMALL
GASTEIGER

@<TRIPOS>ATOM
      1  N1       -26.8690  120.3780    8.4140 N.ar  501  PLP501     -0.2452
      2  C2       -27.0320  119.1080    7.9020 C.ar  501  PLP501      0.0978
      3  C2A      -28.1060  118.8090    6.8720 C.3   501  PLP501      0.0555
      4  C3       -26.2020  118.1080    8.3690 C.ar  501  PLP501      0.2049
      5  O3       -26.3200  116.8110    7.9960 O.3   501  PLP501     -0.2857
      6  C4       -25.2050  118.3950    9.2730 C.ar  501  PLP501      0.0182
      7  C4A      -24.2020  117.3260    9.5900 C.3   501  PLP501      0.0342
      8  C5       -25.0430  119.6630    9.7650 C.ar  501  PLP501      0.0261
      9  C6       -25.8990  120.6890    9.3380 C.ar  501  PLP501      0.0965
     10  C5A      -23.8220  119.8990   10.6300 C.3   501  PLP501      0.1815
     11  O4P      -24.1180  120.9230   11.5300 O.3   501  PLP501     -0.2653
     12  P        -22.9370  121.7870   12.1420 P.3   501  PLP501      0.5329
     13  O1P      -21.8690  120.9180   12.6860 O.3   501  PLP501     -0.1145
     14  O2P      -23.6060  122.5780   13.2010 O.3   501  PLP501     -0.1145
     15  O3P      -22.2780  122.6550   11.1240 O.2   501  PLP501     -0.2224
@<TRIPOS>BOND
     1     3     2    1
     2     2     4   ar
     3     2     1   ar
     4     5     4    1
     5     4     6   ar
     6     1     9   ar
     7     6     7    1
     8     6     8   ar
     9     9     8   ar
    10     8    10    1
    11    10    11    1
    12    15    12    2
    13    11    12    1
    14    12    13    1
    15    12    14    1
