@<TRIPOS>MOLECULE
1vp5_NAP_A_1.pdb
 48 52 0 0 0
SMALL
GASTEIGER

@<TRIPOS>ATOM
      1  PA        53.7120   51.1080    5.6940 P.3   300  NAP300      0.2189
      2  O1A       54.2860   50.2330    4.5910 O.2   300  NAP300     -0.5170
      3  O2A       53.2730   52.4780    5.3170 O.3   300  NAP300     -0.4371
      4  O5B       52.3540   50.4230    6.2850 O.3   300  NAP300     -0.3112
      5  C5B       52.4140   49.2450    7.0340 C.3   300  NAP300      0.1813
      6  C4B       51.0130   48.7310    7.3600 C.3   300  NAP300      0.1820
      7  O4B       50.0960   48.6560    6.2670 O.3   300  NAP300     -0.3136
      8  C3B       51.1090   47.3250    7.9730 C.3   300  NAP300      0.2157
      9  O3B       50.5260   47.3330    9.2670 O.3   300  NAP300     -0.2175
     10  C2B       50.3520   46.4390    7.0020 C.3   300  NAP300      0.2314
     11  O2B       49.6500   45.3990    7.6350 O.3   300  NAP300     -0.2630
     12  C1B       49.3930   47.3950    6.3270 C.3   300  NAP300      0.3158
     13  N9A       49.0260   47.0400    4.9500 N.pl3 300  NAP300     -0.1439
     14  C8A       49.8890   46.7270    3.9400 C.3   300  NAP300      0.3377
     15  N7A       49.2010   46.5770    2.8130 N.2   300  NAP300     -0.2095
     16  C5A       47.8950   46.7830    3.0890 C.2   300  NAP300      0.2526
     17  C6A       46.7580   46.7320    2.2980 C.2   300  NAP300      0.4393
     18  N6A       46.8590   46.6460    0.9620 N.pl3 300  NAP300      0.2180
     19  N1A       45.5350   47.0300    2.8810 N.2   300  NAP300      0.0021
     20  C2A       45.4570   47.3430    4.2220 C.3   300  NAP300      0.5254
     21  N3A       46.5910   47.3660    4.9960 N.2   300  NAP300     -0.0055
     22  C4A       47.7820   47.0950    4.4330 C.2   300  NAP300      0.3518
     23  O3        54.7430   51.2600    6.8890 O.3   300  NAP300     -0.2703
     24  PN        56.3230   50.9100    7.0400 P.3   300  NAP300      0.2189
     25  O1N       56.5380   49.4380    7.2940 O.2   300  NAP300     -0.5170
     26  O2N       56.7440   51.7970    8.1520 O.3   300  NAP300     -0.4371
     27  O5D       56.9920   51.5240    5.6690 O.3   300  NAP300     -0.3112
     28  C5D       57.4270   50.7830    4.5250 C.3   300  NAP300      0.1813
     29  C4D       58.9010   50.4100    4.7210 C.3   300  NAP300      0.1799
     30  O4D       59.6530   51.6130    4.8450 O.3   300  NAP300     -0.3327
     31  C3D       59.3280   49.6560    5.9580 C.3   300  NAP300      0.2158
     32  O3D       59.0070   48.2780    6.1420 O.3   300  NAP300     -0.2175
     33  C2D       60.8200   49.9010    5.8780 C.3   300  NAP300      0.2309
     34  O2D       61.3850   49.0070    4.9590 O.3   300  NAP300     -0.2158
     35  C1D       60.8970   51.3970    5.4850 C.3   300  NAP300      0.2263
     36  N1N       61.0460   52.3730    6.6210 N.pl3 300  NAP300     -0.2787
     37  C2N       62.1200   53.2170    6.6050 C.3   300  NAP300      0.1244
     38  C3N       62.3360   54.1370    7.6340 C.2   300  NAP300      0.0544
     39  C7N       63.5020   55.0650    7.4760 C.2   300  NAP300      0.2818
     40  O7N       63.8140   55.9360    8.5030 O.2   300  NAP300     -0.2670
     41  N7N       64.2230   55.0690    6.3640 N.am  300  NAP300     -0.0839
     42  C4N       61.4190   54.2540    8.7000 C.2   300  NAP300      0.0033
     43  C5N       60.3050   53.4000    8.6940 C.2   300  NAP300      0.0157
     44  C6N       60.1340   52.4670    7.6810 C.2   300  NAP300      0.0633
     45  P2B       50.1830   43.8810    7.5860 P.3   300  NAP300      0.5328
     46  O1X       49.8260   43.1150    8.8430 O.3   300  NAP300     -0.1145
     47  O2X       51.7000   43.7320    7.6460 O.3   300  NAP300     -0.1145
     48  O3X       49.5150   43.4470    6.2870 O.2   300  NAP300     -0.2224
@<TRIPOS>BOND
     1    18    17    1
     2    17    19    2
     3    17    16    1
     4    15    16    2
     5    15    14    1
     6    19    20    1
     7    16    22    1
     8    14    13    1
     9    20    21    1
    10    22    13    1
    11    22    21    2
    12    28    29    1
    13    28    27    1
    14     2     1    2
    15    29    30    1
    16    29    31    1
    17    30    35    1
    18    13    12    1
    19    34    33    1
    20     3     1    1
    21    35    33    1
    22    35    36    1
    23    27    24    1
    24     1     4    1
    25     1    23    1
    26    33    31    1
    27    31    32    1
    28     7    12    1
    29     7     6    1
    30     4     5    1
    31    48    45    2
    32    12    10    1
    33    41    39   am
    34    37    36    1
    35    37    38    1
    36    36    44    1
    37    23    24    1
    38    10    11    1
    39    10     8    1
    40     5     6    1
    41    24    25    2
    42    24    26    1
    43     6     8    1
    44    39    38    1
    45    39    40    2
    46    45    11    1
    47    45    47    1
    48    45    46    1
    49    38    42    2
    50    44    43    2
    51     8     9    1
    52    43    42    1
