@<TRIPOS>MOLECULE
1vp6_CMP_A_1.pdb
 22 25 0 0 0
SMALL
GASTEIGER

@<TRIPOS>ATOM
      1  P         24.1060  -36.1390   13.0170 P.3   368  CMP368      0.2141
      2  O1P       24.6360  -37.4840   13.3620 O.2   368  CMP368     -0.5172
      3  O2P       24.2980  -35.2250   14.1820 O.3   368  CMP368     -0.4373
      4  O5'       24.8530  -35.6380   11.8030 O.3   368  CMP368     -0.3114
      5  C5'       24.7560  -36.3400   10.5340 C.3   368  CMP368      0.1812
      6  C4'       23.3080  -36.0010   10.1850 C.3   368  CMP368      0.1793
      7  O4'       22.7810  -36.4710    8.9500 O.3   368  CMP368     -0.3136
      8  C3'       22.3850  -36.5500   11.2540 C.3   368  CMP368      0.1884
      9  O3'       22.6330  -36.0920   12.5770 O.3   368  CMP368     -0.3111
     10  C2'       21.0240  -36.5610   10.5960 C.3   368  CMP368      0.2541
     11  O2'       20.3710  -35.3580   10.7000 O.3   368  CMP368     -0.2131
     12  C1'       21.4840  -37.0720    9.1480 C.3   368  CMP368      0.3185
     13  N9        20.9840  -38.5250    8.7690 N.pl3 368  CMP368     -0.1439
     14  C8        21.7080  -39.6410    9.2540 C.3   368  CMP368      0.3377
     15  N7        21.2400  -40.8150    8.8950 N.2   368  CMP368     -0.2095
     16  C5        20.1500  -40.4570    8.1330 C.2   368  CMP368      0.2526
     17  C6        19.1370  -41.1760    7.4000 C.2   368  CMP368      0.4393
     18  N6        19.0780  -42.5070    7.3280 N.pl3 368  CMP368      0.2180
     19  N1        18.1980  -40.3980    6.7540 N.2   368  CMP368      0.0021
     20  C2        18.1340  -39.0390    6.7390 C.3   368  CMP368      0.5254
     21  N3        19.0660  -38.3140    7.4150 N.2   368  CMP368     -0.0055
     22  C4        19.9650  -39.1130    8.0330 C.2   368  CMP368      0.3518
@<TRIPOS>BOND
     1    20    19    1
     2    20    21    1
     3    19    17    2
     4    18    17    1
     5    17    16    1
     6    21    22    2
     7    22    16    1
     8    22    13    1
     9    16    15    2
    10    13    12    1
    11    13    14    1
    12    15    14    1
    13     7    12    1
    14     7     6    1
    15    12    10    1
    16     6     5    1
    17     6     8    1
    18     5     4    1
    19    10    11    1
    20    10     8    1
    21     8     9    1
    22     4     1    1
    23     9     1    1
    24     1     2    2
    25     1     3    1
