@<TRIPOS>MOLECULE
1vp8_FMN_A_1.pdb
 31 33 0 0 0
SMALL
GASTEIGER

@<TRIPOS>ATOM
      1  N1        42.5720   12.4720   30.7920 N.2   500  FMN500     -0.2887
      2  C2        42.2240   13.7530   31.0560 C.1   500  FMN500      0.3669
      3  O2        41.3990   14.0710   31.9300 O.2   500  FMN500     -0.1744
      4  N3        42.7790   14.7610   30.3010 N.2   500  FMN500     -0.2300
      5  C4        43.7100   14.5020   29.3250 C.1   500  FMN500      0.2513
      6  O4        44.1010   15.4850   28.5900 O.2   500  FMN500     -0.2057
      7  C4A       44.0850   13.2150   29.0810 C.2   500  FMN500      0.2703
      8  N5        45.0280   12.9170   28.1030 N.2   500  FMN500     -0.3882
      9  C5A       45.3150   11.5780   27.8440 C.2   500  FMN500      0.1277
     10  C6        46.2350   11.2430   26.8430 C.3   500  FMN500      0.0820
     11  C7        46.5540    9.9180   26.5720 C.2   500  FMN500     -0.0408
     12  C7M       47.4750    9.5560   25.4230 C.3   500  FMN500      0.0265
     13  C8        45.9270    8.9180   27.3050 C.2   500  FMN500     -0.0280
     14  C8M       46.2400    7.4650   27.0470 C.3   500  FMN500      0.0304
     15  C9        45.0150    9.2480   28.2910 C.2   500  FMN500      0.0123
     16  C9A       44.7040   10.5510   28.5880 C.2   500  FMN500      0.0793
     17  N10       43.7810   10.8770   29.5650 N.pl3 500  FMN500     -0.2545
     18  C10       43.4740   12.1900   29.8230 C.2   500  FMN500      0.2449
     19  C1'       43.0610    9.7980   30.3070 C.3   500  FMN500      0.1336
     20  C2'       42.0540    9.0800   29.4100 C.3   500  FMN500      0.2048
     21  O2'       41.0790    9.9550   28.8630 O.3   500  FMN500     -0.2185
     22  C3'       41.3350    7.9060   30.1380 C.3   500  FMN500      0.2165
     23  O3'       40.4870    8.4280   31.1590 O.3   500  FMN500     -0.2175
     24  C4'       42.3720    6.9750   30.7500 C.3   500  FMN500      0.2147
     25  O4'       43.4060    6.6550   29.8470 O.3   500  FMN500     -0.2176
     26  C5'       41.7010    5.6640   31.1700 C.3   500  FMN500      0.1892
     27  O5'       42.6420    4.9210   31.9090 O.3   500  FMN500     -0.2674
     28  P         42.1130    3.6130   32.7920 P.3   500  FMN500      0.5327
     29  O1P       41.0790    4.1660   33.7290 O.3   500  FMN500     -0.1145
     30  O2P       41.5220    2.6730   31.8080 O.2   500  FMN500     -0.2224
     31  O3P       43.3490    3.0780   33.4230 O.3   500  FMN500     -0.1145
@<TRIPOS>BOND
     1    12    11    1
     2    11    10    1
     3    11    13    2
     4    10     9    1
     5    14    13    1
     6    13    15    1
     7     9     8    2
     8     9    16    1
     9     8     7    2
    10    15    16    2
    11    16    17    1
    12     6     5    2
    13    21    20    1
    14     7     5    1
    15     7    18    1
    16     5     4    2
    17    20    22    1
    18    20    19    1
    19    17    18    1
    20    17    19    1
    21    18     1    2
    22    25    24    1
    23    22    24    1
    24    22    23    1
    25     4     2    2
    26    24    26    1
    27     1     2    2
    28     2     3    2
    29    26    27    1
    30    30    28    2
    31    27    28    1
    32    28    31    1
    33    28    29    1
