@<TRIPOS>MOLECULE
1vp9_SAH_A_1.pdb
 26 28 0 0 0
SMALL
GASTEIGER

@<TRIPOS>ATOM
      1  N         -3.9390   12.9490   23.9010 N.3   400  SAH400     -0.1208
      2  CA        -4.2000   11.9820   24.9600 C.3   400  SAH400      0.1952
      3  CB        -2.9430   11.1320   25.1840 C.3   400  SAH400      0.0422
      4  CG        -2.4920   10.4960   23.8630 C.3   400  SAH400      0.0597
      5  SD        -1.1570    9.2870   23.8890 S.3   400  SAH400     -0.1375
      6  C         -4.7190   12.6510   26.2500 C.2   400  SAH400      0.3819
      7  O         -5.6170   13.5130   26.0830 O.co2 400  SAH400     -0.2441
      8  OXT       -4.5570   12.0620   27.3540 O.co2 400  SAH400     -0.2441
      9  C5'       -1.2660    8.7480   22.1870 C.3   400  SAH400      0.0899
     10  C4'       -2.5480    8.0170   21.8880 C.3   400  SAH400      0.1630
     11  O4'       -2.5910    7.8390   20.4400 O.3   400  SAH400     -0.3153
     12  C3'       -2.7810    6.5900   22.6150 C.3   400  SAH400      0.2168
     13  O3'       -3.8780    6.6110   23.5890 O.3   400  SAH400     -0.2175
     14  C2'       -3.0230    5.6880   21.3550 C.3   400  SAH400      0.2569
     15  O2'       -3.9020    4.5270   21.4480 O.3   400  SAH400     -0.2130
     16  C1'       -3.4830    6.7390   20.3130 C.3   400  SAH400      0.3185
     17  N9        -3.4680    6.3410   18.9140 N.pl3 400  SAH400     -0.1439
     18  C8        -2.4550    5.6770   18.2020 C.3   400  SAH400      0.3377
     19  N7        -2.8580    5.2660   17.0360 N.2   400  SAH400     -0.2095
     20  C5        -4.1920    5.7280   16.9550 C.2   400  SAH400      0.2526
     21  C6        -5.1660    5.6140   15.9680 C.2   400  SAH400      0.4393
     22  N6        -4.8690    5.1060   14.7690 N.pl3 400  SAH400      0.2180
     23  N1        -6.4250    5.9470   16.3060 N.2   400  SAH400      0.0021
     24  C2        -6.6940    6.3660   17.5220 C.3   400  SAH400      0.5254
     25  N3        -5.8590    6.6230   18.5010 N.2   400  SAH400     -0.0055
     26  C4        -4.5990    6.2900   18.1330 C.2   400  SAH400      0.3518
@<TRIPOS>BOND
     1    22    21    1
     2    21    23    2
     3    21    20    1
     4    23    24    1
     5    20    19    2
     6    20    26    1
     7    19    18    1
     8    24    25    1
     9    26    25    2
    10    26    17    1
    11    18    17    1
    12    17    16    1
    13    16    11    1
    14    16    14    1
    15    11    10    1
    16    14    15    1
    17    14    12    1
    18    10     9    1
    19    10    12    1
    20     9     5    1
    21    12    13    1
    22     4     5    1
    23     4     3    1
    24     1     2    1
    25     2     3    1
    26     2     6    1
    27     7     6   ar
    28     6     8   ar
