@<TRIPOS>MOLECULE
1vpa_CTP_A_1.pdb
 29 30 0 0 0
SMALL
GASTEIGER

@<TRIPOS>ATOM
      1  N1       -12.3900  123.1670    0.1020 N.am  500  CTP500     -0.2009
      2  C2       -11.4150  123.9690   -0.4550 C.1   500  CTP500      0.2713
      3  N3       -11.0840  125.1730    0.1490 N.2   500  CTP500     -0.3072
      4  C4       -11.7890  125.6070    1.2470 C.2   500  CTP500      0.2123
      5  C5       -12.8020  124.8050    1.7780 C.3   500  CTP500      0.1014
      6  C6       -13.2040  123.6680    1.0780 C.3   500  CTP500      0.1151
      7  O2       -10.8510  123.5780   -1.4850 O.2   500  CTP500     -0.1929
      8  N4       -11.5230  126.7960    1.7970 N.pl3 500  CTP500     -0.0969
      9  C1'      -12.6270  121.8340   -0.4770 C.3   500  CTP500      0.2360
     10  C2'      -12.2560  120.7210    0.4920 C.3   500  CTP500      0.2316
     11  O2'      -10.8620  120.4590    0.6000 O.3   500  CTP500     -0.2157
     12  C3'      -13.0710  119.5740   -0.0980 C.3   500  CTP500      0.2158
     13  C4'      -14.2250  120.2590   -0.8300 C.3   500  CTP500      0.1799
     14  O4'      -13.9920  121.6420   -0.7910 O.3   500  CTP500     -0.3322
     15  O3'      -12.3150  118.8020   -0.9970 O.3   500  CTP500     -0.2175
     16  C5'      -15.5890  119.9240   -0.2260 C.3   500  CTP500      0.1813
     17  O5'      -15.8310  120.5720    0.9930 O.3   500  CTP500     -0.3112
     18  PA       -15.9390  119.8070    2.4260 P.3   500  CTP500      0.2189
     19  O1A      -16.2100  118.3530    2.2430 O.2   500  CTP500     -0.5170
     20  O2A      -16.9790  120.4500    3.3230 O.3   500  CTP500     -0.4371
     21  O3A      -14.4370  120.0260    2.9520 O.3   500  CTP500     -0.2700
     22  PB       -13.9820  120.7590    4.2920 P.3   500  CTP500      0.2277
     23  O1B      -14.2940  122.2360    4.2450 O.2   500  CTP500     -0.5168
     24  O2B      -12.4990  120.5500    4.5310 O.3   500  CTP500     -0.4368
     25  O3B      -14.7990  119.9850    5.4520 O.3   500  CTP500     -0.2258
     26  PG       -15.4690  120.6670    6.7620 P.3   500  CTP500      0.5373
     27  O1G      -14.4010  121.5990    7.3160 O.3   500  CTP500     -0.1143
     28  O2G      -15.7990  119.5340    7.7120 O.3   500  CTP500     -0.1143
     29  O3G      -16.7400  121.4430    6.4140 O.2   500  CTP500     -0.2221
@<TRIPOS>BOND
     1     7     2    2
     2    15    12    1
     3    13    14    1
     4    13    16    1
     5    13    12    1
     6    14     9    1
     7     9     1    1
     8     9    10    1
     9     2     1   am
    10     2     3    2
    11    16    17    1
    12    12    10    1
    13     1     6    1
    14     3     4    2
    15    10    11    1
    16    17    18    1
    17     6     5    1
    18     4     5    1
    19     4     8    1
    20    19    18    2
    21    18    21    1
    22    18    20    1
    23    21    22    1
    24    23    22    2
    25    22    24    1
    26    22    25    1
    27    25    26    1
    28    29    26    2
    29    26    27    1
    30    26    28    1
