@<TRIPOS>MOLECULE
1vpe_3PG_A_1.pdb
 11 10 0 0 0
SMALL
GASTEIGER

@<TRIPOS>ATOM
      1  C1        27.4880   19.3320   20.3130 C.2   401  3PG401      0.3972
      2  O1        28.3540   18.8600   19.3980 O.co2 401  3PG401     -0.2427
      3  O2        27.9750   19.8880   21.4290 O.co2 401  3PG401     -0.2427
      4  C2        26.0350   19.2960   20.0820 C.3   401  3PG401      0.2838
      5  O3        25.8320   18.7240   18.7830 O.3   401  3PG401     -0.2081
      6  C3        25.5900   20.7670   20.1650 C.3   401  3PG401      0.1983
      7  O1P       25.9170   21.3920   18.9400 O.3   401  3PG401     -0.2669
      8  P         25.6280   23.0250   19.0190 P.3   401  3PG401      0.5327
      9  O2P       26.6540   23.6280   20.2170 O.3   401  3PG401     -0.1145
     10  O3P       26.0190   23.7390   17.5340 O.2   401  3PG401     -0.2224
     11  O4P       24.0280   23.3710   19.4230 O.3   401  3PG401     -0.1145
@<TRIPOS>BOND
     1    10     8    2
     2     5     4    1
     3     7     8    1
     4     7     6    1
     5     8    11    1
     6     8     9    1
     7     2     1   ar
     8     4     6    1
     9     4     1    1
    10     1     3   ar
