@<TRIPOS>MOLECULE
1vpe_ANP_A_1.pdb
 31 33 0 0 0
SMALL
GASTEIGER

@<TRIPOS>ATOM
      1  PG        33.1080   20.1070   23.5730 P.3   400  ANP400      0.4884
      2  O1G       33.1490   21.0640   22.4260 O.2   400  ANP400     -0.2331
      3  O2G       32.5280   18.7500   23.2240 O.3   400  ANP400     -0.1240
      4  O3G       32.6410   20.7220   24.8500 O.3   400  ANP400     -0.1240
      5  PB        36.1320   19.2080   23.3410 P.3   400  ANP400      0.4669
      6  O1B       35.5880   18.7610   22.0390 O.2   400  ANP400     -0.2351
      7  O2B       36.7660   18.0710   24.1350 O.3   400  ANP400     -0.1253
      8  N3B       34.8470   19.7010   24.0420 N.3   400  ANP400     -0.0163
      9  PA        36.8640   21.6740   22.4080 P.3   400  ANP400      0.2220
     10  O1A       36.6700   22.9110   23.1740 O.3   400  ANP400     -0.4370
     11  O2A       36.0470   21.6070   21.1580 O.2   400  ANP400     -0.5170
     12  O3A       37.0010   20.4360   23.2380 O.3   400  ANP400     -0.2360
     13  O5'       38.3110   21.8610   21.6960 O.3   400  ANP400     -0.3111
     14  C5'       39.4400   20.9240   21.6550 C.3   400  ANP400      0.1813
     15  C4'       40.2840   21.5810   20.6410 C.3   400  ANP400      0.1821
     16  O4'       40.7940   22.7510   21.2480 O.3   400  ANP400     -0.3135
     17  C3'       41.3440   20.7380   19.9740 C.3   400  ANP400      0.2184
     18  O3'       41.2710   20.9950   18.5270 O.3   400  ANP400     -0.2174
     19  C2'       42.5980   21.2570   20.7060 C.3   400  ANP400      0.2570
     20  O2'       43.8520   21.1490   19.9740 O.3   400  ANP400     -0.2130
     21  C1'       42.2240   22.7260   20.9330 C.3   400  ANP400      0.3186
     22  N9        43.2040   23.3150   21.8990 N.pl3 400  ANP400     -0.1439
     23  C8        43.7040   22.7690   23.0770 C.3   400  ANP400      0.3377
     24  N7        44.7020   23.4430   23.5890 N.2   400  ANP400     -0.2095
     25  C5        44.8820   24.5290   22.6830 C.2   400  ANP400      0.2526
     26  C6        45.7210   25.7130   22.6960 C.2   400  ANP400      0.4393
     27  N6        46.5030   26.0370   23.7560 N.pl3 400  ANP400      0.2180
     28  N1        45.6030   26.5690   21.6650 N.2   400  ANP400      0.0021
     29  C2        44.7640   26.3010   20.6990 C.3   400  ANP400      0.5254
     30  N3        43.9420   25.2810   20.5580 N.2   400  ANP400     -0.0055
     31  C4        44.0140   24.4260   21.6250 C.2   400  ANP400      0.3518
@<TRIPOS>BOND
     1    18    17    1
     2    20    19    1
     3    17    15    1
     4    17    19    1
     5    30    29    1
     6    30    31    2
     7    15    16    1
     8    15    14    1
     9    29    28    1
    10    19    21    1
    11    21    16    1
    12    21    22    1
    13    11     9    2
    14    31    22    1
    15    31    25    1
    16    14    13    1
    17    28    26    2
    18    13     9    1
    19    22    23    1
    20     6     5    2
    21     9    10    1
    22     9    12    1
    23     2     1    2
    24    25    26    1
    25    25    24    2
    26    26    27    1
    27    23    24    1
    28     3     1    1
    29    12     5    1
    30     5     8    1
    31     5     7    1
    32     1     8    1
    33     1     4    1
