@<TRIPOS>MOLECULE
1vpm_COA_A_1.pdb
 48 50 0 0 0
SMALL
GASTEIGER

@<TRIPOS>ATOM
      1  N1A      -10.2570   46.2890   37.7070 N.2   200  COA200      0.0021
      2  C2A      -10.5530   46.7900   38.9420 C.3   200  COA200      0.5254
      3  N3A      -10.5070   45.9400   40.0610 N.2   200  COA200     -0.0055
      4  C4A      -10.1550   44.6310   39.9090 C.2   200  COA200      0.3518
      5  C5A       -9.8600   44.1060   38.6390 C.2   200  COA200      0.2526
      6  C6A       -9.9170   44.9400   37.5180 C.2   200  COA200      0.4393
      7  N6A       -9.7790   44.4050   36.2910 N.pl3 200  COA200      0.2180
      8  N7A       -9.5730   42.7760   38.7920 N.2   200  COA200     -0.2095
      9  C8A       -9.6740   42.4620   40.1140 C.3   200  COA200      0.3377
     10  N9A      -10.0370   43.5930   40.8030 N.pl3 200  COA200     -0.1439
     11  C1B      -10.0680   43.7350   42.2460 C.3   200  COA200      0.3185
     12  C2B      -11.1800   42.8920   42.8290 C.3   200  COA200      0.2543
     13  O2B      -12.4200   43.5310   42.6750 O.3   200  COA200     -0.2131
     14  C3B      -10.7230   42.7680   44.2730 C.3   200  COA200      0.1928
     15  O3B      -11.2740   43.8800   44.9570 O.3   200  COA200     -0.2673
     16  P3B      -11.6140   43.8990   46.5160 P.3   200  COA200      0.5327
     17  O7A      -13.0310   43.5230   46.6810 O.2   200  COA200     -0.2224
     18  O8A      -11.4390   45.2280   47.1330 O.3   200  COA200     -0.1145
     19  O9A      -10.6260   42.9900   47.1880 O.3   200  COA200     -0.1145
     20  C4B       -9.1920   42.7750   44.1510 C.3   200  COA200      0.1795
     21  O4B       -8.9170   43.1510   42.8000 O.3   200  COA200     -0.3136
     22  C5B       -8.5360   41.4120   44.3900 C.3   200  COA200      0.1812
     23  O5B       -9.1070   40.4800   43.4730 O.3   200  COA200     -0.3112
     24  P1A       -9.6580   38.9980   43.8990 P.3   200  COA200      0.2189
     25  O1A      -10.8970   38.6900   43.0840 O.2   200  COA200     -0.5170
     26  O2A       -9.8530   38.8810   45.3970 O.3   200  COA200     -0.4371
     27  O3A       -8.4650   37.9710   43.5470 O.3   200  COA200     -0.2703
     28  P2A       -7.7660   37.7030   42.1110 P.3   200  COA200      0.2188
     29  O4A       -8.8330   37.6220   41.0300 O.2   200  COA200     -0.5170
     30  O5A       -6.8990   36.4680   42.2900 O.3   200  COA200     -0.4371
     31  O6A       -6.7740   38.9640   41.8430 O.3   200  COA200     -0.3138
     32  CBP       -5.7930   40.4960   40.2920 C.3   200  COA200      0.0645
     33  CCP       -7.0920   39.9980   40.9250 C.3   200  COA200      0.1519
     34  CDP       -6.0170   41.8810   39.6760 C.3   200  COA200      0.0056
     35  CEP       -4.7580   40.6070   41.4320 C.3   200  COA200      0.0056
     36  CAP       -5.3300   39.4800   39.2080 C.3   200  COA200      0.2312
     37  OAP       -6.2670   39.2320   38.1660 O.3   200  COA200     -0.2131
     38  C9P       -3.9950   39.9120   38.6320 C.2   200  COA200      0.2719
     39  O9P       -2.8500   39.5860   39.3860 O.2   200  COA200     -0.2706
     40  N8P       -3.9090   40.5920   37.4780 N.am  200  COA200     -0.2028
     41  C7P       -2.5780   40.9570   37.0340 C.3   200  COA200      0.1248
     42  C6P       -2.0540   42.1870   37.7820 C.3   200  COA200      0.1102
     43  C5P       -0.7000   42.6020   37.2440 C.2   200  COA200      0.2432
     44  O5P        0.2640   41.8210   37.3840 O.2   200  COA200     -0.2733
     45  N4P       -0.6110   43.7830   36.6240 N.am  200  COA200     -0.2044
     46  C3P        0.6490   44.2830   36.1420 C.3   200  COA200      0.1276
     47  C2P        0.9400   44.1340   34.6480 C.3   200  COA200      0.0920
     48  S1P        0.5590   42.5640   33.7600 S.3   200  COA200     -0.0802
@<TRIPOS>BOND
     1    48    47    1
     2    47    46    1
     3    46    45    1
     4     7     6    1
     5    45    43   am
     6    41    40    1
     7    41    42    1
     8    43    44    2
     9    43    42    1
    10    40    38   am
    11     6     1    2
    12     6     5    1
    13     1     2    1
    14    37    36    1
    15    38    36    1
    16    38    39    2
    17     5     8    2
    18     5     4    1
    19     8     9    1
    20     2     3    1
    21    36    32    1
    22    34    32    1
    23     4     3    2
    24     4    10    1
    25     9    10    1
    26    32    33    1
    27    32    35    1
    28    10    11    1
    29    33    31    1
    30    29    28    2
    31    31    28    1
    32    28    30    1
    33    28    27    1
    34    11    21    1
    35    11    12    1
    36    13    12    1
    37    21    20    1
    38    12    14    1
    39    25    24    2
    40    23    24    1
    41    23    22    1
    42    27    24    1
    43    24    26    1
    44    20    14    1
    45    20    22    1
    46    14    15    1
    47    15    16    1
    48    16    17    2
    49    16    18    1
    50    16    19    1
