@<TRIPOS>MOLECULE
1vpo_TES_H_1.pdb
 21 24 0 0 0
SMALL
GASTEIGER

@<TRIPOS>ATOM
      1  C1        17.0520   22.5540  -22.0010 C.3   1010  TES1010     0.0118
      2  C2        15.6020   23.1330  -22.0610 C.3   1010  TES1010     0.0694
      3  C3        14.8700   22.7280  -23.3720 C.2   1010  TES1010     0.1725
      4  O3        13.8960   23.4020  -23.7900 O.2   1010  TES1010    -0.2914
      5  C4        15.3410   21.4910  -24.1660 C.2   1010  TES1010     0.0289
      6  C5        16.3420   20.6900  -23.6920 C.2   1010  TES1010    -0.0420
      7  C6        16.6960   19.4140  -24.4970 C.3   1010  TES1010     0.0221
      8  C7        18.2090   19.2120  -24.4740 C.3   1010  TES1010     0.0044
      9  C8        18.8890   19.2310  -23.1050 C.3   1010  TES1010     0.0007
     10  C9        18.6530   20.6890  -22.5020 C.3   1010  TES1010     0.0035
     11  C10       17.1120   21.0220  -22.3320 C.3   1010  TES1010     0.0157
     12  C11       19.3920   20.8270  -21.0960 C.3   1010  TES1010     0.0004
     13  C12       20.9190   20.5220  -21.2290 C.3   1010  TES1010     0.0025
     14  C13       21.0930   19.0900  -21.7680 C.3   1010  TES1010     0.0282
     15  C14       20.4220   18.9630  -23.1620 C.3   1010  TES1010     0.0025
     16  C15       20.8270   17.5330  -23.4980 C.3   1010  TES1010     0.0027
     17  C16       22.3490   17.5020  -23.1260 C.3   1010  TES1010     0.0329
     18  C17       22.5090   18.7570  -22.1930 C.3   1010  TES1010     0.1519
     19  O17       23.4800   18.5940  -21.1630 O.3   1010  TES1010    -0.2232
     20  C18       20.5530   18.1000  -20.6690 C.3   1010  TES1010     0.0025
     21  C19       16.3370   20.2440  -21.2290 C.3   1010  TES1010     0.0041
@<TRIPOS>BOND
     1     7     8    1
     2     7     6    1
     3     8     9    1
     4     5     6    2
     5     5     3    1
     6     4     3    2
     7     6    11    1
     8    16    15    1
     9    16    17    1
    10     3     2    1
    11    15     9    1
    12    15    14    1
    13    17    18    1
    14     9    10    1
    15    10    11    1
    16    10    12    1
    17    11     1    1
    18    11    21    1
    19    18    14    1
    20    18    19    1
    21     2     1    1
    22    14    13    1
    23    14    20    1
    24    13    12    1
