@<TRIPOS>MOLECULE
1vps_GAL_A_1.pdb
 11 11 0 0 0
SMALL
GASTEIGER

@<TRIPOS>ATOM
      1  C1       -45.3180  148.1340   26.2350 C.3     2  GAL2        0.1777
      2  C2       -43.8700  147.7970   26.6110 C.3     2  GAL2        0.2141
      3  C3       -42.9570  148.9860   26.3050 C.3     2  GAL2        0.2173
      4  C4       -43.1480  149.4010   24.8490 C.3     2  GAL2        0.2142
      5  C5       -44.6230  149.6880   24.5770 C.3     2  GAL2        0.1810
      6  C6       -44.8810  150.0400   23.1230 C.3     2  GAL2        0.2141
      7  O2       -43.7680  147.4920   27.9910 O.3     2  GAL2       -0.2176
      8  O3       -41.5760  148.5970   26.4860 O.3     2  GAL2       -0.2175
      9  O4       -42.7100  148.3310   23.9930 O.3     2  GAL2       -0.2176
     10  O5       -45.4230  148.5310   24.8660 O.3     2  GAL2       -0.3481
     11  O6       -46.2550  150.3130   22.8900 O.3     2  GAL2       -0.2176
@<TRIPOS>BOND
     1    11     6    1
     2     6     5    1
     3     9     4    1
     4     5     4    1
     5     5    10    1
     6     4     3    1
     7    10     1    1
     8     1     2    1
     9     3     8    1
    10     3     2    1
    11     2     7    1
