@<TRIPOS>MOLECULE
1vps_SIA_A_1.pdb
 20 20 0 0 0
SMALL
GASTEIGER

@<TRIPOS>ATOM
      1  C1       -41.1070  150.8130   27.3400 C.2     1  SIA1        0.3914
      2  C2       -40.7390  149.3180   27.3270 C.3     1  SIA1        0.2203
      3  C3       -39.2870  149.1700   26.8620 C.3     1  SIA1        0.0760
      4  C4       -38.3220  149.8300   27.8620 C.3     1  SIA1        0.1773
      5  C5       -38.5530  149.2340   29.2480 C.3     1  SIA1        0.1552
      6  C6       -40.0340  149.4260   29.6270 C.3     1  SIA1        0.1710
      7  C7       -40.3540  148.8520   31.0050 C.3     1  SIA1        0.2134
      8  C8       -41.8430  149.1010   31.3180 C.3     1  SIA1        0.2173
      9  C9       -42.1370  148.9040   32.8090 C.3     1  SIA1        0.2175
     10  C10      -36.8310  149.2220   30.9430 C.2     1  SIA1        0.2420
     11  C11      -35.9910  150.0210   31.9220 C.3     1  SIA1        0.0964
     12  N5       -37.7050  149.9080   30.2150 N.am    1  SIA1       -0.2020
     13  O1A      -40.6220  151.5740   26.4730 O.co2   1  SIA1       -0.2430
     14  O1B      -41.8900  151.2290   28.2110 O.co2   1  SIA1       -0.2430
     15  O4       -36.9710  149.6290   27.4570 O.3     1  SIA1       -0.2211
     16  O6       -40.8930  148.7870   28.6530 O.3     1  SIA1       -0.3429
     17  O7       -40.1000  147.4530   30.9880 O.3     1  SIA1       -0.2176
     18  O8       -42.1920  150.4270   30.9540 O.3     1  SIA1       -0.2175
     19  O9       -42.2590  147.5240   33.1000 O.3     1  SIA1       -0.2175
     20  O10      -36.6900  148.0010   30.8410 O.2     1  SIA1       -0.2733
@<TRIPOS>BOND
     1    13     1   ar
     2     3     2    1
     3     3     4    1
     4     2     1    1
     5     2    16    1
     6     1    14   ar
     7    15     4    1
     8     4     5    1
     9    16     6    1
    10     5     6    1
    11     5    12    1
    12     6     7    1
    13    12    10   am
    14    20    10    2
    15    10    11    1
    16    18     8    1
    17    17     7    1
    18     7     8    1
    19     8     9    1
    20     9    19    1
