@<TRIPOS>MOLECULE
1vpt_SAM_A_1.pdb
 27 29 0 0 0
SMALL
GASTEIGER

@<TRIPOS>ATOM
      1  N         -4.6450   12.8550   23.9650 N.3   400  SAM400     -0.1208
      2  CA        -4.7480   11.8170   24.9890 C.3   400  SAM400      0.1952
      3  C         -5.1050   12.4180   26.3480 C.2   400  SAM400      0.3819
      4  O         -5.7590   13.4880   26.3340 O.co2 400  SAM400     -0.2441
      5  OXT       -5.0440   11.6660   27.3580 O.co2 400  SAM400     -0.2441
      6  CB        -3.4480   10.9990   25.0760 C.3   400  SAM400      0.0414
      7  CG        -3.0980   10.2950   23.7650 C.3   400  SAM400      0.0503
      8  SD        -1.7350    9.0870   23.7860 S.3   400  SAM400     -0.1761
      9  CE        -0.3490   10.1350   23.7750 C.3   400  SAM400      0.0590
     10  C5'       -1.7780    8.5840   22.0790 C.3   400  SAM400      0.0806
     11  C4'       -2.9970    7.8320   21.7910 C.3   400  SAM400      0.1622
     12  O4'       -3.1780    7.7610   20.3840 O.3   400  SAM400     -0.3153
     13  C3'       -3.2230    6.4540   22.4860 C.3   400  SAM400      0.2168
     14  O3'       -4.4280    6.4210   23.3300 O.3   400  SAM400     -0.2175
     15  C2'       -3.4680    5.5740   21.2430 C.3   400  SAM400      0.2569
     16  O2'       -4.3980    4.4820   21.4290 O.3   400  SAM400     -0.2130
     17  C1'       -3.9690    6.5890   20.2310 C.3   400  SAM400      0.3185
     18  N9        -3.8920    6.1150   18.8770 N.pl3 400  SAM400     -0.1439
     19  C8        -2.8060    5.5190   18.2010 C.3   400  SAM400      0.3377
     20  N7        -3.0450    5.3280   16.9500 N.2   400  SAM400     -0.2095
     21  C5        -4.4150    5.6800   16.8160 C.2   400  SAM400      0.2526
     22  C6        -5.3360    5.6600   15.7340 C.2   400  SAM400      0.4393
     23  N6        -5.0290    5.2670   14.4920 N.pl3 400  SAM400      0.2180
     24  N1        -6.6330    6.0060   16.0020 N.2   400  SAM400      0.0021
     25  C2        -6.9500    6.5320   17.1750 C.3   400  SAM400      0.5254
     26  N3        -6.1610    6.6280   18.2290 N.2   400  SAM400     -0.0055
     27  C4        -4.9330    6.1120   18.0100 C.2   400  SAM400      0.3518
@<TRIPOS>BOND
     1    23    22    1
     2    22    24    2
     3    22    21    1
     4    24    25    1
     5    21    20    2
     6    21    27    1
     7    20    19    1
     8    25    26    1
     9    27    26    2
    10    27    18    1
    11    19    18    1
    12    18    17    1
    13    17    12    1
    14    17    15    1
    15    12    11    1
    16    15    16    1
    17    15    13    1
    18    11    10    1
    19    11    13    1
    20    10     8    1
    21    13    14    1
    22     7     8    1
    23     7     6    1
    24     9     8    1
    25     1     2    1
    26     2     6    1
    27     2     3    1
    28     4     3   ar
    29     3     5   ar
