@<TRIPOS>MOLECULE
1vpw_HPA_A_1.pdb
 10 11 0 0 0
SMALL
GASTEIGER

@<TRIPOS>ATOM
      1  N1        56.5410    2.4330  -11.1750 N.2   599  HPA599     -0.1726
      2  C2        57.3510    2.3550  -10.0670 C.3   599  HPA599      0.2725
      3  N3        58.0760    3.3650   -9.5980 N.2   599  HPA599     -0.1902
      4  C4        57.9270    4.4850  -10.3430 C.1   599  HPA599      0.0598
      5  C5        57.1470    4.6620  -11.4630 C.2   599  HPA599      0.2226
      6  C6        56.3700    3.5800  -11.9460 C.1   599  HPA599      0.1796
      7  O6        55.6070    3.5550  -12.9200 O.2   599  HPA599     -0.2200
      8  N7        57.2650    5.9630  -11.9330 N.2   599  HPA599     -0.2230
      9  C8        58.0900    6.5370  -11.1010 C.3   599  HPA599      0.2622
     10  N9        58.5250    5.7020  -10.1030 N.2   599  HPA599     -0.1910
@<TRIPOS>BOND
     1     7     6    2
     2     6     5    1
     3     6     1    2
     4     8     5    2
     5     8     9    1
     6     5     4    1
     7     1     2    1
     8     9    10    1
     9     4    10    2
    10     4     3    2
    11     2     3    1
