@<TRIPOS>MOLECULE
1vq1_SAM_A_1.pdb
 27 29 0 0 0
SMALL
GASTEIGER

@<TRIPOS>ATOM
      1  N          9.2460   -2.6170   33.8730 N.3   301  SAM301     -0.1208
      2  CA         9.1930   -2.1770   32.4880 C.3   301  SAM301      0.1952
      3  C          8.8220   -0.7040   32.4440 C.2   301  SAM301      0.3819
      4  O          9.1760    0.0180   31.4990 O.co2 301  SAM301     -0.2441
      5  OXT        8.1480   -0.2040   33.3530 O.co2 301  SAM301     -0.2441
      6  CB         8.1840   -3.0120   31.6950 C.3   301  SAM301      0.0414
      7  CG         6.8190   -2.9620   32.3700 C.3   301  SAM301      0.0503
      8  SD         5.4900   -3.9790   31.6980 S.3   301  SAM301     -0.1761
      9  CE         4.1380   -3.2480   32.6660 C.3   301  SAM301      0.0590
     10  C5'        5.6200   -5.5880   32.5260 C.3   301  SAM301      0.0806
     11  C4'        6.7640   -6.4880   32.0380 C.3   301  SAM301      0.1622
     12  O4'        6.8300   -7.5680   32.9320 O.3   301  SAM301     -0.3153
     13  C3'        6.6260   -7.1240   30.6560 C.3   301  SAM301      0.2168
     14  O3'        7.7150   -6.6840   29.8430 O.3   301  SAM301     -0.2175
     15  C2'        6.5330   -8.6490   30.8910 C.3   301  SAM301      0.2569
     16  O2'        7.3740   -9.4040   30.0520 O.3   301  SAM301     -0.2130
     17  C1'        6.9940   -8.8410   32.3160 C.3   301  SAM301      0.3185
     18  N9         6.3290   -9.7450   33.2920 N.pl3 301  SAM301     -0.1439
     19  C8         5.0050   -9.8420   33.6360 C.3   301  SAM301      0.3377
     20  N7         4.8900  -10.7360   34.6560 N.2   301  SAM301     -0.2095
     21  C5         6.1180  -11.1850   35.0050 C.2   301  SAM301      0.2526
     22  C6         6.5840  -12.0810   35.9660 C.2   301  SAM301      0.4393
     23  N6         5.7810  -12.7330   36.8030 N.pl3 301  SAM301      0.2180
     24  N1         7.9420  -12.3070   36.0490 N.2   301  SAM301      0.0021
     25  C2         8.8430  -11.6810   35.2110 C.3   301  SAM301      0.5254
     26  N3         8.3710  -10.8050   34.2610 N.2   301  SAM301     -0.0055
     27  C4         7.0330  -10.5560   34.1610 C.2   301  SAM301      0.3518
@<TRIPOS>BOND
     1    14    13    1
     2    16    15    1
     3    13    15    1
     4    13    11    1
     5    15    17    1
     6     4     3   ar
     7     6     7    1
     8     6     2    1
     9     8     7    1
    10     8    10    1
    11     8     9    1
    12    11    10    1
    13    11    12    1
    14    17    12    1
    15    17    18    1
    16     3     2    1
    17     3     5   ar
    18     2     1    1
    19    18    19    1
    20    18    27    1
    21    19    20    1
    22    27    26    2
    23    27    21    1
    24    26    25    1
    25    20    21    2
    26    21    22    1
    27    25    24    1
    28    22    24    2
    29    22    23    1
