@<TRIPOS>MOLECULE
1vq2_DDN_A_1.pdb
 20 21 0 0 0
SMALL
GASTEIGER

@<TRIPOS>ATOM
      1  OP3       81.6030    5.5020   15.5250 O.2   308  DDN308     -0.2224
      2  P         81.1040    6.5590   16.5000 P.3   308  DDN308      0.5327
      3  OP1       81.1840    6.1100   17.9300 O.3   308  DDN308     -0.1145
      4  OP2       81.7440    7.9090   16.2310 O.3   308  DDN308     -0.1145
      5  O5'       79.5110    6.7670   16.2110 O.3   308  DDN308     -0.2675
      6  C5'       78.6880    7.5410   17.1070 C.3   308  DDN308      0.1858
      7  C4'       77.4790    8.0620   16.3490 C.3   308  DDN308      0.1774
      8  O4'       76.4100    8.4000   17.2320 O.3   308  DDN308     -0.3340
      9  C3'       77.7470    9.3120   15.4930 C.3   308  DDN308      0.1857
     10  O3'       76.9490    9.3010   14.3450 O.3   308  DDN308     -0.2203
     11  C2'       77.4150   10.4900   16.3220 C.3   308  DDN308      0.0874
     12  C1'       76.5390    9.8240   17.3400 C.3   308  DDN308      0.2081
     13  N1        75.9210    9.9890   18.8460 N.am  308  DDN308     -0.1902
     14  C2        74.8220   10.8560   19.0200 C.1   308  DDN308      0.2193
     15  O2        74.2370   11.4170   18.0930 O.2   308  DDN308     -0.2059
     16  N3        74.5380   11.1680   20.3530 N.2   308  DDN308     -0.1536
     17  C4        75.5730   10.9850   21.5250 C.3   308  DDN308      0.2892
     18  O4        76.0200   12.2310   22.0790 O.3   308  DDN308     -0.1901
     19  C5        76.8400   10.2350   21.0350 C.2   308  DDN308      0.0490
     20  C6        76.9850    9.8960   19.7190 C.2   308  DDN308      0.0785
@<TRIPOS>BOND
     1    10     9    1
     2     9    11    1
     3     9     7    1
     4     1     2    2
     5     5     2    1
     6     5     6    1
     7     4     2    1
     8    11    12    1
     9     7     6    1
    10     7     8    1
    11     2     3    1
    12     8    12    1
    13    12    13    1
    14    15    14    2
    15    13    14   am
    16    13    20    1
    17    14    16    2
    18    20    19    2
    19    16    17    1
    20    19    17    1
    21    17    18    1
