@<TRIPOS>MOLECULE
1vr0_3SL_A_1.pdb
 10 9 0 0 0
SMALL
GASTEIGER

@<TRIPOS>ATOM
      1  O11       25.6290   44.9920  210.4160 O.co2 300  3SL300     -0.2428
      2  C1        24.8620   44.6690  209.4870 C.2   300  3SL300      0.3963
      3  O12       23.8590   45.3280  209.1130 O.co2 300  3SL300     -0.2428
      4  C2        25.1860   43.4030  208.7880 C.3   300  3SL300      0.2736
      5  O2        25.5940   42.4690  209.7840 O.3   300  3SL300     -0.2091
      6  C3        23.9510   42.9720  208.0220 C.3   300  3SL300      0.1498
      7  S         24.1120   41.4390  207.4020 S.3   300  3SL300     -0.1929
      8  O3S       24.4630   41.5150  205.9730 O.3   300  3SL300     -0.3074
      9  O1S       24.9360   40.5100  208.2480 O.3   300  3SL300     -0.3074
     10  O2S       22.7650   40.8600  207.3310 O.3   300  3SL300     -0.3074
@<TRIPOS>BOND
     1     8     7    1
     2    10     7    1
     3     7     6    1
     4     7     9    1
     5     6     4    1
     6     4     2    1
     7     4     5    1
     8     3     2   ar
     9     2     1   ar
