@<TRIPOS>MOLECULE
1vrh_SD8_1_1.pdb
 26 29 0 0 0
SMALL
GASTEIGER

@<TRIPOS>ATOM
      1  C1        41.4290    1.2390  123.4340 C.2   290  SD8290      0.1707
      2  C2        40.5210    0.0450  123.1530 C.3   290  SD8290      0.1327
      3  C3        42.7750   -1.4100  123.2860 C.3   290  SD8290      0.1220
      4  C4        43.7800   -2.5800  123.2870 C.2   290  SD8290     -0.0086
      5  C5        45.1130   -2.3210  123.4910 C.2   290  SD8290     -0.0032
      6  C6        45.5910   -1.0390  123.6980 C.2   290  SD8290      0.0020
      7  C7        44.7740    0.0800  123.7170 C.2   290  SD8290      0.0288
      8  C8        43.4110   -0.0280  123.5830 C.2   290  SD8290      0.1239
      9  C9        39.7480    3.1520  122.6930 C.3   290  SD8290      0.1144
     10  C10       38.5500    3.7060  123.5180 C.3   290  SD8290      0.1151
     11  C11       40.1410    4.1620  125.4380 C.3   290  SD8290      0.1151
     12  C12       41.3000    3.6240  124.5570 C.3   290  SD8290      0.1144
     13  C13       38.1780    5.6900  124.9640 C.2   290  SD8290      0.2109
     14  C14       36.5870    7.5260  125.1950 C.3   290  SD8290      0.1315
     15  C15       37.4110    7.4390  126.2400 C.2   290  SD8290      0.1975
     16  C16       37.4260    8.3430  127.4780 C.2   290  SD8290      0.3680
     17  C17       36.3310   10.2950  128.5050 C.3   290  SD8290      0.2090
     18  C18       36.7470   11.6920  128.0290 C.3   290  SD8290      0.0513
     19  N1        42.7060    1.0820  123.5610 N.2   290  SD8290     -0.3937
     20  N2        40.8530    2.6000  123.5480 N.pl3 290  SD8290     -0.2828
     21  N3        38.9590    4.6250  124.6260 N.pl3 290  SD8290     -0.2752
     22  N4        38.1990    6.2480  126.1660 N.2   290  SD8290     -0.3778
     23  O1        38.2210    8.1950  128.4130 O.2   290  SD8290     -0.2423
     24  O2        36.4450    9.3370  127.4210 O.3   290  SD8290     -0.4439
     25  S1        41.0440   -1.6280  123.0300 S.3   290  SD8290     -0.1205
     26  S2        36.9760    6.2690  124.0510 S.3   290  SD8290     -0.0592
@<TRIPOS>BOND
     1     9    10    1
     2     9    20    1
     3    25     2    1
     4    25     3    1
     5     2     1    1
     6     3     4    1
     7     3     8    1
     8     4     5    2
     9     1    20    1
    10     1    19    2
    11     5     6    1
    12    10    21    1
    13    20    12    1
    14    19     8    2
    15     8     7    1
    16     6     7    2
    17    26    13    1
    18    26    14    1
    19    12    11    1
    20    21    13    1
    21    21    11    1
    22    13    22    2
    23    14    15    1
    24    22    15    2
    25    15    16    1
    26    24    16    1
    27    24    17    1
    28    16    23    2
    29    18    17    1
