@<TRIPOS>MOLECULE
1vrl_ADE_A_1.pdb
 10 11 0 0 0
SMALL
GASTEIGER

@<TRIPOS>ATOM
      1  N9        10.4500    0.8840    6.3690 N.2   500  ADE500     -0.1914
      2  C8        11.4600    1.6670    5.8620 C.3   500  ADE500      0.2618
      3  N7        11.0530    2.5920    5.0300 N.2   500  ADE500     -0.2267
      4  C5         9.6770    2.4110    4.9800 C.2   500  ADE500      0.2303
      5  C6         8.6620    3.0860    4.2830 C.2   500  ADE500      0.4393
      6  N6         8.8950    4.1130    3.4620 N.pl3 500  ADE500      0.2185
      7  N1         7.3860    2.6640    4.4660 N.2   500  ADE500     -0.0265
      8  C2         7.1620    1.6290    5.2950 C.3   500  ADE500      0.4008
      9  N3         8.0320    0.9140    6.0030 N.2   500  ADE500     -0.1640
     10  C4         9.2880    1.3610    5.8030 C.1   500  ADE500      0.0579
@<TRIPOS>BOND
     1     6     5    1
     2     5     7    2
     3     5     4    1
     4     7     8    1
     5     4     3    2
     6     4    10    1
     7     3     2    1
     8     8     9    1
     9    10     9    2
    10    10     1    2
    11     2     1    1
