@<TRIPOS>MOLECULE
1vrn_HEM_C_1.pdb
 43 50 0 0 0
SMALL
GASTEIGER

@<TRIPOS>ATOM
      1  CHA      101.0210   32.4830  -19.8340 C.2   401  HEM401      0.0000
      2  CHB      100.2220   36.0760  -16.6620 C.2   401  HEM401      0.0000
      3  CHC       97.1980   33.2480  -14.1430 C.2   401  HEM401      0.0000
      4  CHD       98.0970   29.6080  -17.2330 C.2   401  HEM401      0.0000
      5  C1A      101.1100   33.6980  -19.1590 C.2   401  HEM401      0.0000
      6  C2A      102.0180   34.7730  -19.4910 C.2   401  HEM401      0.0000
      7  C3A      101.7520   35.7940  -18.6430 C.2   401  HEM401      0.0000
      8  C4A      100.7320   35.3330  -17.7250 C.2   401  HEM401      0.0000
      9  CMA      102.4140   37.1760  -18.6570 C.3   401  HEM401      0.0000
     10  CAA      103.0740   34.7660  -20.5950 C.3   401  HEM401      0.0000
     11  CBA      104.5040   34.5320  -20.1220 C.3   401  HEM401      0.0000
     12  CGA      105.4900   34.4670  -21.2750 C.2   401  HEM401      0.0000
     13  O1A      105.4300   33.4950  -22.0570 O.co2 401  HEM401      0.0000
     14  O2A      106.3190   35.3910  -21.4080 O.co2 401  HEM401      0.0000
     15  C1B       99.3010   35.6370  -15.7140 C.ar  401  HEM401      0.0000
     16  C2B       98.7410   36.4510  -14.6580 C.ar  401  HEM401      0.0000
     17  C3B       97.8430   35.6820  -13.9970 C.ar  401  HEM401      0.0000
     18  C4B       97.9050   34.3630  -14.5840 C.ar  401  HEM401      0.0000
     19  CMB       99.0570   37.9160  -14.3550 C.3   401  HEM401      0.0000
     20  CAB       96.8510   35.9380  -12.8650 C.3   401  HEM401      0.0000
     21  CBB       95.9350   37.1000  -13.2620 C.3   401  HEM401      0.0000
     22  C1C       97.2150   31.9890  -14.7360 C.2   401  HEM401      0.0000
     23  C2C       96.6180   30.8040  -14.1720 C.2   401  HEM401      0.0000
     24  C3C       96.9290   29.7730  -14.9900 C.2   401  HEM401      0.0000
     25  C4C       97.6470   30.3290  -16.1220 C.2   401  HEM401      0.0000
     26  CMC       95.8320   30.7250  -12.8650 C.3   401  HEM401      0.0000
     27  CAC       96.7010   28.2690  -14.8500 C.3   401  HEM401      0.0000
     28  CBC       95.2240   27.9040  -14.6960 C.3   401  HEM401      0.0000
     29  C1D       98.9070   30.0960  -18.2600 C.ar  401  HEM401      0.0000
     30  C2D       99.3010   29.3560  -19.4400 C.ar  401  HEM401      0.0000
     31  C3D      100.0350   30.1960  -20.2110 C.ar  401  HEM401      0.0000
     32  C4D      100.2180   31.4100  -19.4550 C.ar  401  HEM401      0.0000
     33  CMD       98.9530   27.9180  -19.8130 C.3   401  HEM401      0.0000
     34  CAD      100.4930   29.9120  -21.6350 C.3   401  HEM401      0.0000
     35  CBD       99.4480   30.3540  -22.6500 C.3   401  HEM401      0.0000
     36  CGD       99.7710   29.8980  -24.0620 C.2   401  HEM401      0.0000
     37  O1D       99.0640   30.3210  -25.0020 O.co2 401  HEM401      0.0000
     38  O2D      100.7290   29.1120  -24.2330 O.co2 401  HEM401      0.0000
     39  NA       100.3810   34.0330  -18.0350 N.2   401  HEM401      0.0000
     40  NB        98.7550   34.3710  -15.6680 N.ar  401  HEM401      0.0000
     41  NC        97.9080   31.6640  -15.8840 N.2   401  HEM401      0.0000
     42  ND        99.4220   31.3740  -18.3290 N.ar  401  HEM401      0.0000
     43 FE         99.1200   32.8580  -16.9890 Fe    401  HEM401      0.0000
@<TRIPOS>BOND
     1    37    36   ar
     2    38    36   ar
     3    36    35    1
     4    35    34    1
     5    13    12   ar
     6    34    31    1
     7    14    12   ar
     8    12    11    1
     9    10    11    1
    10    10     6    1
    11    31    32   ar
    12    31    30   ar
    13     1    32    2
    14     1     5    1
    15    33    30    1
    16     6     5    1
    17     6     7    2
    18    32    42   ar
    19    30    29   ar
    20     5    39    2
    21     9     7    1
    22     7     8    1
    23    42    29   ar
    24    42    43    1
    25    29     4    2
    26    39     8    1
    27    39    43    1
    28     8     2    2
    29     4    25    1
    30    43    41    1
    31    43    40    1
    32     2    15    1
    33    25    41    2
    34    25    24    1
    35    41    22    1
    36    15    40   ar
    37    15    16   ar
    38    40    18   ar
    39    24    27    1
    40    24    23    2
    41    27    28    1
    42    22    23    1
    43    22     3    2
    44    16    19    1
    45    16    17   ar
    46    18     3    1
    47    18    17   ar
    48    23    26    1
    49    17    20    1
    50    21    20    1
