@<TRIPOS>MOLECULE
1vrn_NS5_M_1.pdb
 40 39 0 0 0
SMALL
GASTEIGER

@<TRIPOS>ATOM
      1  C1        66.5630  -11.6340    5.3490 C.3   600  NS5600      0.0000
      2  CM1       65.7570  -11.0840    6.5170 C.3   600  NS5600      0.0000
      3  CM2       68.0280  -11.7950    5.7380 C.3   600  NS5600      0.0000
      4  C2        65.9870  -12.9650    4.8530 C.3   600  NS5600      0.0000
      5  C3        64.5280  -12.8940    4.3900 C.3   600  NS5600      0.0000
      6  C4        64.0450  -14.2250    3.7870 C.3   600  NS5600      0.0000
      7  C5        64.3280  -14.4050    2.3090 C.3   600  NS5600      0.0000
      8  C6        63.2280  -15.0420    1.5350 C.3   600  NS5600      0.0000
      9  C7        65.4050  -13.8600    1.7120 C.3   600  NS5600      0.0000
     10  C8        65.9150  -14.2100    0.3670 C.3   600  NS5600      0.0000
     11  C9        66.7330  -13.0740   -0.2450 C.3   600  NS5600      0.0003
     12  C10       65.8820  -12.1750   -1.1070 C.3   600  NS5600      0.0043
     13  C11       65.2320  -11.0310   -0.4060 C.3   600  NS5600      0.0003
     14  C12       65.4550  -12.6700   -2.2810 C.3   600  NS5600      0.0260
     15  C13       64.6060  -12.1040   -3.2750 C.2   600  NS5600     -0.0265
     16  C14       64.1660  -12.8070   -4.3310 C.2   600  NS5600     -0.0088
     17  C15       63.4640  -12.3090   -5.4940 C.2   600  NS5600     -0.0222
     18  C16       62.3680  -11.3190   -5.1870 C.3   600  NS5600      0.0310
     19  C17       63.5120  -13.0240   -6.6320 C.2   600  NS5600     -0.0043
     20  C18       62.7070  -12.8740   -7.8020 C.2   600  NS5600     -0.0003
     21  C19       62.6340  -13.6780   -8.8770 C.2   600  NS5600     -0.0003
     22  C20       63.4970  -14.8020   -9.1870 C.2   600  NS5600     -0.0043
     23  C21       63.2750  -15.6760  -10.1890 C.2   600  NS5600     -0.0218
     24  C22       61.9700  -15.7380  -10.9470 C.3   600  NS5600      0.0310
     25  C23       64.3450  -16.5830  -10.6460 C.2   600  NS5600     -0.0043
     26  C24       64.1270  -17.7540  -11.2740 C.2   600  NS5600     -0.0006
     27  C25       65.1290  -18.7350  -11.6600 C.2   600  NS5600     -0.0043
     28  C26       64.9240  -19.9990  -12.0920 C.2   600  NS5600     -0.0218
     29  C27       63.5530  -20.6240  -12.1870 C.3   600  NS5600      0.0310
     30  C28       66.0450  -20.8100  -12.5870 C.2   600  NS5600     -0.0043
     31  C29       65.9990  -22.1500  -12.7340 C.2   600  NS5600     -0.0010
     32  C30       67.1090  -23.0400  -13.0270 C.2   600  NS5600     -0.0085
     33  C31       67.0640  -24.3810  -13.2050 C.2   600  NS5600     -0.0439
     34  C32       65.8270  -25.1980  -13.0300 C.3   600  NS5600      0.0264
     35  C33       68.3270  -25.1780  -13.4060 C.3   600  NS5600      0.0220
     36  C34       68.9780  -24.8880  -14.7520 C.3   600  NS5600      0.0043
     37  C35       69.9730  -25.9350  -15.1500 C.3   600  NS5600      0.0003
     38  C36       71.2100  -26.0860  -14.6370 C.3   600  NS5600      0.0000
     39  CM3       72.2000  -27.0070  -15.2580 C.3   600  NS5600      0.0000
     40  CM4       71.5690  -25.6420  -13.2640 C.3   600  NS5600      0.0000
@<TRIPOS>BOND
     1    39    38    1
     2    37    36    1
     3    37    38    1
     4    36    35    1
     5    38    40    1
     6    35    33    1
     7    33    34    1
     8    33    32    2
     9    32    31    1
    10    31    30    2
    11    30    28    1
    12    29    28    1
    13    28    27    2
    14    27    26    1
    15    26    25    2
    16    24    23    1
    17    25    23    1
    18    23    22    2
    19    22    21    1
    20    21    20    2
    21    20    19    1
    22    19    17    2
    23    17    18    1
    24    17    16    1
    25    16    15    2
    26    15    14    1
    27    14    12    1
    28    12    13    1
    29    12    11    1
    30    11    10    1
    31    10     9    1
    32     8     7    1
    33     9     7    1
    34     7     6    1
    35     6     5    1
    36     5     4    1
    37     4     1    1
    38     1     3    1
    39     1     2    1
