@<TRIPOS>MOLECULE
1vrn_UQ7_L_1.pdb
 48 48 0 0 0
SMALL
GASTEIGER

@<TRIPOS>ATOM
      1  C1        40.2270  -20.3170    3.7040 C.2   502  UQ7502      0.2285
      2  C2        38.7980  -20.5130    3.4520 C.2   502  UQ7502      0.2140
      3  C3        38.2910  -20.3410    2.1970 C.2   502  UQ7502      0.2140
      4  C4        39.1710  -19.9720    1.0970 C.2   502  UQ7502      0.2282
      5  C5        40.5960  -19.7790    1.3400 C.2   502  UQ7502      0.0198
      6  C6        41.1220  -19.9440    2.6060 C.2   502  UQ7502      0.0235
      7  CM2       38.0980  -22.2680    4.8600 C.3   502  UQ7502      0.2528
      8  CM3       36.4870  -21.4300    1.0040 C.3   502  UQ7502      0.2528
      9  CM5       41.4320  -19.4030    0.1240 C.3   502  UQ7502      0.0343
     10  C7        42.6270  -19.7720    2.8540 C.3   502  UQ7502      0.0548
     11  C8        43.0050  -18.4750    3.3730 C.2   502  UQ7502     -0.0298
     12  C9        43.9910  -18.1200    4.2890 C.2   502  UQ7502     -0.0475
     13  C10       44.9140  -19.1170    5.0160 C.3   502  UQ7502      0.0260
     14  C11       44.2680  -16.6570    4.6650 C.3   502  UQ7502      0.0264
     15  C12       45.1350  -16.1330    3.5270 C.3   502  UQ7502      0.0297
     16  C13       45.4690  -14.7310    3.5660 C.2   502  UQ7502     -0.0342
     17  C14       45.9200  -13.9400    2.5110 C.2   502  UQ7502     -0.0478
     18  C15       46.1200  -14.4960    1.0840 C.3   502  UQ7502      0.0260
     19  C16       46.2620  -12.4430    2.6130 C.3   502  UQ7502      0.0263
     20  O1        40.6800  -20.4600    4.8320 O.2   502  UQ7502     -0.2835
     21  O2        38.0500  -20.9300    4.4790 O.2   502  UQ7502     -0.4652
     22  O3        36.9780  -20.4750    1.8780 O.2   502  UQ7502     -0.4652
     23  O4        38.7270  -19.8480   -0.0120 O.2   502  UQ7502     -0.2836
     24  C17       47.1230  -12.0580    3.8080 C.3   502  UQ7502      0.0297
     25  C18       47.6120  -10.7080    3.6640 C.2   502  UQ7502     -0.0342
     26  C19       47.1900   -9.4670    4.1290 C.2   502  UQ7502     -0.0478
     27  C20       45.9810   -9.2360    5.0530 C.3   502  UQ7502      0.0260
     28  C21       47.9420   -8.1760    3.7840 C.3   502  UQ7502      0.0263
     29  C22       48.1140   -7.9520    2.2860 C.3   502  UQ7502      0.0297
     30  C23       49.5060   -7.6870    1.9690 C.2   502  UQ7502     -0.0342
     31  C24       50.1420   -7.3740    0.7720 C.2   502  UQ7502     -0.0478
     32  C25       49.4380   -7.2410   -0.5830 C.3   502  UQ7502      0.0260
     33  C26       51.6530   -7.1240    0.6360 C.3   502  UQ7502      0.0263
     34  C27       52.3270   -6.1110    1.5600 C.3   502  UQ7502      0.0297
     35  C28       51.9410   -4.6970    1.4520 C.2   502  UQ7502     -0.0342
     36  C29       51.1230   -3.9390    2.2840 C.2   502  UQ7502     -0.0478
     37  C30       50.4420   -4.5260    3.5420 C.3   502  UQ7502      0.0260
     38  C31       50.8430   -2.4520    2.0180 C.3   502  UQ7502      0.0263
     39  C32       50.0590   -1.7450    3.1170 C.3   502  UQ7502      0.0297
     40  C33       49.9780   -0.2980    2.9970 C.2   502  UQ7502     -0.0342
     41  C34       50.9860    0.6560    2.8890 C.2   502  UQ7502     -0.0478
     42  C35       52.4920    0.3230    2.8510 C.3   502  UQ7502      0.0260
     43  C36       50.7140    2.1640    2.8030 C.3   502  UQ7502      0.0263
     44  C37       50.0190    2.7500    1.5800 C.3   502  UQ7502      0.0297
     45  C38       49.7920    4.1560    1.8830 C.2   502  UQ7502     -0.0342
     46  C39       48.8760    4.7540    2.7470 C.2   502  UQ7502     -0.0478
     47  C40       47.8200    3.9790    3.5520 C.3   502  UQ7502      0.0260
     48  C41       48.7610    6.2650    3.0010 C.3   502  UQ7502      0.0260
@<TRIPOS>BOND
     1    32    31    1
     2    23     4    2
     3     9     5    1
     4    33    31    1
     5    33    34    1
     6    31    30    2
     7     8    22    1
     8    18    17    1
     9     4     5    1
    10     4     3    1
    11     5     6    2
    12    35    34    1
    13    35    36    2
    14    44    45    1
    15    44    43    1
    16    22     3    1
    17    45    46    2
    18    30    29    1
    19    38    36    1
    20    38    39    1
    21     3     2    2
    22    36    37    1
    23    29    28    1
    24    17    19    1
    25    17    16    2
    26     6    10    1
    27     6     1    1
    28    19    24    1
    29    46    48    1
    30    46    47    1
    31    43    41    1
    32    42    41    1
    33    10    11    1
    34    41    40    2
    35    40    39    1
    36    11    12    2
    37     2     1    1
    38     2    21    1
    39    15    16    1
    40    15    14    1
    41    25    24    1
    42    25    26    2
    43     1    20    2
    44    28    26    1
    45    26    27    1
    46    12    14    1
    47    12    13    1
    48    21     7    1
