@<TRIPOS>MOLECULE
1vrp_ADP_A_1.pdb
 27 29 0 0 0
SMALL
GASTEIGER

@<TRIPOS>ATOM
      1  PB        23.3740   32.7750   49.6300 P.3   400  ADP400      0.5373
      2  O1B       23.7060   33.7850   48.6240 O.2   400  ADP400     -0.2221
      3  O2B       21.9240   32.7620   49.8940 O.3   400  ADP400     -0.1143
      4  O3B       23.8720   31.4370   49.2020 O.3   400  ADP400     -0.1143
      5  PA        24.7840   34.4370   51.6200 P.3   400  ADP400      0.2231
      6  O1A       23.9450   35.5340   51.0660 O.2   400  ADP400     -0.5169
      7  O2A       26.2350   34.5840   51.3620 O.3   400  ADP400     -0.4370
      8  O3A       24.2750   33.2670   50.9760 O.3   400  ADP400     -0.2261
      9  O5'       24.4740   33.9060   52.9780 O.3   400  ADP400     -0.3111
     10  C5'       23.0910   33.8140   53.3510 C.3   400  ADP400      0.1813
     11  C4'       22.9610   33.0340   54.6590 C.3   400  ADP400      0.1821
     12  O4'       23.2970   31.6440   54.4540 O.3   400  ADP400     -0.3135
     13  C3'       23.8860   33.5330   55.7600 C.3   400  ADP400      0.2184
     14  O3'       23.1890   33.5410   57.0150 O.3   400  ADP400     -0.2174
     15  C2'       25.0420   32.5530   55.7520 C.3   400  ADP400      0.2570
     16  O2'       25.7710   32.5900   56.9750 O.3   400  ADP400     -0.2130
     17  C1'       24.2970   31.2650   55.4320 C.3   400  ADP400      0.3186
     18  N9        25.2030   30.1970   54.8990 N.pl3 400  ADP400     -0.1439
     19  C8        25.8820   30.1510   53.7340 C.3   400  ADP400      0.3377
     20  N7        26.5970   29.0140   53.6340 N.2   400  ADP400     -0.2095
     21  C5        26.3350   28.3670   54.7630 C.2   400  ADP400      0.2526
     22  C6        26.8570   27.1040   55.1480 C.2   400  ADP400      0.4393
     23  N6        27.6960   26.3830   54.3990 N.pl3 400  ADP400      0.2180
     24  N1        26.4350   26.6420   56.3620 N.2   400  ADP400      0.0021
     25  C2        25.5900   27.3530   57.1310 C.3   400  ADP400      0.5254
     26  N3        25.1020   28.5520   56.7630 N.2   400  ADP400     -0.0055
     27  C4        25.4710   29.0880   55.5690 C.2   400  ADP400      0.3518
@<TRIPOS>BOND
     1     2     1    2
     2     4     1    1
     3     1     3    1
     4     1     8    1
     5     8     5    1
     6     6     5    2
     7     7     5    1
     8     5     9    1
     9     9    10    1
    10    10    11    1
    11    20    19    1
    12    20    21    2
    13    19    18    1
    14    23    22    1
    15    12    11    1
    16    12    17    1
    17    11    13    1
    18    21    22    1
    19    21    27    1
    20    18    17    1
    21    18    27    1
    22    22    24    2
    23    17    15    1
    24    27    26    2
    25    15    13    1
    26    15    16    1
    27    13    14    1
    28    24    25    1
    29    26    25    1
