@<TRIPOS>MOLECULE
1vrt_NVP_A_1.pdb
 20 23 0 0 0
SMALL
GASTEIGER

@<TRIPOS>ATOM
      1  N1         1.7670  -37.6730   21.8260 N.pl3 999  NVP999     -0.1562
      2  CA         2.3440  -38.7570   21.0360 C.3   999  NVP999      0.1667
      3  CB         1.6390  -40.0610   21.0880 C.3   999  NVP999      0.0512
      4  CC         2.9380  -39.8900   21.8010 C.3   999  NVP999      0.0512
      5  N3         4.0540  -36.9310   22.2210 N.2   999  NVP999     -0.0337
      6  C4         4.9660  -36.2380   22.9390 C.2   999  NVP999      0.2316
      7  C5         4.6240  -35.4500   24.0360 C.2   999  NVP999      0.0313
      8  C6         3.3050  -35.3690   24.4150 C.3   999  NVP999      0.0868
      9  CD         2.9040  -34.5090   25.6010 C.3   999  NVP999      0.0126
     10  C2         2.7540  -36.8570   22.5840 C.2   999  NVP999      0.3559
     11  C7         2.3460  -36.0770   23.6860 C.2   999  NVP999      0.2076
     12  N8         0.9890  -36.0280   24.1030 N.2   999  NVP999     -0.3293
     13  C9        -0.1450  -36.0180   23.4080 C.1   999  NVP999      0.2096
     14  OE        -1.2400  -35.9060   23.9770 O.2   999  NVP999     -0.2091
     15  C10       -0.1190  -36.0770   21.8860 C.ar  999  NVP999      0.1506
     16  C15        0.7040  -36.9790   21.1800 C.ar  999  NVP999      0.2365
     17  C11       -1.1230  -35.3990   21.1890 C.ar  999  NVP999      0.0194
     18  C12       -1.2960  -35.6300   19.8690 C.ar  999  NVP999      0.0217
     19  C13       -0.4670  -36.5450   19.2400 C.ar  999  NVP999      0.1025
     20  N14        0.5220  -37.2120   19.8740 N.ar  999  NVP999     -0.2068
@<TRIPOS>BOND
     1    19    18   ar
     2    19    20   ar
     3    18    17   ar
     4    20    16   ar
     5     2     3    1
     6     2     4    1
     7     2     1    1
     8     3     4    1
     9    16     1    1
    10    16    15   ar
    11    17    15   ar
    12     1    10    1
    13    15    13    1
    14     5    10    2
    15     5     6    1
    16    10    11    1
    17     6     7    2
    18    13    14    2
    19    13    12    2
    20    11    12    2
    21    11     8    1
    22     7     8    1
    23     8     9    1
