@<TRIPOS>MOLECULE
1vru_AAP_A_1.pdb
 23 24 0 0 0
SMALL
GASTEIGER

@<TRIPOS>ATOM
      1  C          1.3940  -39.5760   22.0630 C.2   999  AAP999      0.2848
      2  CA         1.4470  -38.0900   22.2840 C.3   999  AAP999      0.1953
      3  O          0.3870  -40.0320   21.5120 O.2   999  AAP999     -0.2694
      4  N          2.4110  -40.3380   22.4690 N.am  999  AAP999     -0.0860
      5  C1         0.5470  -37.2830   21.3060 C.ar  999  AAP999      0.0273
      6  C2         0.7670  -37.3320   19.9340 C.ar  999  AAP999      0.0566
      7  C3        -0.0520  -36.5780   19.0820 C.ar  999  AAP999      0.0112
      8  C4        -1.0760  -35.7550   19.6090 C.ar  999  AAP999      0.0017
      9  C5        -1.2820  -35.7070   20.9710 C.ar  999  AAP999      0.0112
     10  C6        -0.4750  -36.4490   21.8140 C.ar  999  AAP999      0.0566
     11 CL2         2.1020  -38.1980   19.2190 Cl    999  AAP999     -0.0825
     12 CL6        -0.7520  -36.2920   23.4880 Cl    999  AAP999     -0.0825
     13  N'         2.8180  -37.6390   22.2900 N.pl3 999  AAP999     -0.2253
     14  C1'        3.3580  -36.6160   23.0490 C.ar  999  AAP999      0.0686
     15  C2'        4.6660  -36.1520   22.8150 C.ar  999  AAP999      0.0495
     16  C3'        5.1620  -35.1660   23.6300 C.ar  999  AAP999      0.0038
     17  C4'        4.3960  -34.6280   24.6440 C.ar  999  AAP999     -0.0041
     18  C5'        3.1160  -35.0700   24.8690 C.ar  999  AAP999     -0.0206
     19  C6'        2.5950  -36.0620   24.0690 C.ar  999  AAP999      0.0119
     20  C'         5.5520  -36.6660   21.6550 C.2   999  AAP999      0.1747
     21  O'         5.1610  -37.5720   20.9000 O.2   999  AAP999     -0.2913
     22  CM'        6.9130  -36.0400   21.3660 C.3   999  AAP999      0.0773
     23  CM5        2.2760  -34.4310   25.9850 C.3   999  AAP999      0.0311
@<TRIPOS>BOND
     1     7     8   ar
     2     7     6   ar
     3    11     6    1
     4     8     9   ar
     5     6     5   ar
     6    21    20    2
     7     9    10   ar
     8     5    10   ar
     9     5     2    1
    10    22    20    1
    11     3     1    2
    12    20    15    1
    13    10    12    1
    14     1     2    1
    15     1     4   am
    16     2    13    1
    17    13    14    1
    18    15    14   ar
    19    15    16   ar
    20    14    19   ar
    21    16    17   ar
    22    19    18   ar
    23    17    18   ar
    24    18    23    1
