@<TRIPOS>MOLECULE
1vrw_NAD_A_1.pdb
 44 48 0 0 0
SMALL
GASTEIGER

@<TRIPOS>ATOM
      1  PA        51.4360   89.5790   40.7440 P.3   450  NAD450      0.2189
      2  O1A       51.1090   89.5640   42.2080 O.3   450  NAD450     -0.4371
      3  O2A       52.8940   89.7070   40.3360 O.2   450  NAD450     -0.5170
      4  O5B       50.7800   88.1900   40.1590 O.3   450  NAD450     -0.3112
      5  C5B       51.1660   87.4120   38.9990 C.3   450  NAD450      0.1813
      6  C4B       51.4940   86.0110   39.4170 C.3   450  NAD450      0.1821
      7  O4B       51.6800   85.0660   38.3130 O.3   450  NAD450     -0.3135
      8  C3B       52.7810   85.9400   40.2520 C.3   450  NAD450      0.2184
      9  O3B       52.3480   85.7730   41.6260 O.3   450  NAD450     -0.2174
     10  C2B       53.5690   84.7410   39.6960 C.3   450  NAD450      0.2570
     11  O2B       54.0850   83.9690   40.7510 O.3   450  NAD450     -0.2130
     12  C1B       52.5560   84.0170   38.7660 C.3   450  NAD450      0.3186
     13  N9A       53.1770   83.3850   37.5650 N.pl3 450  NAD450     -0.1439
     14  C8A       54.0410   83.6180   36.5100 C.3   450  NAD450      0.3377
     15  N7A       54.2340   82.6040   35.6780 N.2   450  NAD450     -0.2095
     16  C5A       53.4340   81.5990   36.2110 C.2   450  NAD450      0.2526
     17  C6A       53.1980   80.2740   35.8190 C.2   450  NAD450      0.4393
     18  N6A       53.7680   79.7060   34.7720 N.pl3 450  NAD450      0.2180
     19  N1A       52.3510   79.5320   36.5640 N.2   450  NAD450      0.0021
     20  C2A       51.7190   80.0970   37.6130 C.3   450  NAD450      0.5254
     21  N3A       51.9100   81.3110   38.1430 N.2   450  NAD450     -0.0055
     22  C4A       52.7740   82.0550   37.3680 C.2   450  NAD450      0.3518
     23  O3        50.9270   90.6920   39.8420 O.3   450  NAD450     -0.2703
     24  PN        49.5870   91.2870   39.5840 P.3   450  NAD450      0.2189
     25  O1N       48.7140   91.3740   40.8050 O.3   450  NAD450     -0.4371
     26  O2N       49.8840   92.5340   38.8240 O.2   450  NAD450     -0.5170
     27  O5D       49.0490   90.3940   38.3660 O.3   450  NAD450     -0.3112
     28  C5D       47.9120   89.5250   38.4260 C.3   450  NAD450      0.1813
     29  C4D       47.0610   89.7640   37.1640 C.3   450  NAD450      0.1799
     30  O4D       46.5140   91.1350   37.1650 O.3   450  NAD450     -0.3327
     31  C3D       47.9110   89.5970   35.9000 C.3   450  NAD450      0.2158
     32  O3D       47.2020   88.7590   35.0490 O.3   450  NAD450     -0.2175
     33  C2D       48.0190   90.9990   35.3990 C.3   450  NAD450      0.2309
     34  O2D       48.1930   91.0430   34.0110 O.3   450  NAD450     -0.2158
     35  C1D       46.7080   91.6010   35.8200 C.3   450  NAD450      0.2263
     36  N1N       46.6630   93.0720   35.7550 N.pl3 450  NAD450     -0.2787
     37  C2N       47.6260   93.8060   36.5070 C.3   450  NAD450      0.1244
     38  C3N       47.8100   95.1870   36.5570 C.2   450  NAD450      0.0544
     39  C7N       48.7970   95.9440   37.3650 C.2   450  NAD450      0.2818
     40  O7N       49.0400   97.2540   37.2100 O.2   450  NAD450     -0.2670
     41  N7N       49.5390   95.4190   38.3310 N.am  450  NAD450     -0.0839
     42  C4N       46.7940   95.8000   35.8230 C.2   450  NAD450      0.0033
     43  C5N       45.7150   95.1790   35.0910 C.2   450  NAD450      0.0157
     44  C6N       45.6730   93.7310   35.0550 C.2   450  NAD450      0.0633
@<TRIPOS>BOND
     1    34    33    1
     2    18    17    1
     3    32    31    1
     4    44    43    2
     5    44    36    1
     6    43    42    1
     7    33    35    1
     8    33    31    1
     9    15    16    2
    10    15    14    1
    11    36    35    1
    12    36    37    1
    13    17    16    1
    14    17    19    2
    15    35    30    1
    16    42    38    2
    17    31    29    1
    18    16    22    1
    19    37    38    1
    20    14    13    1
    21    38    39    1
    22    19    20    1
    23    29    30    1
    24    29    28    1
    25    40    39    2
    26    39    41   am
    27    22    13    1
    28    22    21    2
    29    13    12    1
    30    20    21    1
    31     7    12    1
    32     7     6    1
    33    27    28    1
    34    27    24    1
    35    12    10    1
    36    26    24    2
    37     5     6    1
    38     5     4    1
    39     6     8    1
    40    24    23    1
    41    24    25    1
    42    10     8    1
    43    10    11    1
    44    23     1    1
    45     4     1    1
    46     8     9    1
    47     3     1    2
    48     1     2    1
