@<TRIPOS>MOLECULE
1vsd_EPE_A_1.pdb
 15 15 0 0 0
SMALL
GASTEIGER

@<TRIPOS>ATOM
      1  N1        62.1840   47.7750   52.5420 N.3   261  EPE261     -0.2689
      2  C2        63.6480   47.5920   52.7750 C.3   261  EPE261      0.0897
      3  C3        64.5640   47.8170   51.5580 C.3   261  EPE261      0.0897
      4  N4        64.0410   47.3090   50.2570 N.3   261  EPE261     -0.2681
      5  C5        62.5980   47.7010   50.0660 C.3   261  EPE261      0.0897
      6  C6        61.7090   47.2190   51.2350 C.3   261  EPE261      0.0897
      7  C7        64.8910   47.5280   49.0430 C.3   261  EPE261      0.1081
      8  C8        66.3810   47.2860   49.3080 C.3   261  EPE261      0.1993
      9  O8        66.7640   46.0410   49.8340 O.3   261  EPE261     -0.2189
     10  C9        61.3580   47.3100   53.6810 C.3   261  EPE261      0.0939
     11  C10       61.2420   48.3040   54.8350 C.3   261  EPE261      0.1225
     12  S         60.0660   47.7550   56.1110 S.3   261  EPE261     -0.1946
     13  O1S       59.9870   48.7750   57.1680 O.3   261  EPE261     -0.3074
     14  O2S       60.3210   46.3760   56.4700 O.3   261  EPE261     -0.3074
     15  O3S       58.5690   47.9550   55.3860 O.3   261  EPE261     -0.3074
@<TRIPOS>BOND
     1     7     8    1
     2     7     4    1
     3     8     9    1
     4     5     4    1
     5     5     6    1
     6     4     3    1
     7     6     1    1
     8     3     2    1
     9     1     2    1
    10     1    10    1
    11    10    11    1
    12    11    12    1
    13    15    12    1
    14    12    14    1
    15    12    13    1
