@<TRIPOS>MOLECULE
1vse_EPE_A_1.pdb
 15 15 0 0 0
SMALL
GASTEIGER

@<TRIPOS>ATOM
      1  N1        62.3390   47.8130   52.7150 N.3   261  EPE261     -0.2689
      2  C2        63.7990   47.5200   52.9170 C.3   261  EPE261      0.0897
      3  C3        64.6840   47.9510   51.7600 C.3   261  EPE261      0.0897
      4  N4        64.2370   47.3520   50.4700 N.3   261  EPE261     -0.2681
      5  C5        62.7650   47.6070   50.2700 C.3   261  EPE261      0.0897
      6  C6        61.8510   47.2320   51.4410 C.3   261  EPE261      0.0897
      7  C7        65.0140   47.6680   49.2520 C.3   261  EPE261      0.1081
      8  C8        66.4750   47.2520   49.2070 C.3   261  EPE261      0.1993
      9  O8        66.9130   46.0630   49.8030 O.3   261  EPE261     -0.2189
     10  C9        61.6060   47.3750   53.9150 C.3   261  EPE261      0.0939
     11  C10       61.2370   48.5210   54.8050 C.3   261  EPE261      0.1225
     12  S         60.1450   47.9700   56.1460 S.3   261  EPE261     -0.1946
     13  O1S       60.1890   48.9860   57.1710 O.3   261  EPE261     -0.3074
     14  O2S       60.3320   46.6270   56.6350 O.3   261  EPE261     -0.3074
     15  O3S       58.7170   48.0350   55.3130 O.3   261  EPE261     -0.3074
@<TRIPOS>BOND
     1     8     7    1
     2     8     9    1
     3     7     4    1
     4     5     4    1
     5     5     6    1
     6     4     3    1
     7     6     1    1
     8     3     2    1
     9     1     2    1
    10     1    10    1
    11    10    11    1
    12    11    12    1
    13    15    12    1
    14    12    14    1
    15    12    13    1
