@<TRIPOS>MOLECULE
1vsf_EPE_A_1.pdb
 15 15 0 0 0
SMALL
GASTEIGER

@<TRIPOS>ATOM
      1  N1        62.2980   47.7780   52.5790 N.3   261  EPE261     -0.2689
      2  C2        63.7410   47.5430   52.8940 C.3   261  EPE261      0.0897
      3  C3        64.7410   47.8630   51.7720 C.3   261  EPE261      0.0897
      4  N4        64.2840   47.2640   50.4860 N.3   261  EPE261     -0.2681
      5  C5        62.8420   47.6550   50.2370 C.3   261  EPE261      0.0897
      6  C6        61.8920   47.1320   51.3020 C.3   261  EPE261      0.0897
      7  C7        65.1180   47.5740   49.2950 C.3   261  EPE261      0.1081
      8  C8        66.6090   47.3030   49.4790 C.3   261  EPE261      0.1993
      9  O8        66.9180   45.9820   49.8540 O.3   261  EPE261     -0.2189
     10  C9        61.4980   47.3420   53.7490 C.3   261  EPE261      0.0939
     11  C10       61.4190   48.4300   54.8020 C.3   261  EPE261      0.1225
     12  S         60.1900   47.9980   56.0550 S.3   261  EPE261     -0.1946
     13  O1S       60.2890   49.0000   57.1220 O.3   261  EPE261     -0.3074
     14  O2S       60.2720   46.6270   56.5080 O.3   261  EPE261     -0.3074
     15  O3S       58.7420   48.2180   55.3320 O.3   261  EPE261     -0.3074
@<TRIPOS>BOND
     1     7     8    1
     2     7     4    1
     3     8     9    1
     4     5     4    1
     5     5     6    1
     6     4     3    1
     7     6     1    1
     8     3     2    1
     9     1     2    1
    10     1    10    1
    11    10    11    1
    12    11    12    1
    13    15    12    1
    14    12    14    1
    15    12    13    1
