@<TRIPOS>MOLECULE
1vsn_NFT_A_1.pdb
 33 34 0 0 0
SMALL
GASTEIGER

@<TRIPOS>ATOM
      1  C46       -6.1900   24.6940    7.2220 C.ar  283  NFT283      0.0001
      2  C08       -3.9650   25.6090    6.5830 C.ar  283  NFT283     -0.0003
      3  C09       -4.9350   24.5680    6.5520 C.ar  283  NFT283     -0.0000
      4  C10       -4.5770   23.3670    5.8320 C.ar  283  NFT283     -0.0003
      5  C11       -3.3280   23.2740    5.2140 C.ar  283  NFT283     -0.0027
      6  C07       -2.6920   25.4990    5.9580 C.ar  283  NFT283     -0.0027
      7  C06       -2.3760   24.3380    5.2790 C.ar  283  NFT283      0.0018
      8  C15       -1.0180   24.2380    4.6400 C.3   283  NFT283      0.1905
      9  C16       -0.9860   24.9190    3.2150 C.3   283  NFT283      0.4157
     10  F35       -2.0390   24.5580    2.4420 F     283  NFT283     -0.1681
     11  F36       -1.0050   26.2760    3.2870 F     283  NFT283     -0.1681
     12  F37        0.1240   24.5930    2.5000 F     283  NFT283     -0.1681
     13  N26        1.6450   21.2740    5.3060 N.am  283  NFT283     -0.1976
     14  C41        1.5660   19.8650    5.6750 C.3   283  NFT283      0.1637
     15  N24        0.0270   24.4460    5.4490 N.3   283  NFT283     -0.1990
     16  C17        1.2480   23.6280    5.4390 C.3   283  NFT283      0.1510
     17  C18        2.3600   24.3240    6.1560 C.3   283  NFT283      0.0268
     18  C19        3.1980   25.5110    5.6400 C.3   283  NFT283      0.0019
     19  C20        2.6860   26.1420    4.3520 C.3   283  NFT283      0.0001
     20  C21        3.2440   26.5420    6.7290 C.3   283  NFT283      0.0001
     21  C22        1.0670   22.2530    5.9860 C.2   283  NFT283      0.2576
     22  O23        0.4220   22.0650    7.0060 O.2   283  NFT283     -0.2718
     23  C47       -7.3950   24.2250    6.6140 C.ar  283  NFT283      0.0014
     24  C48       -8.6080   24.3170    7.2770 C.ar  283  NFT283      0.0200
     25  C50       -8.6540   24.8740    8.5690 C.ar  283  NFT283      0.1250
     26  C51       -7.4920   25.3490    9.1910 C.ar  283  NFT283      0.0200
     27  C52       -6.2700   25.2610    8.5310 C.ar  283  NFT283      0.0014
     28  S60      -10.1260   24.7790    9.4760 S.O2  283  NFT283      0.0935
     29  N63       -9.8050   23.5450   10.5960 N.3   283  NFT283      0.0392
     30  O61      -10.3390   26.0180   10.1400 O.2   283  NFT283     -0.1503
     31  O62      -11.1780   24.3560    8.5750 O.2   283  NFT283     -0.1503
     32  C44        2.6990   19.4010    6.5420 C.2   283  NFT283      0.1193
     33  N45        2.8200   18.1450    6.8060 N.2   283  NFT283     -0.1495
@<TRIPOS>BOND
     1    10     9    1
     2    12     9    1
     3     9    11    1
     4     9     8    1
     5    19    18    1
     6     8     7    1
     7     8    15    1
     8     5     7   ar
     9     5     4   ar
    10     7     6   ar
    11    13    14    1
    12    13    21   am
    13    16    15    1
    14    16    21    1
    15    16    17    1
    16    18    17    1
    17    18    20    1
    18    14    32    1
    19     4     3   ar
    20     6     2   ar
    21    21    22    2
    22    32    33    2
    23     3     2   ar
    24     3     1    1
    25    23     1   ar
    26    23    24   ar
    27     1    27   ar
    28    24    25   ar
    29    27    26   ar
    30    25    26   ar
    31    25    28    1
    32    31    28    2
    33    28    30    2
    34    28    29    1
