@<TRIPOS>MOLECULE
1vso_AT1_A_1.pdb
 21 21 0 0 0
SMALL
GASTEIGER

@<TRIPOS>ATOM
      1  N         41.8390    5.0010    5.1840 N.3   258  AT1258     -0.1205
      2  C         39.4930    5.8860    5.5700 C.3   258  AT1258      0.0646
      3  O         41.0750    4.6780    2.6580 O.co2 258  AT1258     -0.2440
      4  C1        40.3370    4.7540    4.9780 C.3   258  AT1258      0.1989
      5  C2        40.0710    4.5890    3.4290 C.2   258  AT1258      0.3822
      6  O1        38.8910    4.3770    3.0650 O.co2 258  AT1258     -0.2440
      7  O2        39.4480    6.2390    9.2710 O.2   258  AT1258     -0.3552
      8  O3        38.0380    3.8840    7.1560 O.3   258  AT1258     -0.4504
      9  N1        38.6860    5.0620    9.0890 N.ar  258  AT1258     -0.0395
     10  C3        40.6750    8.0160    8.2000 C.3   258  AT1258      0.0536
     11  C4        37.2820    2.9370    7.9810 C.3   258  AT1258      0.2643
     12  C5        38.6710    4.8910    7.7880 C.ar  258  AT1258      0.2600
     13  C6        39.3920    5.8970    7.0660 C.ar  258  AT1258      0.0687
     14  C7        39.8570    6.7270    8.0670 C.ar  258  AT1258      0.1527
     15  C9        39.7510    9.0910    8.8210 C.3   258  AT1258      0.0076
     16  C10       41.8670    7.7950    9.1260 C.3   258  AT1258      0.0076
     17  C11       41.1810    8.5560    6.8690 C.3   258  AT1258      0.0076
     18  P         36.2720    1.9120    6.8820 P.3   258  AT1258      0.1615
     19  O4        37.1590    1.1790    5.9410 O.2   258  AT1258     -0.4564
     20  O5        35.4750    1.0470    7.8200 O.3   258  AT1258     -0.3547
     21  O6        35.2950    2.8940    6.1530 O.3   258  AT1258     -0.3547
@<TRIPOS>BOND
     1     3     5   ar
     2     6     5   ar
     3     5     4    1
     4     4     1    1
     5     4     2    1
     6     2    13    1
     7    19    18    2
     8    21    18    1
     9    17    10    1
    10    18    20    1
    11    18    11    1
    12    13    12   ar
    13    13    14   ar
    14     8    12    1
    15     8    11    1
    16    12     9   ar
    17    14    10    1
    18    14     7   ar
    19    10    15    1
    20    10    16    1
    21     9     7   ar
