@<TRIPOS>MOLECULE
1vst_GTP_A_1.pdb
 32 34 0 0 0
SMALL
GASTEIGER

@<TRIPOS>ATOM
      1  PG        26.8190   55.9060   36.9520 P.3   301  GTP301      0.5373
      2  O1G       26.2280   55.8790   35.5860 O.2   301  GTP301     -0.2221
      3  O2G       25.8740   56.4830   37.9660 O.3   301  GTP301     -0.1143
      4  O3G       28.0500   56.6980   36.9150 O.3   301  GTP301     -0.1143
      5  O3B       27.1780   54.4780   37.3500 O.3   301  GTP301     -0.2258
      6  PB        27.2670   53.8500   38.7910 P.3   301  GTP301      0.2277
      7  O1B       27.1990   54.9200   39.8100 O.3   301  GTP301     -0.4368
      8  O2B       28.5160   53.0510   38.8900 O.2   301  GTP301     -0.5168
      9  O3A       26.0410   52.9350   38.8560 O.3   301  GTP301     -0.2700
     10  PA        24.8420   52.8150   39.8580 P.3   301  GTP301      0.2189
     11  O1A       25.1360   53.6950   41.0560 O.3   301  GTP301     -0.4371
     12  O2A       24.6620   51.3430   40.1280 O.2   301  GTP301     -0.5170
     13  O5'       23.6800   53.4500   38.9900 O.3   301  GTP301     -0.3112
     14  C5'       23.3950   53.1700   37.6390 C.3   301  GTP301      0.1813
     15  C4'       22.2410   54.0170   37.2830 C.3   301  GTP301      0.1799
     16  O4'       21.2510   54.0170   38.3630 O.3   301  GTP301     -0.3326
     17  C3'       22.5710   55.4870   37.0580 C.3   301  GTP301      0.2158
     18  O3'       22.9570   55.7300   35.7040 O.3   301  GTP301     -0.2175
     19  C2'       21.3100   56.1910   37.5210 C.3   301  GTP301      0.2310
     20  O2'       20.3990   56.3970   36.4020 O.3   301  GTP301     -0.2158
     21  C1'       20.6550   55.3120   38.5340 C.3   301  GTP301      0.2293
     22  N9        20.8620   55.7000   39.9670 N.pl3 301  GTP301     -0.2354
     23  C8        21.9290   55.3600   40.7970 C.3   301  GTP301      0.2246
     24  N7        21.8670   55.8600   41.9980 N.2   301  GTP301     -0.2322
     25  C5        20.6830   56.5660   42.0020 C.2   301  GTP301      0.2182
     26  C6        20.0540   57.3340   43.0590 C.1   301  GTP301      0.2372
     27  O6        20.4500   57.5220   44.2050 O.2   301  GTP301     -0.2069
     28  N1        18.8070   57.9370   42.6500 N.2   301  GTP301     -0.2485
     29  C2        18.2390   57.7950   41.3870 C.1   301  GTP301      0.2531
     30  N2        17.0710   58.4150   41.1990 N.pl3 301  GTP301     -0.0226
     31  N3        18.8170   57.0710   40.3920 N.2   301  GTP301     -0.3074
     32  C4        20.0410   56.4800   40.7580 C.2   301  GTP301      0.2300
@<TRIPOS>BOND
     1     2     1    2
     2    18    17    1
     3    20    19    1
     4     4     1    1
     5     1     5    1
     6     1     3    1
     7    17    15    1
     8    17    19    1
     9    15    14    1
    10    15    16    1
    11     5     6    1
    12    19    21    1
    13    14    13    1
    14    16    21    1
    15    21    22    1
    16     6     9    1
    17     6     8    2
    18     6     7    1
    19     9    10    1
    20    13    10    1
    21    10    12    2
    22    10    11    1
    23    22    32    1
    24    22    23    1
    25    31    32    2
    26    31    29    2
    27    32    25    1
    28    23    24    1
    29    30    29    1
    30    29    28    2
    31    24    25    2
    32    25    26    1
    33    28    26    2
    34    26    27    2
