@<TRIPOS>MOLECULE
1vst_PRP_A_1.pdb
 22 22 0 0 0
SMALL
GASTEIGER

@<TRIPOS>ATOM
      1  C1        35.4460   78.2640   31.7150 C.3   303  PRP303      0.2742
      2  C2        35.2010   76.8000   31.3180 C.3   303  PRP303      0.2408
      3  C3        36.4750   76.4500   30.5610 C.3   303  PRP303      0.2167
      4  C4        36.8250   77.7380   29.8510 C.3   303  PRP303      0.1808
      5  C5        36.4420   77.7410   28.4110 C.3   303  PRP303      0.1859
      6  O1        36.2690   78.2940   32.9240 O.3   303  PRP303     -0.2857
      7  O2        34.9580   76.0180   32.4990 O.3   303  PRP303     -0.2149
      8  O3        37.4840   76.0810   31.5400 O.3   303  PRP303     -0.2175
      9  O4        36.1280   78.8130   30.6300 O.3   303  PRP303     -0.3255
     10  O5        36.3940   79.0440   27.8250 O.3   303  PRP303     -0.2675
     11  P         37.3740   79.5630   26.6700 P.3   303  PRP303      0.5327
     12  O1P       38.7100   79.9370   27.2630 O.3   303  PRP303     -0.1145
     13  O2P       37.4630   78.4700   25.6180 O.2   303  PRP303     -0.2224
     14  O3P       36.6410   80.7860   26.1640 O.3   303  PRP303     -0.1145
     15  PA        36.1370   79.5470   33.9390 P.3   303  PRP303      0.2249
     16  O1A       37.3360   80.4230   33.8180 O.3   303  PRP303     -0.4370
     17  O2A       34.8360   80.2540   33.6950 O.2   303  PRP303     -0.5169
     18  O3A       36.1730   78.7570   35.3390 O.3   303  PRP303     -0.2260
     19  PB        35.2860   77.4280   35.7790 P.3   303  PRP303      0.5373
     20  O1B       36.2220   76.2730   35.4340 O.3   303  PRP303     -0.1143
     21  O2B       34.0120   77.4420   34.9560 O.2   303  PRP303     -0.2221
     22  O3B       35.0300   77.5800   37.2480 O.3   303  PRP303     -0.1143
@<TRIPOS>BOND
     1    13    11    2
     2    14    11    1
     3    11    12    1
     4    11    10    1
     5    10     5    1
     6     5     4    1
     7     4     3    1
     8     4     9    1
     9     3     2    1
    10     3     8    1
    11     9     1    1
    12     2     1    1
    13     2     7    1
    14     1     6    1
    15     6    15    1
    16    17    15    2
    17    16    15    1
    18    15    18    1
    19    21    19    2
    20    18    19    1
    21    20    19    1
    22    19    22    1
