@<TRIPOS>MOLECULE
1vsv_NAD_A_1.pdb
 44 48 0 0 0
SMALL
GASTEIGER

@<TRIPOS>ATOM
      1  PA        42.9970  122.9830   32.5150 P.3   340  NAD340      0.2189
      2  O1A       42.2800  122.1810   31.5140 O.2   340  NAD340     -0.5170
      3  O2A       44.4590  123.2720   32.2380 O.3   340  NAD340     -0.4371
      4  O5B       42.1540  124.3340   32.7130 O.3   340  NAD340     -0.3112
      5  C5B       42.5980  125.3500   33.5840 C.3   340  NAD340      0.1813
      6  C4B       42.0710  126.7040   33.0820 C.3   340  NAD340      0.1821
      7  O4B       42.5980  127.6780   33.9650 O.3   340  NAD340     -0.3135
      8  C3B       42.5950  127.0920   31.6800 C.3   340  NAD340      0.2184
      9  O3B       41.5390  127.2910   30.7460 O.3   340  NAD340     -0.2174
     10  C2B       43.4300  128.3440   31.9510 C.3   340  NAD340      0.2570
     11  O2B       43.5150  129.2830   30.9010 O.3   340  NAD340     -0.2130
     12  C1B       42.7400  128.8420   33.1910 C.3   340  NAD340      0.3186
     13  N9A       43.4220  129.8570   34.0180 N.pl3 340  NAD340     -0.1439
     14  C8A       44.7630  129.9760   34.3150 C.3   340  NAD340      0.3377
     15  N7A       44.9390  131.0480   35.1050 N.2   340  NAD340     -0.2095
     16  C5A       43.7410  131.6240   35.3280 C.2   340  NAD340      0.2526
     17  C6A       43.3080  132.7450   36.0610 C.2   340  NAD340      0.4393
     18  N6A       44.1680  133.4990   36.7340 N.pl3 340  NAD340      0.2180
     19  N1A       41.9490  133.0700   36.0820 N.2   340  NAD340      0.0021
     20  C2A       41.0210  132.2880   35.3790 C.3   340  NAD340      0.5254
     21  N3A       41.4390  131.1830   34.6530 N.2   340  NAD340     -0.0055
     22  C4A       42.7730  130.8680   34.6370 C.2   340  NAD340      0.3518
     23  O3        42.9300  122.2340   33.9380 O.3   340  NAD340     -0.2703
     24  PN        41.7900  121.2030   34.3940 P.3   340  NAD340      0.2189
     25  O1N       40.4650  121.7040   33.9450 O.3   340  NAD340     -0.4371
     26  O2N       42.1930  119.8490   33.9300 O.2   340  NAD340     -0.5170
     27  O5D       41.8800  121.2090   35.9810 O.3   340  NAD340     -0.3112
     28  C5D       41.5570  122.3620   36.7190 C.3   340  NAD340      0.1813
     29  C4D       41.6720  122.0560   38.2100 C.3   340  NAD340      0.1799
     30  O4D       40.8600  120.9160   38.4860 O.3   340  NAD340     -0.3327
     31  C3D       43.0690  121.6830   38.6910 C.3   340  NAD340      0.2158
     32  O3D       43.2370  122.1870   40.0080 O.3   340  NAD340     -0.2175
     33  C2D       43.0730  120.1830   38.6430 C.3   340  NAD340      0.2309
     34  O2D       44.0790  119.6020   39.4270 O.3   340  NAD340     -0.2158
     35  C1D       41.6340  119.8940   39.0770 C.3   340  NAD340      0.2263
     36  N1N       41.0500  118.5780   38.6670 N.pl3 340  NAD340     -0.2787
     37  C2N       41.2420  118.1450   37.3500 C.3   340  NAD340      0.1244
     38  C3N       40.7130  116.9120   36.9400 C.2   340  NAD340      0.0544
     39  C7N       40.9230  116.4420   35.5280 C.2   340  NAD340      0.2818
     40  O7N       40.3980  115.2270   35.1910 O.2   340  NAD340     -0.2670
     41  N7N       41.5810  117.1270   34.6030 N.am  340  NAD340     -0.0839
     42  C4N       39.9870  116.1320   37.8800 C.2   340  NAD340      0.0033
     43  C5N       39.7980  116.5850   39.2050 C.2   340  NAD340      0.0157
     44  C6N       40.3410  117.8200   39.5870 C.2   340  NAD340      0.0633
@<TRIPOS>BOND
     1     9     8    1
     2    11    10    1
     3     2     1    2
     4     8    10    1
     5     8     6    1
     6    10    12    1
     7     3     1    1
     8     1     4    1
     9     1    23    1
    10     4     5    1
    11     6     5    1
    12     6     7    1
    13    12     7    1
    14    12    13    1
    15    26    24    2
    16    23    24    1
    17    25    24    1
    18    13    14    1
    19    13    22    1
    20    14    15    1
    21    24    27    1
    22    41    39   am
    23    22    21    2
    24    22    16    1
    25    21    20    1
    26    15    16    2
    27    40    39    2
    28    16    17    1
    29    20    19    1
    30    39    38    1
    31    27    28    1
    32    17    19    2
    33    17    18    1
    34    28    29    1
    35    38    37    1
    36    38    42    2
    37    37    36    1
    38    42    43    1
    39    29    30    1
    40    29    31    1
    41    30    35    1
    42    33    31    1
    43    33    35    1
    44    33    34    1
    45    36    35    1
    46    36    44    1
    47    31    32    1
    48    43    44    2
