@<TRIPOS>MOLECULE
1vtk_TMP_A_1.pdb
 21 22 0 0 0
SMALL
GASTEIGER

@<TRIPOS>ATOM
      1  P         39.9140   20.6570   33.3040 P.3   500  TMP500      0.5327
      2  O1P       38.9940   20.4580   34.4300 O.3   500  TMP500     -0.1145
      3  O2P       39.3910   21.7200   32.4180 O.2   500  TMP500     -0.2224
      4  O3P       41.2610   20.9940   33.7950 O.3   500  TMP500     -0.1145
      5  O5'       39.9960   19.2810   32.4700 O.3   500  TMP500     -0.2675
      6  C5'       41.0220   19.0210   31.5030 C.3   500  TMP500      0.1858
      7  C4'       40.4150   18.2030   30.4080 C.3   500  TMP500      0.1774
      8  O4'       40.5050   16.8270   30.7590 O.3   500  TMP500     -0.3339
      9  C3'       38.9680   18.5020   30.1480 C.3   500  TMP500      0.1857
     10  O3'       38.7680   18.6640   28.7420 O.3   500  TMP500     -0.2203
     11  C2'       38.2620   17.3070   30.7510 C.3   500  TMP500      0.0874
     12  C1'       39.2580   16.2160   30.4690 C.3   500  TMP500      0.2090
     13  N1        39.1990   15.0570   31.3900 N.am  500  TMP500     -0.1794
     14  C2        38.8490   13.8510   30.8730 C.1   500  TMP500      0.2844
     15  O2        38.5320   13.7250   29.6870 O.2   500  TMP500     -0.1918
     16  N3        38.8470   12.7630   31.7070 N.2   500  TMP500     -0.2455
     17  C4        39.1850   12.8390   33.0290 C.1   500  TMP500      0.2134
     18  O4        39.1530   11.8170   33.7120 O.2   500  TMP500     -0.2088
     19  C5        39.5490   14.0790   33.5500 C.2   500  TMP500      0.0891
     20  C5M       39.9140   14.1750   34.9860 C.3   500  TMP500      0.0462
     21  C6        39.5590   15.1990   32.6990 C.2   500  TMP500      0.0877
@<TRIPOS>BOND
     1    10     9    1
     2    15    14    2
     3     9     7    1
     4     9    11    1
     5     7     8    1
     6     7     6    1
     7    12    11    1
     8    12     8    1
     9    12    13    1
    10    14    13   am
    11    14    16    2
    12    13    21    1
    13     6     5    1
    14    16    17    2
    15     3     1    2
    16     5     1    1
    17    21    19    2
    18    17    19    1
    19    17    18    2
    20     1     4    1
    21     1     2    1
    22    19    20    1
