@<TRIPOS>MOLECULE
1vtk_ADP_A_1.pdb
 27 29 0 0 0
SMALL
GASTEIGER

@<TRIPOS>ATOM
      1  PB        38.6450   24.7640   35.0270 P.3   400  ADP400      0.5373
      2  O1B       37.3610   24.7610   35.7820 O.3   400  ADP400     -0.1143
      3  O2B       39.7670   24.4620   35.9400 O.3   400  ADP400     -0.1143
      4  O3B       38.5760   23.7970   33.9320 O.2   400  ADP400     -0.2221
      5  PA        39.6040   27.3430   34.4290 P.3   400  ADP400      0.2231
      6  O1A       39.8240   27.8160   35.8230 O.3   400  ADP400     -0.4370
      7  O2A       40.8500   27.3580   33.6270 O.2   400  ADP400     -0.5169
      8  O3A       38.8070   26.0790   34.3280 O.3   400  ADP400     -0.2261
      9  O5'       38.6860   28.4960   33.7610 O.3   400  ADP400     -0.3111
     10  C5'       38.1610   28.4010   32.4290 C.3   400  ADP400      0.1813
     11  C4'       38.0390   29.7980   31.7940 C.3   400  ADP400      0.1821
     12  O4'       37.0830   30.6110   32.5760 O.3   400  ADP400     -0.3135
     13  C3'       39.4110   30.5430   31.8490 C.3   400  ADP400      0.2184
     14  O3'       39.5760   31.2720   30.6240 O.3   400  ADP400     -0.2174
     15  C2'       39.3310   31.5020   33.0250 C.3   400  ADP400      0.2570
     16  O2'       39.6100   32.8390   32.6010 O.3   400  ADP400     -0.2130
     17  C1'       37.9110   31.3920   33.4240 C.3   400  ADP400      0.3186
     18  N9        37.4290   31.8710   34.7420 N.pl3 400  ADP400     -0.1439
     19  C8        37.8780   31.4980   35.9960 C.3   400  ADP400      0.3377
     20  N7        37.2130   32.0610   36.9670 N.2   400  ADP400     -0.2095
     21  C5        36.2580   32.8630   36.3980 C.2   400  ADP400      0.2526
     22  C6        35.2680   33.6970   36.9200 C.2   400  ADP400      0.4393
     23  N6        35.0830   33.8550   38.2320 N.pl3 400  ADP400      0.2180
     24  N1        34.4910   34.3550   36.0450 N.2   400  ADP400      0.0021
     25  C2        34.6960   34.1820   34.7400 C.3   400  ADP400      0.5254
     26  N3        35.5940   33.4230   34.1110 N.2   400  ADP400     -0.0055
     27  C4        36.3810   32.7560   34.9860 C.2   400  ADP400      0.3518
@<TRIPOS>BOND
     1    14    13    1
     2    11    13    1
     3    11    10    1
     4    11    12    1
     5    13    15    1
     6    10     9    1
     7    12    17    1
     8    16    15    1
     9    15    17    1
    10    17    18    1
    11     7     5    2
    12     9     5    1
    13     4     1    2
    14    26    25    1
    15    26    27    2
    16     8     5    1
    17     8     1    1
    18     5     6    1
    19    25    24    1
    20    18    27    1
    21    18    19    1
    22    27    21    1
    23     1     2    1
    24     1     3    1
    25    19    20    1
    26    24    22    2
    27    21    22    1
    28    21    20    2
    29    22    23    1
