@<TRIPOS>MOLECULE
1vwt_HEM_A_1.pdb
 43 50 0 0 0
SMALL
GASTEIGER

@<TRIPOS>ATOM
      1 FE         22.9730    5.4430   -2.7440 Fe    201  HEM201      0.0000
      2  CHA       23.0910    5.8500   -6.1310 C.2   201  HEM201      0.0000
      3  CHB       25.5020    7.8050   -2.4350 C.2   201  HEM201      0.0000
      4  CHC       22.9920    5.0140    0.6420 C.2   201  HEM201      0.0000
      5  CHD       21.1060    2.6510   -3.1030 C.2   201  HEM201      0.0000
      6  NA        24.0650    6.6070   -4.0300 N.2   201  HEM201      0.0000
      7  C1A       23.9690    6.6370   -5.4080 C.2   201  HEM201      0.0000
      8  C2A       24.9510    7.5320   -5.9820 C.2   201  HEM201      0.0000
      9  C3A       25.6040    8.1180   -4.9460 C.2   201  HEM201      0.0000
     10  C4A       25.0600    7.5230   -3.7290 C.2   201  HEM201      0.0000
     11  CMA       26.7200    9.1470   -5.0140 C.3   201  HEM201      0.0000
     12  CAA       25.2990    7.6230   -7.4550 C.3   201  HEM201      0.0000
     13  CBA       24.8470    8.9470   -8.0400 C.3   201  HEM201      0.0000
     14  CGA       25.0300    9.0190   -9.5540 C.2   201  HEM201      0.0000
     15  O1A       25.6850    8.1190  -10.1300 O.co2 201  HEM201      0.0000
     16  O2A       24.5140    9.9790  -10.1650 O.co2 201  HEM201      0.0000
     17  NB        24.0360    6.2450   -1.2200 N.ar  201  HEM201      0.0000
     18  C1B       25.0250    7.2190   -1.2740 C.ar  201  HEM201      0.0000
     19  C2B       25.4800    7.5910    0.0420 C.ar  201  HEM201      0.0000
     20  C3B       24.7510    6.8290    0.9210 C.ar  201  HEM201      0.0000
     21  C4B       23.8750    5.9680    0.1240 C.ar  201  HEM201      0.0000
     22  CMB       26.5120    8.6820    0.2980 C.3   201  HEM201      0.0000
     23  CAB       24.7210    6.9000    2.3090 C.3   201  HEM201      0.0000
     24  CBB       25.9160    6.7310    3.0960 C.3   201  HEM201      0.0000
     25  NC        22.1140    4.1580   -1.4680 N.2   201  HEM201      0.0000
     26  C1C       22.1730    4.1530   -0.0800 C.2   201  HEM201      0.0000
     27  C2C       21.5140    2.9630    0.4650 C.2   201  HEM201      0.0000
     28  C3C       21.0760    2.2200   -0.5960 C.2   201  HEM201      0.0000
     29  C4C       21.4330    3.0010   -1.7870 C.2   201  HEM201      0.0000
     30  CMC       21.3510    2.6230    1.9500 C.3   201  HEM201      0.0000
     31  CAC       20.3970    0.9800   -0.6410 C.3   201  HEM201      0.0000
     32  CBC       20.4260   -0.1190    0.3010 C.3   201  HEM201      0.0000
     33  ND        22.1540    4.5460   -4.2730 N.ar  201  HEM201      0.0000
     34  C1D       21.4190    3.3710   -4.2500 C.ar  201  HEM201      0.0000
     35  C2D       21.0970    2.9350   -5.5910 C.ar  201  HEM201      0.0000
     36  C3D       21.6320    3.8600   -6.4130 C.ar  201  HEM201      0.0000
     37  C4D       22.2740    4.8640   -5.6060 C.ar  201  HEM201      0.0000
     38  CMD       20.3550    1.6670   -6.0040 C.3   201  HEM201      0.0000
     39  CAD       21.6080    3.8240   -7.9340 C.3   201  HEM201      0.0000
     40  CBD       22.5610    2.7730   -8.4680 C.3   201  HEM201      0.0000
     41  CGD       22.5460    2.6940   -9.9850 C.2   201  HEM201      0.0000
     42  O1D       23.5200    3.1500  -10.6150 O.co2 201  HEM201      0.0000
     43  O2D       21.5600    2.1770  -10.5470 O.co2 201  HEM201      0.0000
@<TRIPOS>BOND
     1    42    41   ar
     2    43    41   ar
     3    16    14   ar
     4    15    14   ar
     5    41    40    1
     6    14    13    1
     7    40    39    1
     8    13    12    1
     9    39    36    1
    10    12     8    1
    11    36    37   ar
    12    36    35   ar
    13     2    37    2
    14     2     7    1
    15    38    35    1
    16     8     7    1
    17     8     9    2
    18    37    33   ar
    19    35    34   ar
    20     7     6    2
    21    11     9    1
    22     9    10    1
    23    33    34   ar
    24    33     1    1
    25    34     5    2
    26     6    10    1
    27     6     1    1
    28    10     3    2
    29     5    29    1
    30     1    25    1
    31     1    17    1
    32     3    18    1
    33    29    25    2
    34    29    28    1
    35    25    26    1
    36    18    17   ar
    37    18    19   ar
    38    17    21   ar
    39    31    28    1
    40    31    32    1
    41    28    27    2
    42    26    27    1
    43    26     4    2
    44    19    22    1
    45    19    20   ar
    46    21     4    1
    47    21    20   ar
    48    27    30    1
    49    20    23    1
    50    23    24    1
