@<TRIPOS>MOLECULE
1vxa_HEM_A_1.pdb
 43 50 0 0 0
SMALL
GASTEIGER

@<TRIPOS>ATOM
      1 FE         14.5670   27.9570    4.6980 Fe    155  HEM155      0.0000
      2  CHA       16.0530   30.9010    5.1650 C.2   155  HEM155      0.0000
      3  CHB       13.7680   27.9100    8.0920 C.2   155  HEM155      0.0000
      4  CHC       13.5850   24.8720    4.3460 C.2   155  HEM155      0.0000
      5  CHD       15.7910   27.8580    1.3590 C.2   155  HEM155      0.0000
      6  NA        14.7260   29.1870    6.2020 N.2   155  HEM155      0.0000
      7  C1A       15.4090   30.4200    6.2220 C.2   155  HEM155      0.0000
      8  C2A       15.3800   31.0860    7.5640 C.2   155  HEM155      0.0000
      9  C3A       14.7350   30.1870    8.4450 C.2   155  HEM155      0.0000
     10  C4A       14.3800   29.0150    7.6080 C.2   155  HEM155      0.0000
     11  CMA       14.5290   30.3030    9.9910 C.3   155  HEM155      0.0000
     12  CAA       15.8000   32.5240    7.9140 C.3   155  HEM155      0.0000
     13  CBA       14.5740   33.4230    8.0640 C.3   155  HEM155      0.0000
     14  CGA       13.6070   33.2450    6.8820 C.2   155  HEM155      0.0000
     15  O1A       14.0190   33.5220    5.7220 O.co2 155  HEM155      0.0000
     16  O2A       12.5080   32.6710    7.0720 O.co2 155  HEM155      0.0000
     17  NB        13.8380   26.7660    5.8530 N.ar  155  HEM155      0.0000
     18  C1B       13.5100   26.8400    7.2040 C.ar  155  HEM155      0.0000
     19  C2B       12.9320   25.6140    7.6240 C.ar  155  HEM155      0.0000
     20  C3B       12.9380   24.7600    6.6350 C.ar  155  HEM155      0.0000
     21  C4B       13.4700   25.4570    5.5350 C.ar  155  HEM155      0.0000
     22  CMB       12.2690   25.4000    8.9860 C.3   155  HEM155      0.0000
     23  CAB       12.4680   23.4500    6.6100 C.3   155  HEM155      0.0000
     24  CBB       12.2900   22.5530    7.7610 C.3   155  HEM155      0.0000
     25  NC        14.5570   26.7280    3.1860 N.2   155  HEM155      0.0000
     26  C1C       14.1240   25.4170    3.2590 C.2   155  HEM155      0.0000
     27  C2C       14.3740   24.6880    2.0470 C.2   155  HEM155      0.0000
     28  C3C       15.0820   25.5510    1.2370 C.2   155  HEM155      0.0000
     29  C4C       15.1100   26.7940    1.8890 C.2   155  HEM155      0.0000
     30  CMC       13.7600   23.3160    1.8090 C.3   155  HEM155      0.0000
     31  CAC       15.6720   25.4060    0.0590 C.3   155  HEM155      0.0000
     32  CBC       15.3740   24.2800   -0.8250 C.3   155  HEM155      0.0000
     33  ND        15.5920   29.0860    3.5700 N.ar  155  HEM155      0.0000
     34  C1D       16.0400   28.9500    2.1840 C.ar  155  HEM155      0.0000
     35  C2D       16.7150   30.0710    1.6650 C.ar  155  HEM155      0.0000
     36  C3D       16.6820   30.9090    2.7040 C.ar  155  HEM155      0.0000
     37  C4D       16.0740   30.3010    3.8870 C.ar  155  HEM155      0.0000
     38  CMD       17.3790   30.1360    0.2910 C.3   155  HEM155      0.0000
     39  CAD       17.1720   32.3550    2.7420 C.3   155  HEM155      0.0000
     40  CBD       18.4970   32.6870    3.3910 C.3   155  HEM155      0.0000
     41  CGD       19.5740   31.9300    2.7290 C.2   155  HEM155      0.0000
     42  O1D       19.8390   30.7990    3.2000 O.co2 155  HEM155      0.0000
     43  O2D       20.0280   32.3820    1.6420 O.co2 155  HEM155      0.0000
@<TRIPOS>BOND
     1    32    31    1
     2    31    28    1
     3    38    35    1
     4    28    29    1
     5    28    27    2
     6     5    29    1
     7     5    34    2
     8    43    41   ar
     9    35    34   ar
    10    35    36   ar
    11    30    27    1
    12    29    25    2
    13    27    26    1
    14    34    33   ar
    15    36    39    1
    16    36    37   ar
    17    41    42   ar
    18    41    40    1
    19    39    40    1
    20    25    26    1
    21    25     1    1
    22    26     4    2
    23    33    37   ar
    24    33     1    1
    25    37     2    2
    26     4    21    1
    27     1    17    1
    28     1     6    1
    29     2     7    1
    30    21    17   ar
    31    21    20   ar
    32    15    14   ar
    33    17    18   ar
    34     6     7    2
    35     6    10    1
    36     7     8    1
    37    23    20    1
    38    23    24    1
    39    20    19   ar
    40    14    16   ar
    41    14    13    1
    42    18    19   ar
    43    18     3    1
    44     8    12    1
    45     8     9    2
    46    10     3    2
    47    10     9    1
    48    19    22    1
    49    12    13    1
    50     9    11    1
