@<TRIPOS>MOLECULE
1vxb_HEM_A_1.pdb
 43 50 0 0 0
SMALL
GASTEIGER

@<TRIPOS>ATOM
      1 FE         14.8020   28.0200    4.4340 Fe    156  HEM156      0.0000
      2  CHA       16.4630   31.0480    4.6140 C.2   156  HEM156      0.0000
      3  CHB       13.9850   28.1140    7.6490 C.2   156  HEM156      0.0000
      4  CHC       13.3790   24.9720    4.0920 C.2   156  HEM156      0.0000
      5  CHD       15.6390   27.6300    1.0870 C.2   156  HEM156      0.0000
      6  NA        14.9160   29.4120    5.8090 N.2   156  HEM156      0.0000
      7  C1A       15.8960   30.5110    5.8300 C.2   156  HEM156      0.0000
      8  C2A       16.0190   31.0720    7.1180 C.2   156  HEM156      0.0000
      9  C3A       15.2570   30.3600    8.0280 C.2   156  HEM156      0.0000
     10  C4A       14.5450   29.2980    7.1550 C.2   156  HEM156      0.0000
     11  CMA       14.8610   30.8090    9.3930 C.3   156  HEM156      0.0000
     12  CAA       16.3320   32.5020    7.3540 C.3   156  HEM156      0.0000
     13  CBA       15.1230   33.4370    7.4870 C.3   156  HEM156      0.0000
     14  CGA       14.4150   33.6110    6.1560 C.2   156  HEM156      0.0000
     15  O1A       15.1630   33.7760    5.1940 O.co2 156  HEM156      0.0000
     16  O2A       13.1720   33.5000    6.0580 O.co2 156  HEM156      0.0000
     17  NB        14.0250   26.8380    5.3990 N.ar  156  HEM156      0.0000
     18  C1B       13.7560   26.9940    6.7670 C.ar  156  HEM156      0.0000
     19  C2B       13.0060   25.7310    7.2860 C.ar  156  HEM156      0.0000
     20  C3B       13.0000   24.8610    6.2950 C.ar  156  HEM156      0.0000
     21  C4B       13.4650   25.6350    5.1590 C.ar  156  HEM156      0.0000
     22  CMB       12.4920   25.7270    8.6880 C.3   156  HEM156      0.0000
     23  CAB       12.7140   23.3870    6.3010 C.3   156  HEM156      0.0000
     24  CBB       12.6110   22.4770    7.6190 C.3   156  HEM156      0.0000
     25  NC        14.4600   26.5900    2.9450 N.2   156  HEM156      0.0000
     26  C1C       13.8680   25.3910    2.9740 C.2   156  HEM156      0.0000
     27  C2C       14.0090   24.5660    1.8130 C.2   156  HEM156      0.0000
     28  C3C       14.6870   25.2830    1.0090 C.2   156  HEM156      0.0000
     29  C4C       14.9570   26.5660    1.6320 C.2   156  HEM156      0.0000
     30  CMC       14.2730   23.1110    1.6920 C.3   156  HEM156      0.0000
     31  CAC       15.2750   24.9120   -0.2640 C.3   156  HEM156      0.0000
     32  CBC       15.1750   23.7530   -1.2180 C.3   156  HEM156      0.0000
     33  ND        15.4340   29.1970    3.1350 N.ar  156  HEM156      0.0000
     34  C1D       15.7530   28.8530    1.7480 C.ar  156  HEM156      0.0000
     35  C2D       16.4820   29.8620    1.1630 C.ar  156  HEM156      0.0000
     36  C3D       16.7830   30.8530    2.0940 C.ar  156  HEM156      0.0000
     37  C4D       16.1940   30.4510    3.3560 C.ar  156  HEM156      0.0000
     38  CMD       17.1860   29.8150   -0.1410 C.3   156  HEM156      0.0000
     39  CAD       17.5450   32.0630    1.6940 C.3   156  HEM156      0.0000
     40  CBD       19.0110   31.8890    2.1710 C.3   156  HEM156      0.0000
     41  CGD       19.7470   33.2130    2.2160 C.2   156  HEM156      0.0000
     42  O1D       20.1190   33.7620    1.1260 O.co2 156  HEM156      0.0000
     43  O2D       19.9590   33.6810    3.3540 O.co2 156  HEM156      0.0000
@<TRIPOS>BOND
     1    32    31    1
     2    31    28    1
     3    38    35    1
     4    28    29    1
     5    28    27    2
     6     5    29    1
     7     5    34    2
     8    42    41   ar
     9    35    34   ar
    10    35    36   ar
    11    29    25    2
    12    30    27    1
    13    39    36    1
    14    39    40    1
    15    34    33   ar
    16    27    26    1
    17    36    37   ar
    18    40    41    1
    19    41    43   ar
    20    25    26    1
    21    25     1    1
    22    26     4    2
    23    33    37   ar
    24    33     1    1
    25    37     2    2
    26     4    21    1
    27     1    17    1
    28     1     6    1
    29     2     7    1
    30    21    17   ar
    31    21    20   ar
    32    15    14   ar
    33    17    18   ar
    34     6     7    2
    35     6    10    1
    36     7     8    1
    37    16    14   ar
    38    14    13    1
    39    20    23    1
    40    20    19   ar
    41    23    24    1
    42    18    19   ar
    43    18     3    1
    44     8    12    1
    45     8     9    2
    46    10     3    2
    47    10     9    1
    48    19    22    1
    49    12    13    1
    50     9    11    1
