@<TRIPOS>MOLECULE
1vxc_HEM_A_1.pdb
 43 50 0 0 0
SMALL
GASTEIGER

@<TRIPOS>ATOM
      1 FE         14.7660   27.8710    4.7400 Fe    155  HEM155      0.0000
      2  CHA       16.1620   30.9690    5.0200 C.2   155  HEM155      0.0000
      3  CHB       13.9900   27.7910    8.0630 C.2   155  HEM155      0.0000
      4  CHC       13.3600   24.7960    4.3980 C.2   155  HEM155      0.0000
      5  CHD       15.5670   27.8630    1.4210 C.2   155  HEM155      0.0000
      6  NA        15.0230   29.0630    6.2080 N.2   155  HEM155      0.0000
      7  C1A       15.6140   30.3450    6.1800 C.2   155  HEM155      0.0000
      8  C2A       15.5920   30.9850    7.4950 C.2   155  HEM155      0.0000
      9  C3A       15.0130   30.0540    8.3600 C.2   155  HEM155      0.0000
     10  C4A       14.6730   28.9040    7.5390 C.2   155  HEM155      0.0000
     11  CMA       14.5240   30.1970    9.8040 C.3   155  HEM155      0.0000
     12  CAA       16.0550   32.4140    7.7740 C.3   155  HEM155      0.0000
     13  CBA       14.9500   33.4620    7.8600 C.3   155  HEM155      0.0000
     14  CGA       13.9980   33.3950    6.6680 C.2   155  HEM155      0.0000
     15  O1A       14.3790   33.8780    5.6010 O.co2 155  HEM155      0.0000
     16  O2A       12.9040   32.8080    6.8110 O.co2 155  HEM155      0.0000
     17  NB        13.8760   26.6260    5.9420 N.ar  155  HEM155      0.0000
     18  C1B       13.5790   26.7160    7.2450 C.ar  155  HEM155      0.0000
     19  C2B       12.9690   25.5410    7.8300 C.ar  155  HEM155      0.0000
     20  C3B       12.7890   24.6930    6.8520 C.ar  155  HEM155      0.0000
     21  C4B       13.3520   25.3790    5.6530 C.ar  155  HEM155      0.0000
     22  CMB       12.6770   25.3230    9.3540 C.3   155  HEM155      0.0000
     23  CAB       12.2090   23.3940    6.9060 C.2   155  HEM155      0.0000
     24  CBB       12.5600   22.4410    7.7980 C.2   155  HEM155      0.0000
     25  NC        14.4780   26.5940    3.2360 N.2   155  HEM155      0.0000
     26  C1C       14.0010   25.2760    3.2620 C.2   155  HEM155      0.0000
     27  C2C       14.1630   24.5720    2.0340 C.2   155  HEM155      0.0000
     28  C3C       14.7910   25.4690    1.1700 C.2   155  HEM155      0.0000
     29  C4C       14.9200   26.7070    1.9230 C.2   155  HEM155      0.0000
     30  CMC       13.7190   23.1590    1.7380 C.3   155  HEM155      0.0000
     31  CAC       15.3300   25.3540   -0.1250 C.2   155  HEM155      0.0000
     32  CBC       15.5170   24.2270   -0.8400 C.2   155  HEM155      0.0000
     33  ND        15.6800   29.0780    3.4870 N.ar  155  HEM155      0.0000
     34  C1D       15.9400   28.9550    2.1770 C.ar  155  HEM155      0.0000
     35  C2D       16.7110   30.1190    1.5660 C.ar  155  HEM155      0.0000
     36  C3D       16.8980   30.9300    2.5980 C.ar  155  HEM155      0.0000
     37  C4D       16.2290   30.3500    3.7550 C.ar  155  HEM155      0.0000
     38  CMD       17.1220   30.3210    0.1460 C.3   155  HEM155      0.0000
     39  CAD       17.6680   32.2390    2.5920 C.3   155  HEM155      0.0000
     40  CBD       19.0750   31.8330    2.9200 C.3   155  HEM155      0.0000
     41  CGD       19.9950   33.0170    2.9490 C.2   155  HEM155      0.0000
     42  O1D       20.3420   33.5190    1.8680 O.co2 155  HEM155      0.0000
     43  O2D       20.2550   33.5490    4.0300 O.co2 155  HEM155      0.0000
@<TRIPOS>BOND
     1    32    31    2
     2    31    28    1
     3    38    35    1
     4    28    29    1
     5    28    27    2
     6     5    29    1
     7     5    34    2
     8    35    34   ar
     9    35    36   ar
    10    30    27    1
    11    42    41   ar
    12    29    25    2
    13    27    26    1
    14    34    33   ar
    15    39    36    1
    16    39    40    1
    17    36    37   ar
    18    40    41    1
    19    41    43   ar
    20    25    26    1
    21    25     1    1
    22    26     4    2
    23    33    37   ar
    24    33     1    1
    25    37     2    2
    26     4    21    1
    27     1    17    1
    28     1     6    1
    29     2     7    1
    30    15    14   ar
    31    21    17   ar
    32    21    20   ar
    33    17    18   ar
    34     7     6    2
    35     7     8    1
    36     6    10    1
    37    14    16   ar
    38    14    13    1
    39    20    23    1
    40    20    19   ar
    41    23    24    2
    42    18    19   ar
    43    18     3    1
    44     8    12    1
    45     8     9    2
    46    10     3    2
    47    10     9    1
    48    12    13    1
    49    19    22    1
    50     9    11    1
