@<TRIPOS>MOLECULE
1vxd_HEM_A_1.pdb
 43 50 0 0 0
SMALL
GASTEIGER

@<TRIPOS>ATOM
      1 FE         14.5900   28.1200    4.8940 Fe    155  HEM155      0.0000
      2  CHA       16.0520   31.1740    5.2170 C.2   155  HEM155      0.0000
      3  CHB       13.9070   28.0380    8.2800 C.2   155  HEM155      0.0000
      4  CHC       13.3970   24.9840    4.6150 C.2   155  HEM155      0.0000
      5  CHD       15.6270   28.0100    1.5940 C.2   155  HEM155      0.0000
      6  NA        14.8880   29.3010    6.4330 N.2   155  HEM155      0.0000
      7  C1A       15.4750   30.5790    6.3880 C.2   155  HEM155      0.0000
      8  C2A       15.4480   31.2080    7.6770 C.2   155  HEM155      0.0000
      9  C3A       14.8760   30.2970    8.5170 C.2   155  HEM155      0.0000
     10  C4A       14.5460   29.1520    7.7500 C.2   155  HEM155      0.0000
     11  CMA       14.5020   30.4860    9.9800 C.3   155  HEM155      0.0000
     12  CAA       15.8350   32.6660    7.9960 C.3   155  HEM155      0.0000
     13  CBA       14.6910   33.7060    8.1480 C.3   155  HEM155      0.0000
     14  CGA       13.7420   33.7220    6.9350 C.2   155  HEM155      0.0000
     15  O1A       14.2040   34.0410    5.8200 O.co2 155  HEM155      0.0000
     16  O2A       12.5760   33.2870    7.0780 O.co2 155  HEM155      0.0000
     17  NB        13.8320   26.7910    6.1780 N.ar  155  HEM155      0.0000
     18  C1B       13.5670   26.9080    7.5100 C.ar  155  HEM155      0.0000
     19  C2B       12.9940   25.7330    8.0770 C.ar  155  HEM155      0.0000
     20  C3B       12.9640   24.8430    7.0150 C.ar  155  HEM155      0.0000
     21  C4B       13.4030   25.5230    5.9010 C.ar  155  HEM155      0.0000
     22  CMB       12.6120   25.6480    9.5530 C.3   155  HEM155      0.0000
     23  CAB       12.4980   23.5300    6.9490 C.3   155  HEM155      0.0000
     24  CBB       12.5500   22.6320    8.0450 C.3   155  HEM155      0.0000
     25  NC        14.5350   26.8250    3.4310 N.2   155  HEM155      0.0000
     26  C1C       14.0580   25.5320    3.5110 C.2   155  HEM155      0.0000
     27  C2C       14.3110   24.7860    2.3390 C.2   155  HEM155      0.0000
     28  C3C       14.9810   25.7160    1.4850 C.2   155  HEM155      0.0000
     29  C4C       15.0070   26.9130    2.1460 C.2   155  HEM155      0.0000
     30  CMC       13.7680   23.3420    2.0500 C.3   155  HEM155      0.0000
     31  CAC       15.4990   25.5660    0.1620 C.3   155  HEM155      0.0000
     32  CBC       15.3990   24.4030   -0.5750 C.3   155  HEM155      0.0000
     33  ND        15.6510   29.3140    3.6940 N.ar  155  HEM155      0.0000
     34  C1D       15.9700   29.1570    2.3490 C.ar  155  HEM155      0.0000
     35  C2D       16.6680   30.3440    1.7960 C.ar  155  HEM155      0.0000
     36  C3D       16.8160   31.1080    2.8400 C.ar  155  HEM155      0.0000
     37  C4D       16.1850   30.5430    4.0030 C.ar  155  HEM155      0.0000
     38  CMD       17.0420   30.5230    0.3600 C.3   155  HEM155      0.0000
     39  CAD       17.5830   32.4300    2.9120 C.3   155  HEM155      0.0000
     40  CBD       18.9880   32.0740    3.3290 C.3   155  HEM155      0.0000
     41  CGD       19.9240   33.2020    3.0650 C.2   155  HEM155      0.0000
     42  O1D       20.1770   33.4660    1.8620 O.co2 155  HEM155      0.0000
     43  O2D       20.2790   33.9260    4.0350 O.co2 155  HEM155      0.0000
@<TRIPOS>BOND
     1    32    31    1
     2    31    28    1
     3    38    35    1
     4    28    29    1
     5    28    27    2
     6     5    29    1
     7     5    34    2
     8    35    34   ar
     9    35    36   ar
    10    42    41   ar
    11    30    27    1
    12    29    25    2
    13    27    26    1
    14    34    33   ar
    15    36    39    1
    16    36    37   ar
    17    39    40    1
    18    41    40    1
    19    41    43   ar
    20    25    26    1
    21    25     1    1
    22    26     4    2
    23    33    37   ar
    24    33     1    1
    25    37     2    2
    26     4    21    1
    27     1    17    1
    28     1     6    1
    29     2     7    1
    30    15    14   ar
    31    21    17   ar
    32    21    20   ar
    33    17    18   ar
    34     7     6    2
    35     7     8    1
    36     6    10    1
    37    14    16   ar
    38    14    13    1
    39    23    20    1
    40    23    24    1
    41    20    19   ar
    42    18    19   ar
    43    18     3    1
    44     8    12    1
    45     8     9    2
    46    10     3    2
    47    10     9    1
    48    12    13    1
    49    19    22    1
    50     9    11    1
