@<TRIPOS>MOLECULE
1vxe_HEM_A_1.pdb
 43 50 0 0 0
SMALL
GASTEIGER

@<TRIPOS>ATOM
      1 FE         14.7140   28.0730    4.8230 Fe    156  HEM156      0.0000
      2  CHA       16.0450   31.3180    5.1280 C.2   156  HEM156      0.0000
      3  CHB       14.0610   28.0320    8.1990 C.2   156  HEM156      0.0000
      4  CHC       13.3870   24.9400    4.5160 C.2   156  HEM156      0.0000
      5  CHD       15.5660   28.0170    1.5270 C.2   156  HEM156      0.0000
      6  NA        15.0350   29.3910    6.3610 N.2   156  HEM156      0.0000
      7  C1A       15.5460   30.6950    6.3310 C.2   156  HEM156      0.0000
      8  C2A       15.4790   31.3310    7.6650 C.2   156  HEM156      0.0000
      9  C3A       14.9560   30.3780    8.4620 C.2   156  HEM156      0.0000
     10  C4A       14.6770   29.2060    7.6760 C.2   156  HEM156      0.0000
     11  CMA       14.4540   30.3900    9.9260 C.3   156  HEM156      0.0000
     12  CAA       15.8690   32.7870    7.9920 C.3   156  HEM156      0.0000
     13  CBA       14.6390   33.6450    8.1400 C.3   156  HEM156      0.0000
     14  CGA       13.8210   33.6860    6.8490 C.2   156  HEM156      0.0000
     15  O1A       14.3400   34.2070    5.8330 O.co2 156  HEM156      0.0000
     16  O2A       12.7130   33.1040    6.8290 O.co2 156  HEM156      0.0000
     17  NB        13.9060   26.7530    6.0510 N.ar  156  HEM156      0.0000
     18  C1B       13.6520   26.9070    7.4450 C.ar  156  HEM156      0.0000
     19  C2B       13.0370   25.7340    8.0250 C.ar  156  HEM156      0.0000
     20  C3B       12.9020   24.8370    6.9610 C.ar  156  HEM156      0.0000
     21  C4B       13.4090   25.4780    5.7790 C.ar  156  HEM156      0.0000
     22  CMB       12.7030   25.5640    9.5550 C.3   156  HEM156      0.0000
     23  CAB       12.4120   23.5240    6.9960 C.3   156  HEM156      0.0000
     24  CBB       12.6290   22.5920    8.0980 C.3   156  HEM156      0.0000
     25  NC        14.5660   26.7440    3.3180 N.2   156  HEM156      0.0000
     26  C1C       14.0420   25.4540    3.3800 C.2   156  HEM156      0.0000
     27  C2C       14.2330   24.7400    2.1300 C.2   156  HEM156      0.0000
     28  C3C       14.9160   25.6610    1.2950 C.2   156  HEM156      0.0000
     29  C4C       15.0170   26.8780    2.0230 C.2   156  HEM156      0.0000
     30  CMC       13.7600   23.3420    1.9030 C.3   156  HEM156      0.0000
     31  CAC       15.5760   25.4430    0.0740 C.3   156  HEM156      0.0000
     32  CBC       15.1270   24.2890   -0.7470 C.3   156  HEM156      0.0000
     33  ND        15.5790   29.3790    3.5830 N.ar  156  HEM156      0.0000
     34  C1D       15.9100   29.1830    2.2700 C.ar  156  HEM156      0.0000
     35  C2D       16.6370   30.2880    1.7300 C.ar  156  HEM156      0.0000
     36  C3D       16.7780   31.2080    2.6900 C.ar  156  HEM156      0.0000
     37  C4D       16.0490   30.6760    3.8570 C.ar  156  HEM156      0.0000
     38  CMD       17.1420   30.3490    0.2850 C.3   156  HEM156      0.0000
     39  CAD       17.5860   32.4960    2.6830 C.3   156  HEM156      0.0000
     40  CBD       19.0000   32.0580    2.9140 C.3   156  HEM156      0.0000
     41  CGD       19.9590   33.2210    2.9250 C.2   156  HEM156      0.0000
     42  O1D       20.4690   33.5620    1.8530 O.co2 156  HEM156      0.0000
     43  O2D       20.1610   33.8680    3.9620 O.co2 156  HEM156      0.0000
@<TRIPOS>BOND
     1    32    31    1
     2    31    28    1
     3    38    35    1
     4    28    29    1
     5    28    27    2
     6     5    29    1
     7     5    34    2
     8    35    34   ar
     9    35    36   ar
    10    42    41   ar
    11    30    27    1
    12    29    25    2
    13    27    26    1
    14    34    33   ar
    15    39    36    1
    16    39    40    1
    17    36    37   ar
    18    40    41    1
    19    41    43   ar
    20    25    26    1
    21    25     1    1
    22    26     4    2
    23    33    37   ar
    24    33     1    1
    25    37     2    2
    26     4    21    1
    27     1    17    1
    28     1     6    1
    29     2     7    1
    30    21    17   ar
    31    21    20   ar
    32    15    14   ar
    33    17    18   ar
    34     7     6    2
    35     7     8    1
    36     6    10    1
    37    16    14   ar
    38    14    13    1
    39    20    23    1
    40    20    19   ar
    41    23    24    1
    42    18    19   ar
    43    18     3    1
    44     8    12    1
    45     8     9    2
    46    10     3    2
    47    10     9    1
    48    12    13    1
    49    19    22    1
    50     9    11    1
