@<TRIPOS>MOLECULE
1vxf_HEM_A_1.pdb
 43 50 0 0 0
SMALL
GASTEIGER

@<TRIPOS>ATOM
      1 FE         14.7670   27.8470    4.7640 Fe    155  HEM155      0.0000
      2  CHA       16.1120   30.9510    5.0180 C.2   155  HEM155      0.0000
      3  CHB       13.9620   27.8100    8.0380 C.2   155  HEM155      0.0000
      4  CHC       13.3970   24.8200    4.3970 C.2   155  HEM155      0.0000
      5  CHD       15.5290   27.7780    1.4170 C.2   155  HEM155      0.0000
      6  NA        15.0020   29.0380    6.2120 N.2   155  HEM155      0.0000
      7  C1A       15.5610   30.3510    6.1750 C.2   155  HEM155      0.0000
      8  C2A       15.5470   31.0020    7.5030 C.2   155  HEM155      0.0000
      9  C3A       14.9770   30.0710    8.3320 C.2   155  HEM155      0.0000
     10  C4A       14.6240   28.9310    7.5180 C.2   155  HEM155      0.0000
     11  CMA       14.6090   30.1820    9.8120 C.3   155  HEM155      0.0000
     12  CAA       16.0320   32.4370    7.8310 C.3   155  HEM155      0.0000
     13  CBA       14.8620   33.4160    7.9790 C.3   155  HEM155      0.0000
     14  CGA       13.9370   33.4070    6.7460 C.2   155  HEM155      0.0000
     15  O1A       14.3710   33.8590    5.6830 O.co2 155  HEM155      0.0000
     16  O2A       12.8310   32.8100    6.8120 O.co2 155  HEM155      0.0000
     17  NB        13.8550   26.5190    5.9190 N.ar  155  HEM155      0.0000
     18  C1B       13.6220   26.6280    7.2320 C.ar  155  HEM155      0.0000
     19  C2B       13.0240   25.5040    7.8060 C.ar  155  HEM155      0.0000
     20  C3B       12.8050   24.6730    6.8230 C.ar  155  HEM155      0.0000
     21  C4B       13.3610   25.3530    5.6640 C.ar  155  HEM155      0.0000
     22  CMB       12.6770   25.3900    9.3540 C.3   155  HEM155      0.0000
     23  CAB       12.2410   23.3420    6.9060 C.3   155  HEM155      0.0000
     24  CBB       12.5800   22.3770    7.9010 C.3   155  HEM155      0.0000
     25  NC        14.4890   26.5700    3.2450 N.2   155  HEM155      0.0000
     26  C1C       14.0050   25.3100    3.2900 C.2   155  HEM155      0.0000
     27  C2C       14.1870   24.6050    2.0900 C.2   155  HEM155      0.0000
     28  C3C       14.8090   25.5150    1.1710 C.2   155  HEM155      0.0000
     29  C4C       14.9000   26.6870    1.9150 C.2   155  HEM155      0.0000
     30  CMC       13.6590   23.2010    1.8360 C.3   155  HEM155      0.0000
     31  CAC       15.3640   25.3550   -0.1400 C.3   155  HEM155      0.0000
     32  CBC       15.2430   24.1230   -0.8040 C.3   155  HEM155      0.0000
     33  ND        15.6530   29.0440    3.4790 N.ar  155  HEM155      0.0000
     34  C1D       15.8480   28.9070    2.1660 C.ar  155  HEM155      0.0000
     35  C2D       16.5680   30.1060    1.5930 C.ar  155  HEM155      0.0000
     36  C3D       16.7840   30.9410    2.6190 C.ar  155  HEM155      0.0000
     37  C4D       16.2040   30.3140    3.7730 C.ar  155  HEM155      0.0000
     38  CMD       16.9740   30.2460    0.1320 C.3   155  HEM155      0.0000
     39  CAD       17.6550   32.1750    2.6640 C.3   155  HEM155      0.0000
     40  CBD       19.1180   31.7720    2.9140 C.3   155  HEM155      0.0000
     41  CGD       20.0550   32.9540    2.8650 C.2   155  HEM155      0.0000
     42  O1D       20.3660   33.4120    1.7450 O.co2 155  HEM155      0.0000
     43  O2D       20.3290   33.5540    3.9190 O.co2 155  HEM155      0.0000
@<TRIPOS>BOND
     1    32    31    1
     2    31    28    1
     3    38    35    1
     4    28    29    1
     5    28    27    2
     6     5    29    1
     7     5    34    2
     8    35    34   ar
     9    35    36   ar
    10    42    41   ar
    11    30    27    1
    12    29    25    2
    13    27    26    1
    14    34    33   ar
    15    36    39    1
    16    36    37   ar
    17    39    40    1
    18    41    40    1
    19    41    43   ar
    20    25    26    1
    21    25     1    1
    22    26     4    2
    23    33    37   ar
    24    33     1    1
    25    37     2    2
    26     4    21    1
    27     1    17    1
    28     1     6    1
    29     2     7    1
    30    21    17   ar
    31    21    20   ar
    32    15    14   ar
    33    17    18   ar
    34     7     6    2
    35     7     8    1
    36     6    10    1
    37    14    16   ar
    38    14    13    1
    39    20    23    1
    40    20    19   ar
    41    23    24    1
    42    18    19   ar
    43    18     3    1
    44     8    12    1
    45     8     9    2
    46    10     3    2
    47    10     9    1
    48    19    22    1
    49    12    13    1
    50     9    11    1
