@<TRIPOS>MOLECULE
1vxg_HEM_A_1.pdb
 43 50 0 0 0
SMALL
GASTEIGER

@<TRIPOS>ATOM
      1 FE         14.5350   28.0540    4.8680 Fe    155  HEM155      0.0000
      2  CHA       16.0230   31.0670    5.1880 C.2   155  HEM155      0.0000
      3  CHB       13.8550   28.0860    8.1910 C.2   155  HEM155      0.0000
      4  CHC       13.5010   24.9090    4.6120 C.2   155  HEM155      0.0000
      5  CHD       15.5960   27.9020    1.5400 C.2   155  HEM155      0.0000
      6  NA        14.8690   29.2740    6.3830 N.2   155  HEM155      0.0000
      7  C1A       15.4720   30.5170    6.3370 C.2   155  HEM155      0.0000
      8  C2A       15.3810   31.2010    7.5960 C.2   155  HEM155      0.0000
      9  C3A       14.8560   30.3390    8.4490 C.2   155  HEM155      0.0000
     10  C4A       14.5200   29.1550    7.6650 C.2   155  HEM155      0.0000
     11  CMA       14.4740   30.5710    9.9030 C.3   155  HEM155      0.0000
     12  CAA       15.7850   32.6180    7.9190 C.3   155  HEM155      0.0000
     13  CBA       14.6880   33.6780    8.0870 C.3   155  HEM155      0.0000
     14  CGA       13.7610   33.7500    6.8720 C.2   155  HEM155      0.0000
     15  O1A       14.2410   34.1000    5.7640 O.co2 155  HEM155      0.0000
     16  O2A       12.5800   33.3430    7.0120 O.co2 155  HEM155      0.0000
     17  NB        13.8350   26.8060    6.1160 N.ar  155  HEM155      0.0000
     18  C1B       13.5330   26.9390    7.4250 C.ar  155  HEM155      0.0000
     19  C2B       12.9810   25.7440    7.9930 C.ar  155  HEM155      0.0000
     20  C3B       12.9700   24.8690    6.9990 C.ar  155  HEM155      0.0000
     21  C4B       13.4370   25.5120    5.8490 C.ar  155  HEM155      0.0000
     22  CMB       12.6000   25.5740    9.4830 C.3   155  HEM155      0.0000
     23  CAB       12.4340   23.5620    6.9490 C.2   155  HEM155      0.0000
     24  CBB       12.4460   22.5760    7.8840 C.2   155  HEM155      0.0000
     25  NC        14.5130   26.7500    3.3980 N.2   155  HEM155      0.0000
     26  C1C       14.0860   25.4220    3.5000 C.2   155  HEM155      0.0000
     27  C2C       14.3490   24.6720    2.3250 C.2   155  HEM155      0.0000
     28  C3C       14.9470   25.6080    1.4960 C.2   155  HEM155      0.0000
     29  C4C       14.9630   26.8300    2.1070 C.2   155  HEM155      0.0000
     30  CMC       13.8840   23.2440    1.9470 C.3   155  HEM155      0.0000
     31  CAC       15.4370   25.4690    0.1810 C.3   155  HEM155      0.0000
     32  CBC       15.5360   24.3330   -0.6150 C.3   155  HEM155      0.0000
     33  ND        15.5910   29.2230    3.6990 N.ar  155  HEM155      0.0000
     34  C1D       15.9520   29.0370    2.3510 C.ar  155  HEM155      0.0000
     35  C2D       16.6760   30.2220    1.7870 C.ar  155  HEM155      0.0000
     36  C3D       16.7650   31.0410    2.8660 C.ar  155  HEM155      0.0000
     37  C4D       16.1220   30.4450    4.0070 C.ar  155  HEM155      0.0000
     38  CMD       17.1480   30.4460    0.3500 C.3   155  HEM155      0.0000
     39  CAD       17.5470   32.3870    2.9130 C.3   155  HEM155      0.0000
     40  CBD       19.0330   32.0530    3.0340 C.3   155  HEM155      0.0000
     41  CGD       19.8710   33.2970    2.9480 C.2   155  HEM155      0.0000
     42  O1D       20.2020   33.7090    1.8040 O.co2 155  HEM155      0.0000
     43  O2D       20.0640   33.9470    4.0030 O.co2 155  HEM155      0.0000
@<TRIPOS>BOND
     1    32    31    1
     2    31    28    1
     3    38    35    1
     4    28    29    1
     5    28    27    2
     6     5    29    1
     7     5    34    2
     8    35    34   ar
     9    35    36   ar
    10    42    41   ar
    11    30    27    1
    12    29    25    2
    13    27    26    1
    14    34    33   ar
    15    36    39    1
    16    36    37   ar
    17    39    40    1
    18    41    40    1
    19    41    43   ar
    20    25    26    1
    21    25     1    1
    22    26     4    2
    23    33    37   ar
    24    33     1    1
    25    37     2    2
    26     4    21    1
    27     1    17    1
    28     1     6    1
    29     2     7    1
    30    15    14   ar
    31    21    17   ar
    32    21    20   ar
    33    17    18   ar
    34     7     6    2
    35     7     8    1
    36     6    10    1
    37    14    16   ar
    38    14    13    1
    39    23    20    1
    40    23    24    2
    41    20    19   ar
    42    18    19   ar
    43    18     3    1
    44     8    12    1
    45     8     9    2
    46    10     3    2
    47    10     9    1
    48    12    13    1
    49    19    22    1
    50     9    11    1
