@<TRIPOS>MOLECULE
1vxh_HEM_A_1.pdb
 43 50 0 0 0
SMALL
GASTEIGER

@<TRIPOS>ATOM
      1 FE         14.7130   28.0600    4.7730 Fe    156  HEM156      0.0000
      2  CHA       16.0440   31.2340    5.0410 C.2   156  HEM156      0.0000
      3  CHB       14.0730   28.0090    8.1380 C.2   156  HEM156      0.0000
      4  CHC       13.4870   24.9030    4.5180 C.2   156  HEM156      0.0000
      5  CHD       15.5950   27.9000    1.5040 C.2   156  HEM156      0.0000
      6  NA        15.0190   29.3220    6.3090 N.2   156  HEM156      0.0000
      7  C1A       15.5190   30.6530    6.2470 C.2   156  HEM156      0.0000
      8  C2A       15.4710   31.2980    7.5590 C.2   156  HEM156      0.0000
      9  C3A       15.0070   30.3580    8.3900 C.2   156  HEM156      0.0000
     10  C4A       14.6840   29.1520    7.6120 C.2   156  HEM156      0.0000
     11  CMA       14.5590   30.4750    9.8510 C.3   156  HEM156      0.0000
     12  CAA       15.8580   32.7120    7.8660 C.3   156  HEM156      0.0000
     13  CBA       14.6480   33.6000    8.0690 C.3   156  HEM156      0.0000
     14  CGA       13.7470   33.6020    6.8440 C.2   156  HEM156      0.0000
     15  O1A       14.2320   34.0390    5.7760 O.co2 156  HEM156      0.0000
     16  O2A       12.6280   33.0320    6.9290 O.co2 156  HEM156      0.0000
     17  NB        13.9260   26.7280    6.0370 N.ar  156  HEM156      0.0000
     18  C1B       13.6760   26.8640    7.4070 C.ar  156  HEM156      0.0000
     19  C2B       13.0630   25.6720    8.0060 C.ar  156  HEM156      0.0000
     20  C3B       12.9220   24.8070    6.9380 C.ar  156  HEM156      0.0000
     21  C4B       13.4470   25.4520    5.7830 C.ar  156  HEM156      0.0000
     22  CMB       12.7120   25.5430    9.5050 C.3   156  HEM156      0.0000
     23  CAB       12.3010   23.5680    6.9220 C.3   156  HEM156      0.0000
     24  CBB       12.4910   22.6170    7.9140 C.3   156  HEM156      0.0000
     25  NC        14.5420   26.7030    3.2710 N.2   156  HEM156      0.0000
     26  C1C       14.0710   25.3910    3.3550 C.2   156  HEM156      0.0000
     27  C2C       14.2800   24.6310    2.1290 C.2   156  HEM156      0.0000
     28  C3C       14.8950   25.5830    1.2860 C.2   156  HEM156      0.0000
     29  C4C       15.0180   26.8060    1.9790 C.2   156  HEM156      0.0000
     30  CMC       13.8080   23.2110    1.8680 C.3   156  HEM156      0.0000
     31  CAC       15.4900   25.4960    0.0130 C.2   156  HEM156      0.0000
     32  CBC       15.3420   24.3610   -0.7540 C.2   156  HEM156      0.0000
     33  ND        15.5790   29.2900    3.5580 N.ar  156  HEM156      0.0000
     34  C1D       15.8470   29.1000    2.2420 C.ar  156  HEM156      0.0000
     35  C2D       16.5800   30.2680    1.6660 C.ar  156  HEM156      0.0000
     36  C3D       16.7750   31.1340    2.7000 C.ar  156  HEM156      0.0000
     37  C4D       16.1150   30.5600    3.8410 C.ar  156  HEM156      0.0000
     38  CMD       17.0160   30.3680    0.2270 C.3   156  HEM156      0.0000
     39  CAD       17.5960   32.4150    2.6980 C.3   156  HEM156      0.0000
     40  CBD       19.0610   32.0160    2.8270 C.3   156  HEM156      0.0000
     41  CGD       19.9620   33.2250    2.8230 C.2   156  HEM156      0.0000
     42  O1D       20.3350   33.7070    1.7260 O.co2 156  HEM156      0.0000
     43  O2D       20.2250   33.7750    3.8970 O.co2 156  HEM156      0.0000
@<TRIPOS>BOND
     1    32    31    2
     2    31    28    1
     3    38    35    1
     4    28    29    1
     5    28    27    2
     6     5    29    1
     7     5    34    2
     8    35    34   ar
     9    35    36   ar
    10    42    41   ar
    11    30    27    1
    12    29    25    2
    13    27    26    1
    14    34    33   ar
    15    39    36    1
    16    39    40    1
    17    36    37   ar
    18    41    40    1
    19    41    43   ar
    20    25    26    1
    21    25     1    1
    22    26     4    2
    23    33    37   ar
    24    33     1    1
    25    37     2    2
    26     4    21    1
    27     1    17    1
    28     1     6    1
    29     2     7    1
    30    15    14   ar
    31    21    17   ar
    32    21    20   ar
    33    17    18   ar
    34     7     6    2
    35     7     8    1
    36     6    10    1
    37    14    16   ar
    38    14    13    1
    39    23    20    1
    40    23    24    1
    41    20    19   ar
    42    18    19   ar
    43    18     3    1
    44     8    12    1
    45     8     9    2
    46    10     3    2
    47    10     9    1
    48    12    13    1
    49    19    22    1
    50     9    11    1
