@<TRIPOS>MOLECULE
1vyd_HEM_A_1.pdb
 43 50 0 0 0
SMALL
GASTEIGER

@<TRIPOS>ATOM
      1 FE          7.2560   49.5350    1.2450 Fe    1117  HEM1117     0.0000
      2  CHA       10.0360   50.1270    3.1480 C.2   1117  HEM1117     0.0000
      3  CHB        8.5380   46.4570    0.3140 C.2   1117  HEM1117     0.0000
      4  CHC        4.2890   48.7540   -0.3460 C.2   1117  HEM1117     0.0000
      5  CHD        6.1490   52.7330    1.7710 C.2   1117  HEM1117     0.0000
      6  NA         8.9050   48.5160    1.7000 N.ar  1117  HEM1117     0.0000
      7  C1A        9.9340   48.9050    2.4910 C.ar  1117  HEM1117     0.0000
      8  C2A       10.9230   47.8470    2.5070 C.ar  1117  HEM1117     0.0000
      9  C3A       10.4790   46.8690    1.7480 C.ar  1117  HEM1117     0.0000
     10  C4A        9.2050   47.2600    1.2270 C.ar  1117  HEM1117     0.0000
     11  CMA       11.0210   45.4830    1.3250 C.3   1117  HEM1117     0.0000
     12  CAA       12.2630   47.9580    3.3140 C.3   1117  HEM1117     0.0000
     13  CBA       13.3270   48.5410    2.4140 C.3   1117  HEM1117     0.0000
     14  CGA       14.7210   48.7490    2.9660 C.2   1117  HEM1117     0.0000
     15  O1A       15.0020   48.3730    4.1410 O.co2 1117  HEM1117     0.0000
     16  O2A       15.4470   49.4390    2.2110 O.co2 1117  HEM1117     0.0000
     17  NB         6.6180   47.9940    0.1670 N.2   1117  HEM1117     0.0000
     18  C1B        7.2660   46.8230   -0.0810 C.2   1117  HEM1117     0.0000
     19  C2B        6.4190   45.9580   -0.8650 C.2   1117  HEM1117     0.0000
     20  C3B        5.2480   46.5970   -0.9910 C.2   1117  HEM1117     0.0000
     21  C4B        5.3380   47.8770   -0.3680 C.2   1117  HEM1117     0.0000
     22  CMB        6.8590   44.5700   -1.4460 C.3   1117  HEM1117     0.0000
     23  CAB        3.9300   46.0920   -1.6300 C.3   1117  HEM1117     0.0000
     24  CBB        3.4260   44.8630   -1.2370 C.3   1117  HEM1117     0.0000
     25  NC         5.5590   50.5080    0.8530 N.ar  1117  HEM1117     0.0000
     26  C1C        4.4580   50.0330    0.1740 C.ar  1117  HEM1117     0.0000
     27  C2C        3.4610   51.0890    0.0590 C.ar  1117  HEM1117     0.0000
     28  C3C        3.9540   52.1560    0.6550 C.ar  1117  HEM1117     0.0000
     29  C4C        5.2840   51.8400    1.1460 C.ar  1117  HEM1117     0.0000
     30  CMC        2.1360   50.8670   -0.6930 C.3   1117  HEM1117     0.0000
     31  CAC        3.3000   53.5220    0.9510 C.2   1117  HEM1117     0.0000
     32  CBC        1.9570   53.6850    1.1890 C.2   1117  HEM1117     0.0000
     33  ND         7.9630   51.1080    2.1940 N.2   1117  HEM1117     0.0000
     34  C1D        7.3800   52.3680    2.2860 C.2   1117  HEM1117     0.0000
     35  C2D        8.1600   53.1940    3.1690 C.2   1117  HEM1117     0.0000
     36  C3D        9.2330   52.4740    3.5460 C.2   1117  HEM1117     0.0000
     37  C4D        9.1220   51.1570    2.9650 C.2   1117  HEM1117     0.0000
     38  CMD        7.7790   54.6440    3.5080 C.3   1117  HEM1117     0.0000
     39  CAD       10.3530   52.8370    4.5180 C.3   1117  HEM1117     0.0000
     40  CBD        9.9460   52.2280    5.9090 C.3   1117  HEM1117     0.0000
     41  CGD       10.4140   52.9710    7.1280 C.2   1117  HEM1117     0.0000
     42  O1D        9.8400   52.5860    8.1770 O.co2 1117  HEM1117     0.0000
     43  O2D       11.1670   53.9920    7.0500 O.co2 1117  HEM1117     0.0000
@<TRIPOS>BOND
     1    23    24    1
     2    23    20    1
     3    22    19    1
     4    20    19    2
     5    20    21    1
     6    19    18    1
     7    30    27    1
     8    21     4    2
     9    21    17    1
    10     4    26    1
    11    18    17    2
    12    18     3    1
    13    27    26   ar
    14    27    28   ar
    15    17     1    1
    16    26    25   ar
    17     3    10    2
    18    28    31    1
    19    28    29   ar
    20    25    29   ar
    21    25     1    1
    22    31    32    2
    23    29     5    1
    24    10     6   ar
    25    10     9   ar
    26     1     6    1
    27     1    33    1
    28    11     9    1
    29     6     7   ar
    30     9     8   ar
    31     5    34    2
    32    33    34    1
    33    33    37    2
    34    16    14   ar
    35    34    35    1
    36    13    14    1
    37    13    12    1
    38     7     8   ar
    39     7     2    2
    40     8    12    1
    41    37     2    1
    42    37    36    1
    43    14    15   ar
    44    35    38    1
    45    35    36    2
    46    36    39    1
    47    39    40    1
    48    40    41    1
    49    43    41   ar
    50    41    42   ar
