@<TRIPOS>MOLECULE
1vyf_OLA_A_1.pdb
 20 19 0 0 0
SMALL
GASTEIGER

@<TRIPOS>ATOM
      1  C1        16.9920   31.2630    6.3800 C.2   1134  OLA1134     0.3649
      2  O1        17.7850   32.1150    6.7500 O.co2 1134  OLA1134    -0.2457
      3  O2        17.0370   30.9660    5.0900 O.co2 1134  OLA1134    -0.2457
      4  C2        16.0230   30.4770    7.2640 C.3   1134  OLA1134     0.1141
      5  C3        15.4320   31.1480    8.5150 C.3   1134  OLA1134     0.0118
      6  C4        13.8910   30.9830    8.6210 C.3   1134  OLA1134     0.0006
      7  C5        13.3540   30.2580    9.8630 C.3   1134  OLA1134     0.0000
      8  C6        11.9490   29.6720    9.6640 C.3   1134  OLA1134     0.0003
      9  C7        10.7980   30.6320    9.9340 C.3   1134  OLA1134     0.0047
     10  C8        10.3790   31.4310    8.7030 C.3   1134  OLA1134     0.0257
     11  C9         8.9180   31.2450    8.3660 C.2   1134  OLA1134    -0.0307
     12  C10        8.3520   31.7600    7.2640 C.2   1134  OLA1134    -0.0307
     13  C11        9.1040   32.5700    6.2270 C.3   1134  OLA1134     0.0257
     14  C12        8.3200   33.8070    5.7830 C.3   1134  OLA1134     0.0047
     15  C13        8.8930   34.4630    4.5180 C.3   1134  OLA1134     0.0003
     16  C14       10.2260   35.1930    4.7200 C.3   1134  OLA1134     0.0000
     17  C15       11.4490   34.3300    4.3850 C.3   1134  OLA1134     0.0000
     18  C16       12.7280   34.8900    5.0180 C.3   1134  OLA1134     0.0000
     19  C17       13.4420   33.8780    5.9210 C.3   1134  OLA1134     0.0000
     20  C18       14.4360   33.0810    5.1130 C.3   1134  OLA1134     0.0000
@<TRIPOS>BOND
     1    17    16    1
     2    17    18    1
     3    15    16    1
     4    15    14    1
     5    18    19    1
     6     3     1   ar
     7    20    19    1
     8    14    13    1
     9    13    12    1
    10     1     2   ar
    11     1     4    1
    12    12    11    2
    13     4     5    1
    14    11    10    1
    15     5     6    1
    16     6     7    1
    17    10     9    1
    18     8     7    1
    19     8     9    1
