@<TRIPOS>MOLECULE
1vyg_ACD_A_1.pdb
 22 21 0 0 0
SMALL
GASTEIGER

@<TRIPOS>ATOM
      1  C1        17.0340   31.3290    6.3160 C.2   1134  ACD1134     0.3649
      2  C2        16.3860   30.3750    7.2820 C.3   1134  ACD1134     0.1144
      3  C3        15.2910   31.1270    8.0340 C.3   1134  ACD1134     0.0165
      4  C4        14.1260   30.1760    8.3230 C.3   1134  ACD1134     0.0263
      5  C5        14.0140   29.8790    9.8140 C.2   1134  ACD1134    -0.0304
      6  C6        12.8630   29.3630   10.2740 C.2   1134  ACD1134    -0.0260
      7  C7        11.7080   29.0650    9.3390 C.3   1134  ACD1134     0.0513
      8  C8        10.5190   29.6300   10.0190 C.2   1134  ACD1134    -0.0257
      9  C9         9.5660   30.3730    9.4630 C.2   1134  ACD1134    -0.0257
     10  C10        9.4810   30.8020    8.0320 C.3   1134  ACD1134     0.0513
     11  C11        8.0200   31.1210    7.8520 C.2   1134  ACD1134    -0.0257
     12  C12        7.5120   31.6000    6.7320 C.2   1134  ACD1134    -0.0257
     13  C13        8.3700   31.8860    5.5430 C.3   1134  ACD1134     0.0513
     14  C14        8.1380   33.3240    5.1070 C.2   1134  ACD1134    -0.0260
     15  C15        9.0190   33.9950    4.3560 C.2   1134  ACD1134    -0.0304
     16  C16       10.3060   33.3720    3.8360 C.3   1134  ACD1134     0.0257
     17  C17       11.5240   34.0660    4.4230 C.3   1134  ACD1134     0.0047
     18  C18       11.5070   35.5550    4.0900 C.3   1134  ACD1134     0.0003
     19  C19       11.4270   36.3440    5.3890 C.3   1134  ACD1134     0.0000
     20  C20       11.3330   37.8550    5.1650 C.3   1134  ACD1134     0.0000
     21  O1        17.6710   32.3160    6.6950 O.co2 1134  ACD1134    -0.2457
     22  O2        16.8700   31.0720    5.0250 O.co2 1134  ACD1134    -0.2457
@<TRIPOS>BOND
     1    16    15    1
     2    16    17    1
     3    18    17    1
     4    18    19    1
     5    15    14    2
     6    22     1   ar
     7    14    13    1
     8    20    19    1
     9    13    12    1
    10     1    21   ar
    11     1     2    1
    12    12    11    2
    13     2     3    1
    14    11    10    1
    15    10     9    1
    16     3     4    1
    17     4     5    1
    18     7     8    1
    19     7     6    1
    20     9     8    2
    21     5     6    2
