@<TRIPOS>MOLECULE
1vyp_FMN_X_1.pdb
 31 33 0 0 0
SMALL
GASTEIGER

@<TRIPOS>ATOM
      1  N1        21.9380    7.5040   24.8650 N.2   401  FMN401     -0.2887
      2  C2        21.1570    6.4240   24.5560 C.1   401  FMN401      0.3669
      3  O2        20.2170    6.0830   25.3110 O.2   401  FMN401     -0.1744
      4  N3        21.4170    5.6970   23.4060 N.2   401  FMN401     -0.2300
      5  C4        22.3960    6.0350   22.4870 C.1   401  FMN401      0.2513
      6  O4        22.6450    5.2220   21.5450 O.2   401  FMN401     -0.2057
      7  C4A       23.1750    7.1720   22.7700 C.2   401  FMN401      0.2706
      8  N5        24.1820    7.5620   21.8880 N.2   401  FMN401     -0.3841
      9  C5A       25.0540    8.5850   22.2750 C.2   401  FMN401      0.1452
     10  C6        26.1020    8.9610   21.4150 C.2   401  FMN401      0.0252
     11  C7        27.0080    9.9750   21.7710 C.2   401  FMN401     -0.0375
     12  C7M       28.2020   10.2480   20.8890 C.3   401  FMN401      0.0268
     13  C8        26.8310   10.6570   22.9910 C.3   401  FMN401      0.0417
     14  C8M       27.8800   11.6300   23.4910 C.3   401  FMN401      0.0091
     15  C9        25.7690   10.2990   23.8420 C.2   401  FMN401     -0.0049
     16  C9A       24.8680    9.2660   23.5040 C.2   401  FMN401      0.0795
     17  N10       23.8050    8.9040   24.3590 N.pl3 401  FMN401     -0.2545
     18  C10       22.9590    7.8570   23.9910 C.2   401  FMN401      0.2449
     19  C1'       23.7420    9.4080   25.7770 C.3   401  FMN401      0.1336
     20  C2'       24.7200    8.6150   26.6710 C.3   401  FMN401      0.2048
     21  O2'       24.2440    7.3030   26.8970 O.3   401  FMN401     -0.2185
     22  C3'       24.9320    9.1770   28.0800 C.3   401  FMN401      0.2165
     23  O3'       23.7110    9.2460   28.8040 O.3   401  FMN401     -0.2175
     24  C4'       25.6510   10.5020   28.1620 C.3   401  FMN401      0.2147
     25  O4'       26.7090   10.5380   27.1980 O.3   401  FMN401     -0.2176
     26  C5'       26.1220   10.6350   29.6320 C.3   401  FMN401      0.1892
     27  O5'       26.7950   11.7770   29.8620 O.3   401  FMN401     -0.2674
     28  P         28.3610   11.8010   29.8550 P.3   401  FMN401      0.5327
     29  O1P       28.8340   11.6110   28.4050 O.2   401  FMN401     -0.2224
     30  O2P       28.5990   13.1980   30.3520 O.3   401  FMN401     -0.1145
     31  O3P       28.8470   10.6950   30.8110 O.3   401  FMN401     -0.1145
@<TRIPOS>BOND
     1    12    11    1
     2    10    11    2
     3    10     9    1
     4     6     5    2
     5    11    13    1
     6     8     9    2
     7     8     7    2
     8     9    16    1
     9     5     7    1
    10     5     4    2
    11     7    18    1
    12    13    14    1
    13    13    15    1
    14     4     2    2
    15    16    15    2
    16    16    17    1
    17    18    17    1
    18    18     1    2
    19    17    19    1
    20     2     1    2
    21     2     3    2
    22    19    20    1
    23    20    21    1
    24    20    22    1
    25    25    24    1
    26    22    24    1
    27    22    23    1
    28    24    26    1
    29    29    28    2
    30    26    27    1
    31    28    27    1
    32    28    30    1
    33    28    31    1
