@<TRIPOS>MOLECULE
1vyp_TNF_X_1.pdb
 16 16 0 0 0
SMALL
GASTEIGER

@<TRIPOS>ATOM
      1  C1        20.3980    8.7890   21.8570 C.2   500  TNF500      0.2269
      2  C2        21.1910   10.0240   22.1650 C.2   500  TNF500      0.1814
      3  C3        22.0610   10.5310   21.1850 C.2   500  TNF500      0.0509
      4  C4        22.2080    9.9270   19.9440 C.2   500  TNF500      0.1428
      5  N4        23.0950   10.4840   19.0180 N.pl3 500  TNF500      0.0575
      6  N2        21.1660   10.7380   23.3100 N.pl3 500  TNF500      0.0607
      7  O1        19.6080    8.2220   22.6710 O.2   500  TNF500     -0.2870
      8  O21       21.8800   11.7340   23.4550 O.2   500  TNF500     -0.1260
      9  O22       20.4690   10.4050   24.2380 O.2   500  TNF500     -0.1260
     10  O41       24.2090   10.7740   19.4090 O.2   500  TNF500     -0.1261
     11  C6        20.6320    8.1840   20.5100 C.3   500  TNF500      0.2524
     12  C5        21.5120    8.7880   19.6180 C.2   500  TNF500      0.0349
     13  O42       22.7720   10.6830   17.8470 O.2   500  TNF500     -0.1261
     14  N6        19.9570    7.0330   20.0600 N.pl3 500  TNF500      0.0443
     15  O61       19.9320    6.7330   18.8390 O.2   500  TNF500     -0.1303
     16  O62       19.4010    6.2890   20.8640 O.2   500  TNF500     -0.1303
@<TRIPOS>BOND
     1    13     5    2
     2    15    14    2
     3     5    10    2
     4     5     4    1
     5    12     4    2
     6    12    11    1
     7     4     3    1
     8    14    11    1
     9    14    16    2
    10    11     1    1
    11     3     2    2
    12     1     2    1
    13     1     7    2
    14     2     6    1
    15     6     8    2
    16     6     9    2
