@<TRIPOS>MOLECULE
1vyq_DUX_A_1.pdb
 35 39 0 0 0
SMALL
GASTEIGER

@<TRIPOS>ATOM
      1  F3'       37.8290   -8.9620  -12.6150 F     1160  DUX1160    -0.2344
      2  C3'       37.3800   -9.6380  -11.5560 C.3   1160  DUX1160     0.1947
      3  C2'       36.2180  -10.5470  -11.9640 C.3   1160  DUX1160     0.0898
      4  C1'       36.5220  -11.8020  -11.1630 C.3   1160  DUX1160     0.2092
      5  N1        35.9400  -11.8400   -9.8170 N.am  1160  DUX1160    -0.1790
      6  C2        35.8490  -13.1040   -9.1740 C.1   1160  DUX1160     0.2844
      7  N3        35.3030  -13.1860   -7.9360 N.2   1160  DUX1160    -0.2452
      8  C4        34.8650  -12.0830   -7.2780 C.1   1160  DUX1160     0.2182
      9  C5        34.9510  -10.8210   -7.8630 C.2   1160  DUX1160     0.1242
     10  C6        35.4940  -10.7320   -9.1490 C.2   1160  DUX1160     0.0928
     11  O4        34.4020  -12.1570   -6.1310 O.2   1160  DUX1160    -0.2085
     12  O2        36.2720  -14.1170   -9.7800 O.2   1160  DUX1160    -0.1918
     13  O4'       37.9440  -11.8280  -10.9840 O.3   1160  DUX1160    -0.3337
     14  C4'       38.5220  -10.5050  -11.0940 C.3   1160  DUX1160     0.1790
     15  C5'       39.1520   -9.9530   -9.8220 C.3   1160  DUX1160     0.1755
     16  O5'       40.5210  -10.4390   -9.6660 O.3   1160  DUX1160    -0.3437
     17  C17       41.1400  -10.5420   -8.3480 C.3   1160  DUX1160     0.1490
     18  C30       41.7220   -9.1670   -8.0130 C.ar  1160  DUX1160     0.0098
     19  C31       41.5580   -8.0490   -8.8700 C.ar  1160  DUX1160    -0.0014
     20  C32       42.1120   -6.8100   -8.5390 C.ar  1160  DUX1160    -0.0002
     21  C33       42.8720   -6.6580   -7.3740 C.ar  1160  DUX1160    -0.0000
     22  C34       43.0660   -7.7530   -6.5360 C.ar  1160  DUX1160    -0.0002
     23  C35       42.4930   -8.9990   -6.8430 C.ar  1160  DUX1160    -0.0014
     24  C24       40.0380  -11.0310   -7.4310 C.ar  1160  DUX1160     0.0098
     25  C25       39.5480  -10.2750   -6.3650 C.ar  1160  DUX1160    -0.0014
     26  C26       38.5090  -10.7520   -5.5640 C.ar  1160  DUX1160    -0.0002
     27  C27       37.9090  -11.9710   -5.8420 C.ar  1160  DUX1160    -0.0000
     28  C28       38.3690  -12.7440   -6.9040 C.ar  1160  DUX1160    -0.0002
     29  C29       39.4220  -12.2750   -7.7040 C.ar  1160  DUX1160    -0.0014
     30  C18       42.2870  -11.5390   -8.4740 C.ar  1160  DUX1160     0.0098
     31  C19       43.1010  -11.5630   -9.6240 C.ar  1160  DUX1160    -0.0014
     32  C20       44.1740  -12.4790   -9.7290 C.ar  1160  DUX1160    -0.0002
     33  C21       44.4400  -13.4070   -8.7110 C.ar  1160  DUX1160    -0.0000
     34  C22       43.6470  -13.3850   -7.5640 C.ar  1160  DUX1160    -0.0002
     35  C23       42.5930  -12.4660   -7.4560 C.ar  1160  DUX1160    -0.0014
@<TRIPOS>BOND
     1     1     2    1
     2     3     2    1
     3     3     4    1
     4     2    14    1
     5     4    13    1
     6     4     5    1
     7    14    13    1
     8    14    15    1
     9    15    16    1
    10     5     6   am
    11     5    10    1
    12    12     6    2
    13    32    31   ar
    14    32    33   ar
    15    16    17    1
    16    31    30   ar
    17     6     7    2
    18    10     9    2
    19    19    20   ar
    20    19    18   ar
    21    33    34   ar
    22    20    21   ar
    23    30    17    1
    24    30    35   ar
    25    17    18    1
    26    17    24    1
    27    18    23   ar
    28     7     8    2
    29     9     8    1
    30    29    24   ar
    31    29    28   ar
    32    34    35   ar
    33    24    25   ar
    34    21    22   ar
    35     8    11    2
    36    28    27   ar
    37    23    22   ar
    38    25    26   ar
    39    27    26   ar
