@<TRIPOS>MOLECULE
1vyr_TNF_A_1.pdb
 16 16 0 0 0
SMALL
GASTEIGER

@<TRIPOS>ATOM
      1  C1        20.1050    8.7730   21.3480 C.2   1402  TNF1402     0.2397
      2  C2        20.4040    8.1530   20.0390 C.2   1402  TNF1402     0.1813
      3  C3        21.2490    8.6500   19.1160 C.2   1402  TNF1402     0.0348
      4  C4        22.0150    9.7880   19.3950 C.3   1402  TNF1402     0.2136
      5  N4        22.9620   10.0900   18.4020 N.pl3 1402  TNF1402     0.0410
      6  N2        19.6590    6.9880   19.6660 N.pl3 1402  TNF1402     0.0607
      7  O1        19.3250    8.4150   22.2620 O.2   1402  TNF1402    -0.2830
      8  O21       19.1310    6.3070   20.5100 O.2   1402  TNF1402    -0.1260
      9  O22       19.5120    6.7590   18.4900 O.2   1402  TNF1402    -0.1260
     10  O41       23.0960    9.4680   17.3510 O.2   1402  TNF1402    -0.1304
     11  C6        20.8980   10.0770   21.5480 C.2   1402  TNF1402     0.1813
     12  C5        21.8270   10.4930   20.5910 C.2   1402  TNF1402     0.0348
     13  O42       23.6480   11.1060   18.4720 O.2   1402  TNF1402    -0.1304
     14  N6        20.6610   10.7600   22.7430 N.pl3 1402  TNF1402     0.0607
     15  O61       21.2280   11.7880   23.0930 O.2   1402  TNF1402    -0.1260
     16  O62       19.8340   10.3270   23.5260 O.2   1402  TNF1402    -0.1260
@<TRIPOS>BOND
     1    10     5    2
     2     5    13    2
     3     5     4    1
     4     9     6    2
     5     3     4    1
     6     3     2    2
     7     4    12    1
     8     6     2    1
     9     6     8    2
    10     2     1    1
    11    12    11    2
    12     1    11    1
    13     1     7    2
    14    11    14    1
    15    14    15    2
    16    14    16    2
