@<TRIPOS>MOLECULE
1vyr_FMN_A_1.pdb
 49 51 0 0 0
SMALL
GASTEIGER

@<TRIPOS>ATOM
      1  N1        21.6550    7.7620   24.3530 N.2   1401  FMN1401    -0.3029
      2  C2        20.9130    6.6400   24.1130 C.1   1401  FMN1401     0.2727
      3  O2        20.0010    6.2840   24.8880 O.2   1401  FMN1401    -0.1927
      4  N3        21.2040    5.8290   23.0170 N.am  1401  FMN1401    -0.1956
      5  C4        22.1290    6.2000   22.0420 C.2   1401  FMN1401     0.2930
      6  O4        22.3930    5.3380   21.1270 O.2   1401  FMN1401    -0.2661
      7  C4A       22.9130    7.3430   22.2800 C.2   1401  FMN1401     0.2295
      8  N5        23.8530    7.7210   21.4040 N.2   1401  FMN1401    -0.3962
      9  C5A       24.6640    8.7870   21.7170 C.2   1401  FMN1401     0.1228
     10  C6        25.7710    9.1150   20.8900 C.2   1401  FMN1401    -0.0228
     11  C7        26.7050   10.0890   21.2090 C.2   1401  FMN1401    -0.0450
     12  C7M       27.8830   10.3280   20.3160 C.3   1401  FMN1401    -0.0394
     13  C8        26.5160   10.8230   22.4240 C.2   1401  FMN1401    -0.0489
     14  C8M       27.4940   11.9060   22.8650 C.3   1401  FMN1401    -0.0397
     15  C9        25.4480   10.5280   23.2580 C.2   1401  FMN1401    -0.0478
     16  C9A       24.5110    9.4950   22.9380 C.3   1401  FMN1401     0.1409
     17  N10       23.4690    9.1340   23.8080 N.pl3 1401  FMN1401    -0.2812
     18  C10       22.6230    8.0720   23.4930 C.2   1401  FMN1401     0.2319
     19  C1'       23.3890    9.7340   25.1500 C.3   1401  FMN1401     0.0444
     20  C2'       24.4060    9.0930   26.0860 C.3   1401  FMN1401     0.0996
     21  O2'       23.9910    7.7490   26.4220 O.3   1401  FMN1401    -0.3876
     22  C3'       24.5360    9.8440   27.3990 C.3   1401  FMN1401     0.1161
     23  O3'       23.2740    9.8180   28.1350 O.3   1401  FMN1401    -0.3861
     24  C4'       25.0130   11.3140   27.2190 C.3   1401  FMN1401     0.1509
     25  O4'       26.1950   11.2670   26.3600 O.3   1401  FMN1401    -0.3806
     26  C5'       25.2660   12.1020   28.4680 C.3   1401  FMN1401     0.0934
     27  O5'       26.1880   11.3780   29.2940 O.3   1401  FMN1401    -0.2805
     28  P         27.8060   11.8740   29.3490 P.3   1401  FMN1401     0.5320
     29  O1P       27.8040   13.2980   29.8460 O.3   1401  FMN1401    -0.1145
     30  O2P       28.3960   10.8780   30.3140 O.3   1401  FMN1401    -0.1145
     31  O3P       28.3720   11.7600   27.9220 O.2   1401  FMN1401    -0.2224
     32  HN3       20.8000    5.0740   22.9400 H     1401  FMN1401     0.1693
     33  H6        25.8750    8.6520   20.0900 H     1401  FMN1401     0.0649
     34 HM71       28.4250   11.0320   20.6820 H     1401  FMN1401     0.0278
     35 HM72       27.5770   10.5820   19.4420 H     1401  FMN1401     0.0278
     36 HM73       28.4040    9.5240   20.2510 H     1401  FMN1401     0.0278
     37 HM81       28.1790   12.0080   22.2000 H     1401  FMN1401     0.0278
     38 HM82       27.8950   11.6540   23.7000 H     1401  FMN1401     0.0278
     39 HM83       27.0250   12.7370   22.9720 H     1401  FMN1401     0.0278
     40  H9        25.3390   11.0120   24.0450 H     1401  FMN1401     0.0601
     41 H1'1       22.4960    9.6110   25.5080 H     1401  FMN1401     0.0491
     42 H1'2       23.5600   10.6870   25.0900 H     1401  FMN1401     0.0491
     43 HO2'       23.9100    7.3090   25.7350 H     1401  FMN1401     0.2100
     44  H3'       25.2060    9.3790   27.9420 H     1401  FMN1401     0.0650
     45 HO3'       22.7160    9.3960   27.7070 H     1401  FMN1401     0.2100
     46 H5'1       25.6360   12.9700   28.2420 H     1401  FMN1401     0.0596
     47 H5'2       24.4330   12.2400   28.9450 H     1401  FMN1401     0.0596
     48  H2'       25.2790    9.0610   25.6420 H     1401  FMN1401     0.0636
     49 HO4'       26.8050   11.6860   26.7120 H     1401  FMN1401     0.2105
@<TRIPOS>BOND
     1    35    12    1
     2    33    10    1
     3    36    12    1
     4    12    34    1
     5    12    11    1
     6    10    11    2
     7    10     9    1
     8     6     5    2
     9    11    13    1
    10     8     9    2
    11     8     7    2
    12     9    16    1
    13     5     7    1
    14     5     4   am
    15    37    14    1
    16     7    18    1
    17    13    14    1
    18    13    15    2
    19    14    39    1
    20    14    38    1
    21    16    15    1
    22    16    17    1
    23    32     4    1
    24     4     2   am
    25    15    40    1
    26    18    17    1
    27    18     1    2
    28    17    19    1
    29     2     1    2
    30     2     3    2
    31    42    19    1
    32    19    41    1
    33    19    20    1
    34    48    20    1
    35    43    21    1
    36    20    21    1
    37    20    22    1
    38    25    49    1
    39    25    24    1
    40    24    22    1
    41    24    26    1
    42    22    44    1
    43    22    23    1
    44    45    23    1
    45    31    28    2
    46    46    26    1
    47    26    47    1
    48    26    27    1
    49    27    28    1
    50    28    29    1
    51    28    30    1
