@<TRIPOS>MOLECULE
1vys_FMN_X_1.pdb
 31 33 0 0 0
SMALL
GASTEIGER

@<TRIPOS>ATOM
      1  N1        21.4460    7.4750   24.3890 N.2   401  FMN401     -0.2887
      2  C2        20.6790    6.3670   24.0930 C.1   401  FMN401      0.3669
      3  O2        19.7760    6.0630   24.8440 O.2   401  FMN401     -0.1744
      4  N3        20.9160    5.6150   22.9440 N.2   401  FMN401     -0.2300
      5  C4        21.8850    6.0000   22.0580 C.1   401  FMN401      0.2513
      6  O4        22.2510    5.2270   21.1760 O.2   401  FMN401     -0.2057
      7  C4A       22.6960    7.1180   22.3850 C.2   401  FMN401      0.2703
      8  N5        23.7200    7.5160   21.5210 N.2   401  FMN401     -0.3882
      9  C5A       24.5290    8.5760   21.8610 C.2   401  FMN401      0.1277
     10  C6        25.5760    8.9030   21.0150 C.3   401  FMN401      0.0820
     11  C7        26.4710    9.9430   21.3260 C.2   401  FMN401     -0.0408
     12  C7M       27.6270   10.1450   20.3890 C.3   401  FMN401      0.0265
     13  C8        26.3090   10.6440   22.5010 C.2   401  FMN401     -0.0280
     14  C8M       27.3770   11.5780   22.9510 C.3   401  FMN401      0.0304
     15  C9        25.2750   10.2920   23.3900 C.2   401  FMN401      0.0123
     16  C9A       24.3540    9.2500   23.0620 C.2   401  FMN401      0.0793
     17  N10       23.3330    8.8620   23.9100 N.pl3 401  FMN401     -0.2545
     18  C10       22.5020    7.8090   23.5580 C.2   401  FMN401      0.2449
     19  C1'       23.2660    9.3580   25.3050 C.3   401  FMN401      0.1336
     20  C2'       24.2790    8.6020   26.1380 C.3   401  FMN401      0.2048
     21  O2'       23.7950    7.2890   26.3720 O.3   401  FMN401     -0.2185
     22  C3'       24.4430    9.3140   27.4790 C.3   401  FMN401      0.2165
     23  O3'       23.2400    9.2610   28.2060 O.3   401  FMN401     -0.2175
     24  C4'       24.8900   10.7560   27.3020 C.3   401  FMN401      0.2147
     25  O4'       26.0890   10.7960   26.5660 O.3   401  FMN401     -0.2176
     26  C5'       25.0890   11.4910   28.5990 C.3   401  FMN401      0.1892
     27  O5'       26.1280   10.9950   29.3890 O.3   401  FMN401     -0.2674
     28  P         27.6800   11.5330   29.3540 P.3   401  FMN401      0.5327
     29  O1P       28.2520   11.4260   27.9370 O.2   401  FMN401     -0.2224
     30  O2P       27.8000   12.9270   29.8200 O.3   401  FMN401     -0.1145
     31  O3P       28.2970   10.5400   30.3330 O.3   401  FMN401     -0.1145
@<TRIPOS>BOND
     1    12    11    1
     2    10    11    1
     3    10     9    1
     4     6     5    2
     5    11    13    2
     6     8     9    2
     7     8     7    2
     8     9    16    1
     9     5     7    1
    10     5     4    2
    11     7    18    1
    12    13    14    1
    13    13    15    1
    14     4     2    2
    15    16    15    2
    16    16    17    1
    17    18    17    1
    18    18     1    2
    19    17    19    1
    20     2     1    2
    21     2     3    2
    22    19    20    1
    23    20    21    1
    24    20    22    1
    25    25    24    1
    26    24    22    1
    27    24    26    1
    28    22    23    1
    29    29    28    2
    30    26    27    1
    31    28    27    1
    32    28    30    1
    33    28    31    1
