@<TRIPOS>MOLECULE
1vys_TNF_X_1.pdb
 16 16 0 0 0
SMALL
GASTEIGER

@<TRIPOS>ATOM
      1  C1        20.0410    8.7760   21.1690 C.2   500  TNF500      0.2269
      2  C2        20.2930    8.0080   19.8960 C.2   500  TNF500      0.1814
      3  C3        21.0800    8.5920   18.9240 C.2   500  TNF500      0.0509
      4  C4        21.7390    9.8040   19.0660 C.2   500  TNF500      0.1428
      5  N4        22.4790   10.3230   17.9530 N.pl3 500  TNF500      0.0575
      6  N2        19.6620    6.8200   19.5740 N.pl3 500  TNF500      0.0607
      7  O1        19.3680    8.3150   22.0780 O.2   500  TNF500     -0.2870
      8  O21       19.4750    6.5100   18.3680 O.2   500  TNF500     -0.1260
      9  O22       19.2390    6.1320   20.4750 O.2   500  TNF500     -0.1260
     10  O41       22.7590    9.7550   16.9000 O.2   500  TNF500     -0.1261
     11  C6        20.7360   10.0280   21.2960 C.3   500  TNF500      0.2524
     12  C5        21.5340   10.5020   20.2540 C.2   500  TNF500      0.0349
     13  O42       22.7200   11.5070   17.9120 O.2   500  TNF500     -0.1261
     14  N6        20.5490   10.7730   22.4600 N.pl3 500  TNF500      0.0443
     15  O61       19.4450   11.2200   22.6210 O.2   500  TNF500     -0.1303
     16  O62       21.4520   11.0900   23.1400 O.2   500  TNF500     -0.1303
@<TRIPOS>BOND
     1    10     5    2
     2    13     5    2
     3     5     4    1
     4     8     6    2
     5     3     4    1
     6     3     2    2
     7     4    12    2
     8     6     2    1
     9     6     9    2
    10     2     1    1
    11    12    11    1
    12     1    11    1
    13     1     7    2
    14    11    14    1
    15    14    15    2
    16    14    16    2
