@<TRIPOS>MOLECULE
1vyw_292_A_1.pdb
 22 25 0 0 0
SMALL
GASTEIGER

@<TRIPOS>ATOM
      1  C1       -14.2880  203.6300  112.0780 C.3   2300  2922300     0.0061
      2  C2       -15.1160  204.8880  111.8320 C.3   2300  2922300     0.0061
      3  C3       -14.1370  204.3990  110.7650 C.3   2300  2922300     0.0406
      4  C4       -12.8620  205.2490  110.5460 C.2   2300  2922300     0.0951
      5  C5       -11.9040  205.6350  111.4730 C.3   2300  2922300     0.1690
      6  C6       -10.9660  206.3880  110.7680 C.2   2300  2922300     0.3774
      7  N7       -11.3450  206.4530  109.4490 N.2   2300  2922300     0.0793
      8  N8       -12.4870  205.7650  109.3270 N.2   2300  2922300    -0.0426
      9  N9        -9.7770  207.0220  111.3320 N.am  2300  2922300     0.0306
     10  C10       -9.2810  207.0700  112.5820 C.2   2300  2922300     0.3565
     11  C11       -7.9730  207.8680  112.7690 C.3   2300  2922300     0.1430
     12  C12       -6.8060  206.9370  113.0810 C.ar  2300  2922300    -0.0106
     13  C13       -5.9760  206.4610  112.0280 C.ar  2300  2922300    -0.0037
     14  C14       -4.9020  205.5870  112.3160 C.ar  2300  2922300    -0.0003
     15  C15       -4.6480  205.1820  113.7330 C.ar  2300  2922300    -0.0000
     16  C16       -5.4940  205.6730  114.7540 C.ar  2300  2922300    -0.0003
     17  C17       -6.5600  206.5420  114.4320 C.ar  2300  2922300    -0.0037
     18  C18       -3.5670  204.3020  114.0230 C.ar  2300  2922300    -0.0000
     19  C19       -4.0550  205.0930  111.2910 C.ar  2300  2922300    -0.0000
     20  C20       -2.9830  204.2160  111.6190 C.ar  2300  2922300    -0.0000
     21  C21       -2.7420  203.8280  112.9670 C.ar  2300  2922300    -0.0000
     22  O22       -9.8080  206.5270  113.5570 O.2   2300  2922300    -0.2425
@<TRIPOS>BOND
     1     8     7    1
     2     8     4    2
     3     7     6    2
     4     4     3    1
     5     4     5    1
     6     3     2    1
     7     3     1    1
     8     6     9    1
     9     6     5    1
    10    19    20   ar
    11    19    14   ar
    12     9    10   am
    13    20    21   ar
    14     2     1    1
    15    13    14   ar
    16    13    12   ar
    17    14    15   ar
    18    10    11    1
    19    10    22    2
    20    11    12    1
    21    21    18   ar
    22    12    17   ar
    23    15    18   ar
    24    15    16   ar
    25    17    16   ar
