@<TRIPOS>MOLECULE
1vyz_N5B_A_1.pdb
 17 19 0 0 0
SMALL
GASTEIGER

@<TRIPOS>ATOM
      1  C1        13.3460   45.8330   22.1760 C.2   300  N5B300      0.0951
      2  C2        14.6380   45.0460   21.8820 C.3   300  N5B300      0.0406
      3  C3        12.6940   45.9870   23.3940 C.3   300  N5B300      0.1690
      4  N4        12.6150   46.5250   21.2280 N.2   300  N5B300     -0.0426
      5  C5        15.7760   45.2660   22.8960 C.3   300  N5B300      0.0061
      6  C6        15.2540   43.8530   22.5490 C.3   300  N5B300      0.0061
      7  C7        11.5690   46.7760   23.1460 C.2   300  N5B300      0.3777
      8  N8        11.5360   47.1000   21.8090 N.2   300  N5B300      0.0794
      9  N9        10.5930   47.1820   24.1540 N.am  300  N5B300      0.0346
     10  C10       10.2410   46.6320   25.3470 C.2   300  N5B300      0.3753
     11  C11        9.0630   47.2380   26.1210 C.ar  300  N5B300      0.0820
     12  O12       10.8790   45.6680   25.8050 O.2   300  N5B300     -0.2377
     13  C13        8.3470   46.3920   27.0380 C.ar  300  N5B300      0.0070
     14  C14        8.6470   48.6130   26.0220 C.ar  300  N5B300      0.0070
     15  C15        7.2720   46.8960   27.8190 C.ar  300  N5B300      0.0002
     16  C16        7.5730   49.1110   26.8040 C.ar  300  N5B300      0.0002
     17  C17        6.8900   48.2510   27.6990 C.ar  300  N5B300      0.0000
@<TRIPOS>BOND
     1     4     8    1
     2     4     1    2
     3     8     7    2
     4     2     1    1
     5     2     6    1
     6     2     5    1
     7     1     3    1
     8     6     5    1
     9     7     3    1
    10     7     9    1
    11     9    10   am
    12    10    12    2
    13    10    11    1
    14    14    11   ar
    15    14    16   ar
    16    11    13   ar
    17    16    17   ar
    18    13    15   ar
    19    17    15   ar
