@<TRIPOS>MOLECULE
1vza_UMP_A_1.pdb
 21 22 0 0 0
SMALL
GASTEIGER

@<TRIPOS>ATOM
      1  N1        15.0790   46.5490  -52.2200 N.ar  317  UMP317     -0.2571
      2  C2        14.2080   45.6120  -51.5820 C.ar  317  UMP317      0.3322
      3  N3        13.4160   46.0880  -50.5440 N.ar  317  UMP317     -0.2743
      4  C4        13.4360   47.3980  -50.0470 C.ar  317  UMP317      0.2626
      5  C5        14.3720   48.2900  -50.7340 C.ar  317  UMP317      0.0795
      6  C6        15.1730   47.8210  -51.8170 C.ar  317  UMP317      0.0868
      7  O2        14.1650   44.4090  -51.7950 O.2   317  UMP317     -0.2464
      8  O4        12.6270   47.7450  -49.1720 O.2   317  UMP317     -0.2670
      9  C1'       15.9150   46.1850  -53.3880 C.3   317  UMP317      0.2107
     10  C2'       15.1510   45.9860  -54.6540 C.3   317  UMP317      0.0895
     11  C3'       16.2230   45.9900  -55.7170 C.3   317  UMP317      0.1859
     12  C4'       17.0390   47.1830  -55.2760 C.3   317  UMP317      0.1776
     13  O3'       17.0300   44.7870  -55.6240 O.3   317  UMP317     -0.2203
     14  O4'       16.9500   47.1160  -53.8140 O.3   317  UMP317     -0.3326
     15  C5'       16.4370   48.4530  -55.8100 C.3   317  UMP317      0.1858
     16  O5'       16.8750   48.6060  -57.2030 O.3   317  UMP317     -0.2675
     17  P         15.8040   49.1950  -58.2320 P.3   317  UMP317      0.5327
     18  OP1       16.3060   49.2240  -59.6050 O.2   317  UMP317     -0.2224
     19  OP2       14.7340   48.1700  -58.0670 O.3   317  UMP317     -0.1145
     20  OP3       15.4020   50.5020  -57.6990 O.3   317  UMP317     -0.1145
     21  HN3       12.7280   45.4870  -50.1900 H     317  UMP317      0.1734
@<TRIPOS>BOND
     1    18    17    2
     2    17    19    1
     3    17    20    1
     4    17    16    1
     5    16    15    1
     6    15    12    1
     7    11    13    1
     8    11    12    1
     9    11    10    1
    10    12    14    1
    11    10     9    1
    12    14     9    1
    13     9     1    1
    14     1     6   ar
    15     1     2   ar
    16     6     5   ar
    17     7     2    2
    18     2     3   ar
    19     5     4   ar
    20     3    21    1
    21     3     4   ar
    22     4     8    2
