@<TRIPOS>MOLECULE
1vzb_UMP_A_1.pdb
 21 22 0 0 0
SMALL
GASTEIGER

@<TRIPOS>ATOM
      1  N1        14.4260   48.3860  -54.0340 N.ar  317  UMP317     -0.2571
      2  C2        13.7290   47.3270  -53.5100 C.ar  317  UMP317      0.3322
      3  N3        12.8900   47.5990  -52.4840 N.ar  317  UMP317     -0.2743
      4  C4        12.6930   48.8680  -51.9080 C.ar  317  UMP317      0.2626
      5  C5        13.4690   49.9010  -52.5260 C.ar  317  UMP317      0.0795
      6  C6        14.3220   49.5920  -53.5830 C.ar  317  UMP317      0.0868
      7  O2        13.7710   46.2100  -53.9490 O.2   317  UMP317     -0.2464
      8  O4        11.8580   49.1300  -51.0210 O.2   317  UMP317     -0.2670
      9  C1'       15.4270   48.2510  -55.0910 C.3   317  UMP317      0.2107
     10  C2'       14.9190   48.0940  -56.4580 C.3   317  UMP317      0.0895
     11  C3'       16.1840   48.0720  -57.2650 C.3   317  UMP317      0.1859
     12  C4'       16.7320   49.3760  -56.7340 C.3   317  UMP317      0.1776
     13  O3'       16.9330   46.9120  -56.8290 O.3   317  UMP317     -0.2203
     14  O4'       16.3510   49.3360  -55.3210 O.3   317  UMP317     -0.3326
     15  C5'       16.0950   50.6710  -57.3940 C.3   317  UMP317      0.1858
     16  O5'       16.7350   51.0950  -58.6650 O.3   317  UMP317     -0.2675
     17  P         15.7490   51.6820  -59.7700 P.3   317  UMP317      0.5327
     18  OP1       15.2810   52.9730  -59.2870 O.3   317  UMP317     -0.1145
     19  OP2       16.4140   51.7870  -61.1020 O.2   317  UMP317     -0.2224
     20  OP3       14.6740   50.6470  -59.7900 O.3   317  UMP317     -0.1145
     21  HN3       12.4080   46.8450  -52.0830 H     317  UMP317      0.1734
@<TRIPOS>BOND
     1    19    17    2
     2    20    17    1
     3    17    18    1
     4    17    16    1
     5    16    15    1
     6    15    12    1
     7    11    13    1
     8    11    12    1
     9    11    10    1
    10    12    14    1
    11    10     9    1
    12    14     9    1
    13     9     1    1
    14     1     6   ar
    15     1     2   ar
    16     7     2    2
    17     6     5   ar
    18     2     3   ar
    19     5     4   ar
    20     3    21    1
    21     3     4   ar
    22     4     8    2
