@<TRIPOS>MOLECULE
1vzc_UFP_A_1.pdb
 22 23 0 0 0
SMALL
GASTEIGER

@<TRIPOS>ATOM
      1  N1        15.0670   47.1370  -51.7810 N.ar  317  UFP317     -0.2548
      2  C2        14.1010   46.2690  -51.1410 C.ar  317  UFP317      0.3323
      3  N3        13.3370   46.9140  -50.1490 N.ar  317  UFP317     -0.2725
      4  C4        13.4340   48.2680  -49.7570 C.ar  317  UFP317      0.2901
      5  C5        14.4600   49.0490  -50.4650 C.ar  317  UFP317      0.2130
      6  C6        15.2370   48.4340  -51.4520 C.ar  317  UFP317      0.1164
      7  O2        13.9540   45.0330  -51.3000 O.2   317  UFP317     -0.2464
      8  O4        12.6950   48.7170  -48.8740 O.2   317  UFP317     -0.2646
      9  F5        14.6110   50.3370  -50.2330 F     317  UFP317     -0.1975
     10  C1'       15.8520   46.7480  -53.0290 C.3   317  UFP317      0.2108
     11  C2'       17.3090   46.4300  -52.8080 C.3   317  UFP317      0.0895
     12  C3'       18.0000   46.7510  -54.0890 C.3   317  UFP317      0.1859
     13  C4'       17.2840   48.1390  -54.3140 C.3   317  UFP317      0.1776
     14  O3'       19.4350   46.8460  -53.8790 O.3   317  UFP317     -0.2203
     15  O4'       15.8740   47.6980  -54.1890 O.3   317  UFP317     -0.3326
     16  C5'       17.4530   48.7920  -55.6690 C.3   317  UFP317      0.1858
     17  O5'       16.2910   48.5740  -56.5930 O.3   317  UFP317     -0.2675
     18  P         16.0490   49.5490  -57.9010 P.3   317  UFP317      0.5327
     19  O1P       15.9780   50.8710  -57.2230 O.3   317  UFP317     -0.1145
     20  O2P       17.2330   49.3810  -58.8120 O.2   317  UFP317     -0.2224
     21  O3P       14.7990   49.0620  -58.5300 O.3   317  UFP317     -0.1145
     22  HN3       12.7230   46.3270  -49.6640 H     317  UFP317      0.1735
@<TRIPOS>BOND
     1    20    18    2
     2    21    18    1
     3    18    19    1
     4    18    17    1
     5    17    16    1
     6    16    13    1
     7    13    15    1
     8    13    12    1
     9    15    10    1
    10    12    14    1
    11    12    11    1
    12    10    11    1
    13    10     1    1
    14     1     6   ar
    15     1     2   ar
    16     6     5   ar
    17     7     2    2
    18     2     3   ar
    19     5     9    1
    20     5     4   ar
    21     3     4   ar
    22     3    22    1
    23     4     8    2
