@<TRIPOS>MOLECULE
1vzd_UFP_A_1.pdb
 22 23 0 0 0
SMALL
GASTEIGER

@<TRIPOS>ATOM
      1  N1        16.0230   48.6880  -51.8860 N.ar  317  UFP317     -0.2548
      2  C2        14.8760   47.8880  -51.6020 C.ar  317  UFP317      0.3323
      3  N3        13.9210   48.4380  -50.7500 N.ar  317  UFP317     -0.2725
      4  C4        14.0300   49.6910  -50.1420 C.ar  317  UFP317      0.2901
      5  C5        15.2660   50.4570  -50.4690 C.ar  317  UFP317      0.2130
      6  C6        16.2250   49.8930  -51.3390 C.ar  317  UFP317      0.1164
      7  O2        14.8080   46.6840  -51.8340 O.2   317  UFP317     -0.2464
      8  O4        13.1430   50.0460  -49.3460 O.2   317  UFP317     -0.2646
      9  F5        15.4430   51.6840  -50.0020 F     317  UFP317     -0.1975
     10  C1'       16.9690   48.3280  -53.0060 C.3   317  UFP317      0.2108
     11  C2'       17.3770   46.9110  -53.2960 C.3   317  UFP317      0.0895
     12  C3'       16.4220   46.5500  -54.3550 C.3   317  UFP317      0.1859
     13  C4'       16.6030   47.8060  -55.2630 C.3   317  UFP317      0.1776
     14  O3'       16.7860   45.3470  -55.0130 O.3   317  UFP317     -0.2203
     15  O4'       16.7560   48.9350  -54.3390 O.3   317  UFP317     -0.3326
     16  C5'       15.4320   48.0710  -56.1030 C.3   317  UFP317      0.1858
     17  O5'       15.8570   48.1290  -57.5050 O.3   317  UFP317     -0.2675
     18  P         16.2100   49.5390  -58.2530 P.3   317  UFP317      0.5327
     19  O1P       15.8110   50.6440  -57.3240 O.3   317  UFP317     -0.1145
     20  O2P       17.6710   49.3450  -58.4660 O.3   317  UFP317     -0.1145
     21  O3P       15.4050   49.5020  -59.4710 O.2   317  UFP317     -0.2224
     22  HN3       13.1280   47.9020  -50.5690 H     317  UFP317      0.1735
@<TRIPOS>BOND
     1    21    18    2
     2    20    18    1
     3    18    17    1
     4    18    19    1
     5    17    16    1
     6    16    13    1
     7    13    12    1
     8    13    15    1
     9    14    12    1
    10    12    11    1
    11    15    10    1
    12    11    10    1
    13    10     1    1
    14     1     2   ar
    15     1     6   ar
    16     7     2    2
    17     2     3   ar
    18     6     5   ar
    19     3    22    1
    20     3     4   ar
    21     5     4   ar
    22     5     9    1
    23     4     8    2
