@<TRIPOS>MOLECULE
1vzd_CB3_A_1.pdb
 39 41 0 0 0
SMALL
GASTEIGER

@<TRIPOS>ATOM
      1  N1        20.4540   45.6710  -50.9900 N.2   318  CB3318     -0.3313
      2  C2        19.5270   44.6700  -51.0580 C.1   318  CB3318      0.2065
      3  NA2       19.8610   43.4810  -51.5720 N.pl3 318  CB3318     -0.2829
      4  N3        18.2650   44.8630  -50.5900 N.2   318  CB3318     -0.2531
      5  C4        17.9350   46.0170  -49.9310 C.1   318  CB3318      0.2178
      6  O4        16.7090   46.0880  -49.2800 O.2   318  CB3318     -0.2085
      7  C4A       18.8710   47.0830  -49.8560 C.2   318  CB3318      0.1217
      8  C5        18.5860   48.3210  -49.2270 C.2   318  CB3318      0.0121
      9  C6        19.5470   49.3790  -49.1010 C.2   318  CB3318     -0.0054
     10  C7        20.8260   49.1520  -49.6800 C.2   318  CB3318     -0.0212
     11  C8        21.1390   47.9170  -50.3290 C.3   318  CB3318      0.0865
     12  C8A       20.1720   46.8690  -50.4170 C.2   318  CB3318      0.1388
     13  C9        19.3420   50.5780  -48.1670 C.3   318  CB3318      0.1182
     14  N10       18.2750   50.4840  -47.0660 N.pl3 318  CB3318     -0.2925
     15  C11       19.3680   46.9910  -44.8450 C.ar  318  CB3318      0.0534
     16  C12       18.0590   47.0210  -45.5030 C.ar  318  CB3318      0.0058
     17  C13       17.6090   48.2100  -46.1770 C.ar  318  CB3318      0.0147
     18  C14       18.4670   49.3920  -46.2260 C.ar  318  CB3318      0.0488
     19  C15       19.7100   49.3580  -45.5450 C.ar  318  CB3318      0.0147
     20  C16       20.1550   48.1920  -44.8880 C.ar  318  CB3318      0.0058
     21  C         19.9130   45.9090  -43.9410 C.2   318  CB3318      0.2462
     22  O         19.7120   45.9100  -42.7000 O.2   318  CB3318     -0.2701
     23  N         20.7980   45.0220  -44.4930 N.am  318  CB3318     -0.2931
     24  CA        21.2890   43.7210  -43.9210 C.3   318  CB3318      0.1766
     25  CB        22.3890   43.9770  -42.9120 C.3   318  CB3318      0.0430
     26  CG        23.7020   43.1500  -43.0170 C.3   318  CB3318      0.1163
     27  CD        24.8740   43.8560  -43.7360 C.2   318  CB3318      0.3649
     28  OE1       25.9270   44.0430  -43.1180 O.co2 318  CB3318     -0.2457
     29  OE2       24.7620   44.2710  -44.8940 O.co2 318  CB3318     -0.2457
     30  CT        20.1820   42.8470  -43.2610 C.2   318  CB3318      0.3823
     31  O1        19.6070   42.0570  -44.0000 O.co2 318  CB3318     -0.2438
     32  O2        19.8620   42.9020  -42.0540 O.co2 318  CB3318     -0.2438
     33  CP1       17.1690   51.5140  -47.0520 C.3   318  CB3318      0.1684
     34  CP2       15.8530   51.0700  -46.5450 C.1   318  CB3318     -0.0728
     35  CP3       14.7930   50.7050  -46.1150 C.1   318  CB3318     -0.1168
     36 HN21       19.5490   43.4630  -52.5660 H     318  CB3318      0.1556
     37 HN22       20.9000   43.4180  -51.5680 H     318  CB3318      0.1556
     38  HN        21.1120   45.2130  -45.3980 H     318  CB3318      0.1502
     39  HP3       13.8150   50.3860  -45.9300 H     318  CB3318      0.1229
@<TRIPOS>BOND
     1    36     3    1
     2     3    37    1
     3     3     2    1
     4     2     1    2
     5     2     4    2
     6     1    12    2
     7     4     5    2
     8    12    11    1
     9    12     7    1
    10    11    10    1
    11     5     7    1
    12     5     6    2
    13     7     8    2
    14    10     9    2
    15     8     9    1
    16     9    13    1
    17    13    14    1
    18    14    33    1
    19    14    18    1
    20    33    34    1
    21    34    35    3
    22    18    17   ar
    23    18    19   ar
    24    17    16   ar
    25    35    39    1
    26    19    20   ar
    27    16    15   ar
    28    38    23    1
    29    29    27   ar
    30    20    15   ar
    31    15    21    1
    32    23    21   am
    33    23    24    1
    34    31    30   ar
    35    21    22    2
    36    24    30    1
    37    24    25    1
    38    27    28   ar
    39    27    26    1
    40    30    32   ar
    41    26    25    1
