@<TRIPOS>MOLECULE
1vze_CB3_A_1.pdb
 39 41 0 0 0
SMALL
GASTEIGER

@<TRIPOS>ATOM
      1  N1        19.4140   48.5790  -52.6390 N.2   318  CB3318     -0.3272
      2  C2        19.9060   47.3580  -53.0740 C.1   318  CB3318      0.2068
      3  NA2       20.7480   47.2910  -54.1450 N.pl3 318  CB3318     -0.2829
      4  N3        19.5610   46.2160  -52.4340 N.2   318  CB3318     -0.2531
      5  C4        18.7710   46.2180  -51.3440 C.1   318  CB3318      0.2178
      6  O4        18.4470   44.9970  -50.7500 O.2   318  CB3318     -0.2085
      7  C4A       18.3160   47.4580  -50.8380 C.2   318  CB3318      0.1220
      8  C5        17.5490   47.5260  -49.6580 C.2   318  CB3318     -0.0051
      9  C6        17.1050   48.7840  -49.1580 C.3   318  CB3318      0.0646
     10  C7        17.4170   49.9800  -49.9110 C.2   318  CB3318     -0.0177
     11  C8        18.1930   49.9320  -51.0880 C.2   318  CB3318      0.0296
     12  C8A       18.6470   48.6690  -51.5340 C.2   318  CB3318      0.1563
     13  C9        16.6690   48.9310  -47.7090 C.3   318  CB3318      0.1004
     14  N10       17.0210   47.8560  -46.7050 N.pl3 318  CB3318     -0.2959
     15  C11       20.9370   47.7220  -44.8860 C.ar  318  CB3318      0.0534
     16  C12       20.1010   46.5880  -44.9220 C.ar  318  CB3318      0.0058
     17  C13       18.8180   46.6420  -45.5170 C.ar  318  CB3318      0.0147
     18  C14       18.3030   47.8450  -46.1110 C.ar  318  CB3318      0.0486
     19  C15       19.1530   49.0030  -46.0730 C.ar  318  CB3318      0.0147
     20  C16       20.4520   48.9320  -45.4690 C.ar  318  CB3318      0.0058
     21  C         22.2120   47.6780  -44.1380 C.2   318  CB3318      0.2462
     22  O         23.3210   47.2730  -44.5600 O.2   318  CB3318     -0.2701
     23  N         22.1650   48.1650  -42.9010 N.am  318  CB3318     -0.2931
     24  CA        21.8070   47.3120  -41.7530 C.3   318  CB3318      0.1766
     25  CB        22.9280   46.2770  -41.4780 C.3   318  CB3318      0.0430
     26  CG        22.6540   45.1780  -40.3810 C.3   318  CB3318      0.1163
     27  CD        22.1780   43.7390  -40.8210 C.2   318  CB3318      0.3649
     28  OE1       22.6420   43.2660  -41.8990 O.co2 318  CB3318     -0.2457
     29  OE2       21.3620   43.1070  -40.0820 O.co2 318  CB3318     -0.2457
     30  CT        21.6750   48.2910  -40.5960 C.2   318  CB3318      0.3823
     31  O1        22.7010   48.9080  -40.2510 O.co2 318  CB3318     -0.2438
     32  O2        20.5570   48.4880  -40.1120 O.co2 318  CB3318     -0.2438
     33  CP1       15.9890   46.8380  -46.3100 C.3   318  CB3318      0.1682
     34  CP2       14.5880   47.3000  -46.4010 C.1   318  CB3318     -0.0729
     35  CP3       13.4640   47.7300  -46.3360 C.1   318  CB3318     -0.1168
     36 HN21       21.2870   48.1750  -54.2060 H     318  CB3318      0.1556
     37 HN22       20.1720   47.1960  -55.0080 H     318  CB3318      0.1556
     38  HN        22.5410   49.0460  -42.7090 H     318  CB3318      0.1502
     39  HP3       12.5020   48.1480  -46.2860 H     318  CB3318      0.1229
@<TRIPOS>BOND
     1    37     3    1
     2    36     3    1
     3     3     2    1
     4     2     1    2
     5     2     4    2
     6     1    12    2
     7     4     5    2
     8    12    11    1
     9    12     7    1
    10     5     7    1
    11     5     6    2
    12    11    10    2
    13     7     8    2
    14    10     9    1
    15     8     9    1
    16     9    13    1
    17    13    14    1
    18    14    33    1
    19    14    18    1
    20    34    35    3
    21    34    33    1
    22    35    39    1
    23    18    19   ar
    24    18    17   ar
    25    19    20   ar
    26    17    16   ar
    27    20    15   ar
    28    16    15   ar
    29    15    21    1
    30    22    21    2
    31    21    23   am
    32    23    38    1
    33    23    24    1
    34    28    27   ar
    35    24    25    1
    36    24    30    1
    37    25    26    1
    38    27    26    1
    39    27    29   ar
    40    30    31   ar
    41    30    32   ar
