@<TRIPOS>MOLECULE
1vze_UMP_A_1.pdb
 21 22 0 0 0
SMALL
GASTEIGER

@<TRIPOS>ATOM
      1  N1        14.6090   48.1590  -52.5320 N.am  317  UMP317     -0.2411
      2  C2        14.3270   47.5160  -51.3060 C.2   317  UMP317      0.3113
      3  N3        14.1250   48.4000  -50.1980 N.am  317  UMP317     -0.2394
      4  C4        13.6420   49.7420  -50.2890 C.2   317  UMP317      0.2310
      5  C5        13.6670   50.3410  -51.6470 C.3   317  UMP317      0.1071
      6  C6        13.7610   49.3610  -52.8010 C.3   317  UMP317      0.1067
      7  O2        14.2630   46.2760  -51.2290 O.2   317  UMP317     -0.2521
      8  O4        13.1890   50.3340  -49.2880 O.2   317  UMP317     -0.2746
      9  C1'       15.7040   47.6260  -53.4070 C.3   317  UMP317      0.1980
     10  C2'       15.1410   47.0590  -54.6960 C.3   317  UMP317      0.0865
     11  C3'       16.3760   46.8250  -55.5670 C.3   317  UMP317      0.1857
     12  C4'       17.1270   48.1270  -55.3300 C.3   317  UMP317      0.1774
     13  O3'       17.1520   45.7170  -55.0460 O.3   317  UMP317     -0.2203
     14  O4'       16.9370   48.3400  -53.8690 O.3   317  UMP317     -0.3347
     15  C5'       16.5070   49.3350  -56.0830 C.3   317  UMP317      0.1858
     16  O5'       15.8850   48.9140  -57.3450 O.3   317  UMP317     -0.2675
     17  P         16.0710   49.7650  -58.6490 P.3   317  UMP317      0.5327
     18  OP1       16.0680   51.1800  -58.3370 O.3   317  UMP317     -0.1145
     19  OP2       17.3670   49.4610  -59.3010 O.3   317  UMP317     -0.1145
     20  OP3       15.0170   49.4660  -59.6150 O.2   317  UMP317     -0.2224
     21  HN3       14.5180   48.1430  -49.3380 H     317  UMP317      0.1591
@<TRIPOS>BOND
     1    20    17    2
     2    19    17    1
     3    17    18    1
     4    17    16    1
     5    16    15    1
     6    15    12    1
     7    11    12    1
     8    11    13    1
     9    11    10    1
    10    12    14    1
    11    10     9    1
    12    14     9    1
    13     9     1    1
    14     6     1    1
    15     6     5    1
    16     1     2   am
    17     5     4    1
    18     2     7    2
    19     2     3   am
    20     4     3   am
    21     4     8    2
    22     3    21    1
