@<TRIPOS>MOLECULE
1vzg_FC6_A_1.pdb
 13 12 0 0 0
SMALL
GASTEIGER

@<TRIPOS>ATOM
      1  N24      -53.1960   -1.1710   92.5240 N.1   1130  FC61130     0.0000
      2  C24      -54.0490   -1.0090   93.3010 C.1   1130  FC61130     0.0000
      3 FE2       -55.4690   -0.7400   94.5910 Fe    1130  FC61130     0.0000
      4  C21      -54.0810   -0.5710   95.9350 C.1   1130  FC61130     0.0000
      5  N25      -53.2460   -0.4690   96.7420 N.1   1130  FC61130     0.0000
      6  C22      -55.7610    1.0810   94.2820 C.1   1130  FC61130     0.0000
      7  N22      -55.9410    2.2170   94.0910 N.1   1130  FC61130     0.0000
      8  C26      -55.3620   -2.6260   94.9150 C.1   1130  FC61130     0.0000
      9  N21      -55.2970   -3.7730   95.1140 N.1   1130  FC61130     0.0000
     10  C23      -56.8010   -1.0430   93.2460 C.1   1130  FC61130     0.0000
     11  N23      -57.6100   -1.2250   92.4270 N.1   1130  FC61130     0.0000
     12  C11      -56.8380   -0.5980   95.9260 C.1   1130  FC61130     0.0000
     13  N11      -57.6690   -0.5130   96.7380 N.1   1130  FC61130     0.0000
@<TRIPOS>BOND
     1    11    10    3
     2     1     2    3
     3    10     3    1
     4     2     3    1
     5     7     6    3
     6     6     3    1
     7     3     8    1
     8     3    12    1
     9     3     4    1
    10     8     9    3
    11    12    13    3
    12     4     5    3
