@<TRIPOS>MOLECULE
1vzh_FC6_A_1.pdb
 13 12 0 0 0
SMALL
GASTEIGER

@<TRIPOS>ATOM
      1  N24      -53.2810   -1.1560   92.5790 N.1   1130  FC61130     0.0000
      2  C24      -54.1340   -0.9990   93.3570 C.1   1130  FC61130     0.0000
      3 FE2       -55.5540   -0.7390   94.6490 Fe    1130  FC61130     0.0000
      4  C21      -54.1680   -0.6040   95.9980 C.1   1130  FC61130     0.0000
      5  N25      -53.3340   -0.5220   96.8090 N.1   1130  FC61130     0.0000
      6  C22      -55.8300    1.0890   94.3700 C.1   1130  FC61130     0.0000
      7  N22      -56.0010    2.2290   94.1980 N.1   1130  FC61130     0.0000
      8  C26      -55.4620   -2.6310   94.9410 C.1   1130  FC61130     0.0000
      9  N21      -55.4060   -3.7820   95.1200 N.1   1130  FC61130     0.0000
     10  C23      -56.8860   -1.0090   93.2970 C.1   1130  FC61130     0.0000
     11  N23      -57.6950   -1.1720   92.4730 N.1   1130  FC61130     0.0000
     12  C11      -56.9250   -0.6080   95.9830 C.1   1130  FC61130     0.0000
     13  N11      -57.7590   -0.5300   96.7940 N.1   1130  FC61130     0.0000
@<TRIPOS>BOND
     1    11    10    3
     2     1     2    3
     3    10     3    1
     4     2     3    1
     5     7     6    3
     6     6     3    1
     7     3     8    1
     8     3    12    1
     9     3     4    1
    10     8     9    3
    11    12    13    3
    12     4     5    3
