@<TRIPOS>MOLECULE
1vzq_SHY_H_1.pdb
 33 38 0 0 0
SMALL
GASTEIGER

@<TRIPOS>ATOM
      1  N1        11.2730   -9.8910   24.4230 N.pl3 1256  SHY1256     0.2047
      2  C3        11.5310  -10.9910   23.6610 C.2   1256  SHY1256     0.4766
      3  N2        10.7380  -12.0870   23.8820 N.pl3 1256  SHY1256     0.2047
      4  C4        12.6280  -11.0420   22.7280 C.ar  1256  SHY1256     0.0975
      5  C9        13.3690   -9.8970   22.4750 C.ar  1256  SHY1256     0.0077
      6  C8        14.4520   -9.9450   21.5940 C.ar  1256  SHY1256    -0.0027
      7  C7        14.8080  -11.1520   20.9470 C.ar  1256  SHY1256    -0.0073
      8  C6        14.0210  -12.2790   21.1820 C.ar  1256  SHY1256    -0.0027
      9  C5        12.9520  -12.2380   22.0500 C.ar  1256  SHY1256     0.0077
     10  C10       16.0330  -11.1260   20.0470 C.3   1256  SHY1256     0.0893
     11  N11       15.9840  -12.2420   19.0630 N.3   1256  SHY1256    -0.2685
     12  C12       15.1070  -11.8710   17.9050 C.3   1256  SHY1256     0.1056
     13  C13       15.9910  -11.7140   16.6510 C.3   1256  SHY1256     0.1692
     14  C14       17.3470  -11.3690   17.2850 C.3   1256  SHY1256     0.0508
     15  C15       17.3700  -12.2570   18.5040 C.3   1256  SHY1256     0.0695
     16  C16       18.3570  -11.6980   19.5540 C.3   1256  SHY1256     0.1020
     17  C17       19.1540  -12.7910   20.1560 C.2   1256  SHY1256     0.2330
     18  N19       18.5860  -13.2780   21.3270 N.am  1256  SHY1256    -0.2255
     19  C20       17.4670  -12.4790   21.6720 C.2   1256  SHY1256     0.2333
     20  O21       16.7470  -12.7340   22.6270 O.2   1256  SHY1256    -0.2744
     21  C22       17.3990  -11.2870   20.7360 C.3   1256  SHY1256     0.1058
     22  C23       18.9930  -14.4320   22.1400 C.3   1256  SHY1256     0.1275
     23  C24       20.0690  -14.1490   23.1270 C.ar  1256  SHY1256     0.0013
     24  C32       19.6810  -13.8530   24.4260 C.ar  1256  SHY1256     0.0007
     25  C31       20.5780  -13.5150   25.4190 C.ar  1256  SHY1256     0.0399
     26  C30       21.9210  -13.4690   25.0290 C.ar  1256  SHY1256     0.1764
     27  O29       22.9690  -13.1850   25.8140 O.3   1256  SHY1256    -0.4346
     28  C28       24.1320  -13.2920   24.9510 C.3   1256  SHY1256     0.4294
     29  O20       16.1570  -12.9510   15.9450 O.3   1256  SHY1256    -0.2216
     30  O27       23.6860  -13.7380   23.6270 O.3   1256  SHY1256    -0.4346
     31  C26       22.3270  -13.7490   23.7400 C.ar  1256  SHY1256     0.1762
     32  C25       21.4170  -14.1010   22.7560 C.ar  1256  SHY1256     0.0376
     33  O24       20.1560  -13.3290   19.7070 O.2   1256  SHY1256    -0.2744
@<TRIPOS>BOND
     1    29    13    1
     2    13    14    1
     3    13    12    1
     4    14    15    1
     5    12    11    1
     6    15    11    1
     7    15    16    1
     8    11    10    1
     9    16    17    1
    10    16    21    1
    11    33    17    2
    12    10    21    1
    13    10     7    1
    14    17    18   am
    15    21    19    1
    16     7     8   ar
    17     7     6   ar
    18     8     9   ar
    19    18    19   am
    20    18    22    1
    21     6     5   ar
    22    19    20    2
    23     9     4   ar
    24    22    23    1
    25     5     4   ar
    26     4     2    1
    27    32    23   ar
    28    32    31   ar
    29    23    24   ar
    30    30    31    1
    31    30    28    1
    32     2     3    2
    33     2     1    1
    34    31    26   ar
    35    24    25   ar
    36    28    27    1
    37    26    25   ar
    38    26    27    1
