@<TRIPOS>MOLECULE
1vzt_UDP_A_1.pdb
 25 26 0 0 0
SMALL
GASTEIGER

@<TRIPOS>ATOM
      1  N1         2.8260   12.2630   43.2630 N.am  1370  UDP1370    -0.1766
      2  C2         2.8860   13.2390   42.2600 C.1   1370  UDP1370     0.2845
      3  N3         2.5070   14.5180   42.6350 N.2   1370  UDP1370    -0.2452
      4  C4         2.0720   14.9270   43.9190 C.1   1370  UDP1370     0.2182
      5  C5         2.0310   13.8830   44.9160 C.2   1370  UDP1370     0.1242
      6  C6         2.3960   12.6270   44.5670 C.2   1370  UDP1370     0.0929
      7  O2         3.2540   12.9890   41.1000 O.2   1370  UDP1370    -0.1918
      8  O4         1.7760   16.1130   44.0730 O.2   1370  UDP1370    -0.2085
      9  C1'        3.2180   10.8480   42.9270 C.3   1370  UDP1370     0.2401
     10  C2'        4.7190   10.6120   42.7090 C.3   1370  UDP1370     0.2319
     11  O2'        4.9330    9.5900   41.7410 O.3   1370  UDP1370    -0.2157
     12  C3'        5.1740   10.2450   44.1260 C.3   1370  UDP1370     0.2158
     13  C4'        4.0240    9.3510   44.6190 C.3   1370  UDP1370     0.1799
     14  O4'        2.8450    9.9510   44.0000 O.3   1370  UDP1370    -0.3320
     15  O3'        6.4160    9.5280   44.0250 O.3   1370  UDP1370    -0.2175
     16  C5'        3.7900    9.3420   46.1700 C.3   1370  UDP1370     0.1813
     17  O5'        4.2410   10.5890   46.6720 O.3   1370  UDP1370    -0.3111
     18  PA         5.5200   11.0380   47.4620 P.3   1370  UDP1370     0.2231
     19  O1A        6.6880   10.4940   46.7430 O.2   1370  UDP1370    -0.5169
     20  O2A        5.4220   12.5390   47.6150 O.3   1370  UDP1370    -0.4370
     21  O3A        5.3630   10.2740   48.8460 O.3   1370  UDP1370    -0.2261
     22  PB         6.4850   10.0860   49.9900 P.3   1370  UDP1370     0.5373
     23  O1B        7.4050    8.8870   49.4470 O.2   1370  UDP1370    -0.2221
     24  O2B        5.7110    9.6980   51.1810 O.3   1370  UDP1370    -0.1143
     25  O3B        7.4290   11.2310   50.0560 O.3   1370  UDP1370    -0.1143
@<TRIPOS>BOND
     1     7     2    2
     2    11    10    1
     3     2     3    2
     4     2     1   am
     5     3     4    2
     6    10     9    1
     7    10    12    1
     8     9     1    1
     9     9    14    1
    10     1     6    1
    11     4     8    2
    12     4     5    1
    13    14    13    1
    14    15    12    1
    15    12    13    1
    16     6     5    2
    17    13    16    1
    18    16    17    1
    19    17    18    1
    20    19    18    2
    21    18    20    1
    22    18    21    1
    23    21    22    1
    24    23    22    2
    25    22    25    1
    26    22    24    1
