@<TRIPOS>MOLECULE
1vzu_UDP_A_1.pdb
 25 26 0 0 0
SMALL
GASTEIGER

@<TRIPOS>ATOM
      1  N1         2.8450   12.0680   42.9340 N.am  1371  UDP1371    -0.1996
      2  C2         2.8900   12.9980   41.9120 C.1   1371  UDP1371     0.2802
      3  N3         2.5840   14.3010   42.2610 N.2   1371  UDP1371    -0.2497
      4  C4         1.9090   14.6400   43.4810 C.1   1371  UDP1371     0.1941
      5  C5         2.1910   13.7080   44.5550 C.3   1371  UDP1371     0.1579
      6  C6         2.4750   12.4040   44.2540 C.3   1371  UDP1371     0.1249
      7  O2         3.3000   12.7330   40.7820 O.2   1371  UDP1371    -0.1922
      8  O4         1.8420   15.8780   43.6550 O.2   1371  UDP1371    -0.2133
      9  C1'        3.1540   10.6380   42.5560 C.3   1371  UDP1371     0.2361
     10  C2'        4.6670   10.4540   42.3040 C.3   1371  UDP1371     0.2316
     11  O2'        4.9020    9.3290   41.4680 O.3   1371  UDP1371    -0.2157
     12  C3'        5.1500   10.2140   43.7380 C.3   1371  UDP1371     0.2158
     13  C4'        4.0750    9.1980   44.2230 C.3   1371  UDP1371     0.1799
     14  O4'        2.8510    9.8120   43.6960 O.3   1371  UDP1371    -0.3322
     15  O3'        6.4380    9.5810   43.6510 O.3   1371  UDP1371    -0.2175
     16  C5'        3.8860    9.0850   45.7630 C.3   1371  UDP1371     0.1813
     17  O5'        4.0610   10.3700   46.3690 O.3   1371  UDP1371    -0.3111
     18  PA         5.4120   10.7850   47.0760 P.3   1371  UDP1371     0.2231
     19  O1A        6.5460   10.1910   46.3400 O.2   1371  UDP1371    -0.5169
     20  O2A        5.4180   12.2780   47.1870 O.3   1371  UDP1371    -0.4370
     21  O3A        5.2120   10.1170   48.5210 O.3   1371  UDP1371    -0.2261
     22  PB         6.4240    9.9240   49.5540 P.3   1371  UDP1371     0.5373
     23  O1B        7.2940    8.7120   49.0150 O.2   1371  UDP1371    -0.2221
     24  O2B        5.7590    9.5400   50.8370 O.3   1371  UDP1371    -0.1143
     25  O3B        7.2960   11.1410   49.5280 O.3   1371  UDP1371    -0.1143
@<TRIPOS>BOND
     1     7     2    2
     2    11    10    1
     3     2     3    2
     4     2     1   am
     5     3     4    2
     6    10     9    1
     7    10    12    1
     8     9     1    1
     9     9    14    1
    10     1     6    1
    11     4     8    2
    12     4     5    1
    13    15    12    1
    14    14    13    1
    15    12    13    1
    16    13    16    1
    17     6     5    1
    18    16    17    1
    19    19    18    2
    20    17    18    1
    21    18    20    1
    22    18    21    1
    23    21    22    1
    24    23    22    2
    25    25    22    1
    26    22    24    1
