@<TRIPOS>MOLECULE
1vzu_LAT_A_1.pdb
 23 24 0 0 0
SMALL
GASTEIGER

@<TRIPOS>ATOM
      1  C1         8.4970    7.7470   55.3900 C.3   1370  LAT1370     0.2695
      2  C2         8.5800    7.7950   53.8570 C.3   1370  LAT1370     0.2406
      3  C3         7.1860    7.6660   53.2310 C.3   1370  LAT1370     0.2198
      4  C4         6.5740    6.3140   53.6530 C.3   1370  LAT1370     0.2144
      5  C5         6.3800    6.5010   55.2120 C.3   1370  LAT1370     0.1835
      6  C6         5.6850    5.3190   55.8140 C.3   1370  LAT1370     0.2142
      7  O1         9.8190    7.6020   55.8510 O.3   1370  LAT1370    -0.3257
      8  O2         9.1330    9.0220   53.3800 O.3   1370  LAT1370    -0.2149
      9  O3         7.3160    7.8460   51.8520 O.3   1370  LAT1370    -0.2174
     10  O4         7.4460    5.1880   53.4480 O.3   1370  LAT1370    -0.2176
     11  O5         7.6780    6.6510   55.8470 O.3   1370  LAT1370    -0.3256
     12  O6         5.1870    5.7020   57.0770 O.3   1370  LAT1370    -0.2176
     13  C1'       11.8650    8.4580   59.4880 C.3   1370  LAT1370     0.3023
     14  C2'       10.6240    7.5460   59.5450 C.3   1370  LAT1370     0.2433
     15  C3'       10.3010    6.9770   58.1580 C.3   1370  LAT1370     0.2168
     16  C4'       10.1770    8.1250   57.1430 C.3   1370  LAT1370     0.1804
     17  C5'       11.5430    8.8850   57.1120 C.3   1370  LAT1370     0.1804
     18  C6'       11.5750   10.0710   56.1520 C.3   1370  LAT1370     0.2141
     19  O1'       12.0450    9.0860   60.7130 O.3   1370  LAT1370    -0.1869
     20  O2'       10.9340    6.4810   60.4470 O.3   1370  LAT1370    -0.2148
     21  O3'        9.0690    6.2660   58.2090 O.3   1370  LAT1370    -0.2175
     22  O5'       11.7520    9.4790   58.4540 O.3   1370  LAT1370    -0.3237
     23  O6'       12.6270   10.9640   56.5170 O.3   1370  LAT1370    -0.2176
@<TRIPOS>BOND
     1     9     3    1
     2     3     4    1
     3     3     2    1
     4     8     2    1
     5    10     4    1
     6     4     5    1
     7     2     1    1
     8     5     6    1
     9     5    11    1
    10     1    11    1
    11     1     7    1
    12     6    12    1
    13     7    16    1
    14    18    23    1
    15    18    17    1
    16    17    16    1
    17    17    22    1
    18    16    15    1
    19    15    21    1
    20    15    14    1
    21    22    13    1
    22    13    14    1
    23    13    19    1
    24    14    20    1
