@<TRIPOS>MOLECULE
1vzx_GAL_A_1.pdb
 11 11 0 0 0
SMALL
GASTEIGER

@<TRIPOS>ATOM
      1  C1         8.6190    7.9500   55.5640 C.3   1369  GAL1369     0.1777
      2  C2         8.4450    7.8760   54.0600 C.3   1369  GAL1369     0.2141
      3  C3         6.9410    7.8430   53.7400 C.3   1369  GAL1369     0.2173
      4  C4         6.3450    6.6120   54.4570 C.3   1369  GAL1369     0.2142
      5  C5         6.5820    6.7390   55.9780 C.3   1369  GAL1369     0.1810
      6  C6         6.0340    5.5460   56.7400 C.3   1369  GAL1369     0.2141
      7  O2         9.0400    8.9980   53.4060 O.3   1369  GAL1369    -0.2176
      8  O3         6.7620    7.7750   52.3370 O.3   1369  GAL1369    -0.2175
      9  O4         6.9830    5.4120   54.0150 O.3   1369  GAL1369    -0.2176
     10  O5         8.0190    6.8320   56.2440 O.3   1369  GAL1369    -0.3481
     11  O6         6.3320    5.6900   58.1180 O.3   1369  GAL1369    -0.2176
@<TRIPOS>BOND
     1     8     3    1
     2     7     2    1
     3     3     2    1
     4     3     4    1
     5     9     4    1
     6     2     1    1
     7     4     5    1
     8     1    10    1
     9     5    10    1
    10     5     6    1
    11     6    11    1
