@<TRIPOS>MOLECULE
1vzx_UDP_A_1.pdb
 25 26 0 0 0
SMALL
GASTEIGER

@<TRIPOS>ATOM
      1  N1         2.9000   12.3880   43.2180 N.am  1372  UDP1372    -0.1766
      2  C2         2.9640   13.3680   42.2130 C.1   1372  UDP1372     0.2845
      3  N3         2.5890   14.6490   42.5860 N.2   1372  UDP1372    -0.2452
      4  C4         2.1480   15.0550   43.8660 C.1   1372  UDP1372     0.2182
      5  C5         2.1000   14.0100   44.8630 C.2   1372  UDP1372     0.1242
      6  C6         2.4630   12.7530   44.5180 C.2   1372  UDP1372     0.0929
      7  O2         3.3340   13.1220   41.0600 O.2   1372  UDP1372    -0.1918
      8  O4         1.8550   16.2370   44.0220 O.2   1372  UDP1372    -0.2085
      9  C1'        3.2910   10.9700   42.8900 C.3   1372  UDP1372     0.2401
     10  C2'        4.7960   10.7410   42.6590 C.3   1372  UDP1372     0.2319
     11  O2'        5.0120    9.6900   41.7380 O.3   1372  UDP1372    -0.2157
     12  C3'        5.2770   10.4270   44.0750 C.3   1372  UDP1372     0.2158
     13  C4'        4.1570    9.5050   44.5840 C.3   1372  UDP1372     0.1799
     14  O4'        2.9470   10.0850   43.9850 O.3   1372  UDP1372    -0.3320
     15  O3'        6.5380    9.7440   43.9730 O.3   1372  UDP1372    -0.2175
     16  C5'        3.9670    9.4900   46.1340 C.3   1372  UDP1372     0.1813
     17  O5'        4.3640   10.7570   46.6350 O.3   1372  UDP1372    -0.3111
     18  PA         5.6260   11.2550   47.4280 P.3   1372  UDP1372     0.2231
     19  O1A        6.8190   10.7780   46.6960 O.2   1372  UDP1372    -0.5169
     20  O2A        5.4720   12.7370   47.6110 O.3   1372  UDP1372    -0.4370
     21  O3A        5.4530   10.4380   48.7710 O.3   1372  UDP1372    -0.2261
     22  PB         6.5070   10.2360   49.9540 P.3   1372  UDP1372     0.5373
     23  O1B        7.4640    9.0620   49.4160 O.2   1372  UDP1372    -0.2221
     24  O2B        5.6560    9.8170   51.0840 O.3   1372  UDP1372    -0.1143
     25  O3B        7.4310   11.3870   50.0960 O.3   1372  UDP1372    -0.1143
@<TRIPOS>BOND
     1     7     2    2
     2    11    10    1
     3     2     3    2
     4     2     1   am
     5     3     4    2
     6    10     9    1
     7    10    12    1
     8     9     1    1
     9     9    14    1
    10     1     6    1
    11     4     8    2
    12     4     5    1
    13    15    12    1
    14    14    13    1
    15    12    13    1
    16     6     5    2
    17    13    16    1
    18    16    17    1
    19    17    18    1
    20    19    18    2
    21    18    20    1
    22    18    21    1
    23    21    22    1
    24    23    22    2
    25    22    25    1
    26    22    24    1
