@<TRIPOS>MOLECULE
1vzx_NAG_A_1.pdb
 15 15 0 0 0
SMALL
GASTEIGER

@<TRIPOS>ATOM
      1  C1        12.3580    9.0170   59.2050 C.3   1370  NAG1370     0.2917
      2  C2        11.1900    8.0390   59.5100 C.3   1370  NAG1370     0.1871
      3  C3        10.7690    7.3910   58.1720 C.3   1370  NAG1370     0.2095
      4  C4        10.3640    8.4940   57.1780 C.3   1370  NAG1370     0.2136
      5  C5        11.5270    9.4720   56.9400 C.3   1370  NAG1370     0.1835
      6  C6        11.1500   10.6560   56.0530 C.3   1370  NAG1370     0.2142
      7  C7        11.4390    7.0390   61.7930 C.2   1370  NAG1370     0.2421
      8  C8        12.1720    6.0160   62.6750 C.3   1370  NAG1370     0.0964
      9  N2        11.8010    7.1010   60.5020 N.am  1370  NAG1370    -0.1991
     10  O1        12.7570    9.6550   60.3730 O.3   1370  NAG1370    -0.1879
     11  O3         9.7140    6.4890   58.4410 O.3   1370  NAG1370    -0.2183
     12  O4         9.9900    7.9420   55.8840 O.3   1370  NAG1370    -0.2176
     13  O5        11.9530   10.0180   58.2240 O.3   1370  NAG1370    -0.3242
     14  O6        11.6670   10.4840   54.7410 O.3   1370  NAG1370    -0.2176
     15  O7        10.5700    7.7530   62.2720 O.2   1370  NAG1370    -0.2733
@<TRIPOS>BOND
     1    14     6    1
     2    12     4    1
     3     6     5    1
     4     5     4    1
     5     5    13    1
     6     4     3    1
     7     3    11    1
     8     3     2    1
     9    13     1    1
    10     1     2    1
    11     1    10    1
    12     2     9    1
    13     9     7   am
    14     7    15    2
    15     7     8    1
