@<TRIPOS>MOLECULE
1w03_HCG_A_1.pdb
 21 20 0 0 0
SMALL
GASTEIGER

@<TRIPOS>ATOM
      1  C1        17.1260   35.7480    5.6410 C.3   1332  HCG1332     0.4429
      2  C2        15.8080   36.3200    6.1830 C.3   1332  HCG1332     0.1835
      3  C3        15.2100   37.5220    5.4600 C.3   1332  HCG1332     0.0276
      4  C4        13.7750   37.7890    5.9630 C.3   1332  HCG1332     0.0114
      5  C7        13.2420   39.0260    5.2380 C.3   1332  HCG1332     0.0869
      6  C10       11.8660   39.4590    5.6750 C.2   1332  HCG1332     0.2418
      7  N11       10.8720   39.4300    4.8170 N.am  1332  HCG1332    -0.1968
      8  C12        9.6170   40.0480    5.3100 C.3   1332  HCG1332     0.1843
      9  C13        8.5010   39.0460    5.6620 C.2   1332  HCG1332     0.2627
     10  N14       15.9820   36.5190    7.6400 N.3   1332  HCG1332    -0.1246
     11  O15       11.6880   39.8420    6.8190 O.2   1332  HCG1332    -0.2733
     12  C16        9.1020   40.6930    3.9650 C.3   1332  HCG1332     0.0997
     13  S17        9.3390   39.6940    2.3670 S.3   1332  HCG1332    -0.0797
     14  O18        8.5590   38.1610    4.7780 O.2   1332  HCG1332    -0.2714
     15  O19       18.2340   36.1940    6.4040 O.2   1332  HCG1332    -0.2654
     16  O20       17.4180   35.9890    4.3100 O.2   1332  HCG1332    -0.2654
     17  N29        7.3940   39.6390    6.4820 N.am  1332  HCG1332    -0.1917
     18  C30        6.2030   38.9300    6.4320 C.3   1332  HCG1332     0.2285
     19  C31        5.4810   38.2600    5.5410 C.2   1332  HCG1332     0.3865
     20  O42        5.9950   38.3900    4.5270 O.co2 1332  HCG1332    -0.2437
     21  O43        4.3970   37.6120    5.7040 O.co2 1332  HCG1332    -0.2437
@<TRIPOS>BOND
     1    13    12    1
     2    12     8    1
     3    16     1    1
     4    20    19   ar
     5    14     9    2
     6     7     8    1
     7     7     6   am
     8     5     6    1
     9     5     4    1
    10     8     9    1
    11     3     4    1
    12     3     2    1
    13    19    21   ar
    14    19    18    1
    15     1     2    1
    16     1    15    1
    17     9    17   am
    18     6    11    2
    19     2    10    1
    20    18    17    1
