@<TRIPOS>MOLECULE
1w04_HCG_A_1.pdb
 21 20 0 0 0
SMALL
GASTEIGER

@<TRIPOS>ATOM
      1  C1        17.2030   35.9090    5.6940 C.2   1332  HCG1332     0.3819
      2  C2        15.8340   36.2010    6.1920 C.3   1332  HCG1332     0.1943
      3  C3        15.2350   37.4110    5.5060 C.3   1332  HCG1332     0.0311
      4  C4        13.8000   37.7590    5.9520 C.3   1332  HCG1332     0.0117
      5  C7        13.2990   39.0220    5.2250 C.3   1332  HCG1332     0.0869
      6  C10       11.9140   39.3240    5.6260 C.2   1332  HCG1332     0.2418
      7  N11       10.9520   39.0000    4.7680 N.am  1332  HCG1332    -0.1968
      8  C12        9.5370   39.2370    4.9950 C.3   1332  HCG1332     0.1846
      9  C13        8.7640   37.9200    4.8000 C.2   1332  HCG1332     0.2666
     10  N14       15.8080   36.3620    7.6630 N.3   1332  HCG1332    -0.1208
     11  O15       11.5740   39.8000    6.7020 O.2   1332  HCG1332    -0.2733
     12  C16        9.1120   40.2210    3.8700 C.3   1332  HCG1332     0.0997
     13  S17        9.3970   39.5900    2.1510 S.3   1332  HCG1332    -0.0797
     14  O18        9.3030   36.9030    4.4740 O.2   1332  HCG1332    -0.2711
     15  O19       18.1820   36.1130    6.5320 O.co2 1332  HCG1332    -0.2441
     16  O20       17.4540   35.7640    4.4190 O.co2 1332  HCG1332    -0.2441
     17  N29        7.5170   37.9060    4.9710 N.am  1332  HCG1332    -0.1695
     18  C30        6.6620   36.8170    4.8390 C.2   1332  HCG1332     0.1746
     19  C31        5.4380   36.8480    5.4060 C.2   1332  HCG1332     0.4043
     20  O42        4.5150   36.0620    5.2470 O.co2 1332  HCG1332    -0.2390
     21  O43        5.2490   37.7580    6.1260 O.co2 1332  HCG1332    -0.2390
@<TRIPOS>BOND
     1    13    12    1
     2    12     8    1
     3    16     1   ar
     4    14     9    2
     5     7     8    1
     6     7     6   am
     7     9    17    1
     8     9     8    1
     9    18    17    2
    10    18    19    1
    11     5     6    1
    12     5     4    1
    13    20    19   ar
    14    19    21   ar
    15     3     4    1
    16     3     2    1
    17     6    11    2
    18     1     2    1
    19     1    15   ar
    20     2    10    1
