@<TRIPOS>MOLECULE
1w05_W05_A_1.pdb
 22 21 0 0 0
SMALL
GASTEIGER

@<TRIPOS>ATOM
      1  C1        44.6480   18.2960   15.2880 C.2   1332  W051332     0.3819
      2  C2        44.3320   17.4850   16.5770 C.3   1332  W051332     0.1943
      3  C3        44.5460   18.4510   17.7530 C.3   1332  W051332     0.0311
      4  C4        44.3590   17.7550   19.0950 C.3   1332  W051332     0.0117
      5  C7        44.5560   18.6270   20.3420 C.3   1332  W051332     0.0869
      6  C10       44.2070   17.8870   21.6780 C.2   1332  W051332     0.2418
      7  N11       43.2260   18.3870   22.3780 N.am  1332  W051332    -0.1968
      8  C12       42.8150   18.0390   23.7050 C.3   1332  W051332     0.1843
      9  C13       41.5660   17.1870   23.7600 C.2   1332  W051332     0.2626
     10  N14       45.1570   16.2640   16.6520 N.3   1332  W051332    -0.1208
     11  O15       44.8290   16.9030   22.0350 O.2   1332  W051332    -0.2733
     12  C16       42.7010   19.2900   24.5050 C.3   1332  W051332     0.0997
     13  S17       41.6810   20.6420   23.7860 S.3   1332  W051332    -0.0797
     14  O18       41.7260   15.9290   23.8960 O.2   1332  W051332    -0.2714
     15  O19       45.5710   17.9020   14.5260 O.co2 1332  W051332    -0.2441
     16  O20       43.9530   19.3220   15.0800 O.co2 1332  W051332    -0.2441
     17  N29       40.4020   17.8360   23.7210 N.am  1332  W051332    -0.1941
     18  C30       39.0680   17.1970   24.0660 C.3   1332  W051332     0.1979
     19  C31       39.0120   16.4950   25.4660 C.2   1332  W051332     0.3842
     20  C32       37.9040   18.2460   23.9290 C.3   1332  W051332     0.0356
     21  O42       39.9250   16.8810   26.2560 O.co2 1332  W051332    -0.2437
     22  O43       38.1080   15.6000   25.6840 O.co2 1332  W051332    -0.2437
@<TRIPOS>BOND
     1    15     1   ar
     2    16     1   ar
     3     1     2    1
     4     2    10    1
     5     2     3    1
     6     3     4    1
     7     4     5    1
     8     5     6    1
     9     6    11    2
    10     6     7   am
    11     7     8    1
    12     8     9    1
    13     8    12    1
    14    17     9   am
    15    17    18    1
    16     9    14    2
    17    13    12    1
    18    20    18    1
    19    18    19    1
    20    19    22   ar
    21    19    21   ar
