@<TRIPOS>MOLECULE
1w06_W05_A_1.pdb
 22 21 0 0 0
SMALL
GASTEIGER

@<TRIPOS>ATOM
      1  C1        17.4010   36.4630    5.7100 C.2   1332  W051332     0.3819
      2  C2        16.0000   36.6550    6.2250 C.3   1332  W051332     0.1943
      3  C3        15.3860   37.9140    5.5980 C.3   1332  W051332     0.0311
      4  C4        13.8840   38.1280    5.9020 C.3   1332  W051332     0.0117
      5  C7        13.4020   39.4400    5.2900 C.3   1332  W051332     0.0869
      6  C10       11.9820   39.7350    5.6820 C.2   1332  W051332     0.2418
      7  N11       11.0670   39.4020    4.7640 N.am  1332  W051332    -0.1968
      8  C12        9.6470   39.5670    4.9240 C.3   1332  W051332     0.1843
      9  C13        8.9330   38.2490    4.8000 C.2   1332  W051332     0.2626
     10  N14       15.9140   36.7880    7.7100 N.3   1332  W051332    -0.1208
     11  O15       11.6840   40.2240    6.7890 O.2   1332  W051332    -0.2733
     12  C16        9.2300   40.6000    3.8880 C.3   1332  W051332     0.0997
     13  S17        9.5530   39.9700    2.2050 S.3   1332  W051332    -0.0797
     14  O18        9.6200   37.2420    4.9340 O.2   1332  W051332    -0.2714
     15  O19       18.3800   36.5860    6.4590 O.co2 1332  W051332    -0.2441
     16  O20       17.6100   36.1710    4.5340 O.co2 1332  W051332    -0.2441
     17  N29        7.6150   38.2360    4.5970 N.am  1332  W051332    -0.1941
     18  C30        6.8220   37.0200    4.4420 C.3   1332  W051332     0.1979
     19  C31        5.5690   37.1280    5.2500 C.2   1332  W051332     0.3842
     20  C32        6.4370   36.7290    2.9950 C.3   1332  W051332     0.0356
     21  O42        4.6100   36.3920    5.0080 O.co2 1332  W051332    -0.2437
     22  O43        5.5220   37.9650    6.1650 O.co2 1332  W051332    -0.2437
@<TRIPOS>BOND
     1    13    12    1
     2    20    18    1
     3    12     8    1
     4    18    17    1
     5    18    19    1
     6    16     1   ar
     7    17     9   am
     8     7     8    1
     9     7     6   am
    10     9     8    1
    11     9    14    2
    12    21    19   ar
    13    19    22   ar
    14     5     6    1
    15     5     4    1
    16     3     4    1
    17     3     2    1
    18     6    11    2
    19     1     2    1
    20     1    15   ar
    21     2    10    1
