@<TRIPOS>MOLECULE
1w0c_TAQ_A_1.pdb
 13 14 0 0 0
SMALL
GASTEIGER

@<TRIPOS>ATOM
      1  C6        -5.9530  -12.6990   29.8280 C.2   301  TAQ301      0.0858
      2  N4        -6.7340  -11.7450   30.3600 N.pl3 301  TAQ301     -0.1284
      3  C1        -6.5170  -13.7380   29.0900 C.2   301  TAQ301      0.0201
      4  C2        -5.7050  -14.7350   28.5430 C.2   301  TAQ301      0.0307
      5  C3        -4.3240  -14.6890   28.7390 C.2   301  TAQ301      0.1346
      6  N3        -3.5400  -15.6400   28.2310 N.2   301  TAQ301     -0.3295
      7  C8        -2.2050  -15.6050   28.4040 C.1   301  TAQ301      0.2422
      8  N2        -1.4440  -16.5560   27.8780 N.pl3 301  TAQ301     -0.0232
      9  N1        -1.6130  -14.6200   29.0940 N.2   301  TAQ301     -0.3112
     10  C7        -2.3580  -13.6530   29.6460 C.2   301  TAQ301      0.2205
     11  C4        -3.7500  -13.6590   29.4740 C.3   301  TAQ301      0.1473
     12  C5        -4.5680  -12.6680   30.0090 C.2   301  TAQ301      0.0072
     13  NAA       -1.7280  -12.7020   30.3300 N.pl3 301  TAQ301     -0.0962
@<TRIPOS>BOND
     1     8     7    1
     2     6     7    2
     3     6     5    2
     4     7     9    2
     5     4     5    1
     6     4     3    2
     7     5    11    1
     8     3     1    1
     9     9    10    2
    10    11    10    1
    11    11    12    1
    12    10    13    1
    13     1    12    2
    14     1     2    1
