@<TRIPOS>MOLECULE
1w0c_NAP_A_1.pdb
 48 52 0 0 0
SMALL
GASTEIGER

@<TRIPOS>ATOM
      1  PA        -4.0790  -17.4000   24.8820 P.3   300  NAP300      0.2189
      2  O1A       -4.2130  -17.5700   26.3380 O.3   300  NAP300     -0.4371
      3  O2A       -5.3790  -17.2450   24.2190 O.2   300  NAP300     -0.5170
      4  O5B       -3.2860  -18.7080   24.3910 O.3   300  NAP300     -0.3112
      5  C5B       -2.1340  -18.6310   23.5770 C.3   300  NAP300      0.1813
      6  C4B       -1.8200  -19.9820   22.9550 C.3   300  NAP300      0.1820
      7  O4B       -0.7230  -20.5410   23.6220 O.3   300  NAP300     -0.3136
      8  C3B       -2.9360  -21.0060   23.1190 C.3   300  NAP300      0.2157
      9  O3B       -3.8630  -20.9530   22.0540 O.3   300  NAP300     -0.2175
     10  C2B       -2.2040  -22.3290   23.2230 C.3   300  NAP300      0.2314
     11  O2B       -2.2710  -23.0960   22.0500 O.3   300  NAP300     -0.2630
     12  C1B       -0.7550  -21.9290   23.4000 C.3   300  NAP300      0.3158
     13  N9A       -0.1840  -22.6710   24.5310 N.pl3 300  NAP300     -0.1439
     14  C8A       -0.4610  -22.5270   25.8650 C.3   300  NAP300      0.3377
     15  N7A        0.2850  -23.4250   26.5480 N.2   300  NAP300     -0.2095
     16  C5A        1.0140  -24.1270   25.6610 C.2   300  NAP300      0.2526
     17  C6A        1.9320  -25.1540   25.8100 C.2   300  NAP300      0.4393
     18  N6A        2.2650  -25.5850   27.0310 N.pl3 300  NAP300      0.2180
     19  N1A        2.5280  -25.6960   24.6940 N.2   300  NAP300      0.0021
     20  C2A        2.2170  -25.2110   23.4420 C.3   300  NAP300      0.5254
     21  N3A        1.3110  -24.1960   23.3160 N.2   300  NAP300     -0.0055
     22  C4A        0.7280  -23.6650   24.4020 C.2   300  NAP300      0.3518
     23  O3        -3.1040  -16.1550   24.5340 O.3   300  NAP300     -0.2703
     24  PN        -3.5890  -14.6630   24.1900 P.3   300  NAP300      0.2189
     25  O1N       -4.5710  -14.2350   25.2000 O.3   300  NAP300     -0.4371
     26  O2N       -3.9930  -14.7020   22.7690 O.2   300  NAP300     -0.5170
     27  O5D       -2.2470  -13.8110   24.3250 O.3   300  NAP300     -0.3112
     28  C5D       -1.1100  -14.1210   23.5490 C.3   300  NAP300      0.1813
     29  C4D        0.1860  -13.6780   24.1850 C.3   300  NAP300      0.1799
     30  O4D        0.0500  -12.4010   24.7480 O.3   300  NAP300     -0.3327
     31  C3D        0.5710  -14.5810   25.3210 C.3   300  NAP300      0.2158
     32  O3D        1.9680  -14.6790   25.3490 O.3   300  NAP300     -0.2175
     33  C2D        0.1730  -13.8220   26.5540 C.3   300  NAP300      0.2309
     34  O2D        0.9430  -14.1590   27.6760 O.3   300  NAP300     -0.2158
     35  C1D        0.3290  -12.3880   26.1260 C.3   300  NAP300      0.2263
     36  N1N       -0.6360  -11.5840   26.8810 N.pl3 300  NAP300     -0.2787
     37  C2N       -1.9820  -11.6560   26.6370 C.3   300  NAP300      0.1244
     38  C3N       -2.8560  -10.8680   27.3890 C.2   300  NAP300      0.0544
     39  C7N       -4.3170  -10.8240   27.0650 C.2   300  NAP300      0.2818
     40  O7N       -5.0700   -9.7460   27.5400 O.2   300  NAP300     -0.2670
     41  N7N       -4.8800  -11.7770   26.3390 N.am  300  NAP300     -0.0839
     42  C4N       -2.3640  -10.0160   28.3970 C.2   300  NAP300      0.0033
     43  C5N       -0.9920   -9.9620   28.6380 C.2   300  NAP300      0.0157
     44  C6N       -0.1380  -10.7620   27.8740 C.2   300  NAP300      0.0633
     45  P2B       -3.4140  -24.1990   21.7790 P.3   300  NAP300      0.5328
     46  O1X       -3.2220  -24.6910   20.3700 O.2   300  NAP300     -0.2224
     47  O2X       -3.1980  -25.3750   22.7060 O.3   300  NAP300     -0.1145
     48  O3X       -4.7840  -23.5640   21.9410 O.3   300  NAP300     -0.1145
@<TRIPOS>BOND
     1    46    45    2
     2    45    48    1
     3    45    11    1
     4    45    47    1
     5    11    10    1
     6     9     8    1
     7    26    24    2
     8     6     8    1
     9     6     5    1
    10     6     7    1
    11     8    10    1
    12    10    12    1
    13    21    20    1
    14    21    22    2
    15    12     7    1
    16    12    13    1
    17    20    19    1
    18    28    29    1
    19    28    27    1
    20     5     4    1
    21    29    30    1
    22    29    31    1
    23    24    27    1
    24    24    23    1
    25    24    25    1
    26     3     1    2
    27     4     1    1
    28    22    13    1
    29    22    16    1
    30    13    14    1
    31    23     1    1
    32    19    17    2
    33    30    35    1
    34     1     2    1
    35    31    32    1
    36    31    33    1
    37    16    17    1
    38    16    15    2
    39    17    18    1
    40    14    15    1
    41    35    33    1
    42    35    36    1
    43    41    39   am
    44    33    34    1
    45    37    36    1
    46    37    38    1
    47    36    44    1
    48    39    38    1
    49    39    40    2
    50    38    42    2
    51    44    43    2
    52    42    43    1
