@<TRIPOS>MOLECULE
1w0e_HEM_A_1.pdb
 43 50 0 0 0
SMALL
GASTEIGER

@<TRIPOS>ATOM
      1 FE         54.9520   77.6910   10.6370 Fe    1501  HEM1501     0.0000
      2  CHA       54.4280   81.0310   10.0810 C.2   1501  HEM1501     0.0000
      3  CHB       55.2870   78.3650   13.9920 C.2   1501  HEM1501     0.0000
      4  CHC       55.5280   74.3940   11.2620 C.2   1501  HEM1501     0.0000
      5  CHD       54.6020   77.0540    7.3530 C.2   1501  HEM1501     0.0000
      6  NA        54.8430   79.3610   11.8070 N.2   1501  HEM1501     0.0000
      7  C1A       54.6150   80.6510   11.4060 C.2   1501  HEM1501     0.0000
      8  C2A       54.5820   81.5240   12.5840 C.2   1501  HEM1501     0.0000
      9  C3A       54.8240   80.7650   13.6430 C.2   1501  HEM1501     0.0000
     10  C4A       54.9980   79.4290   13.1600 C.2   1501  HEM1501     0.0000
     11  CMA       54.8840   81.1950   15.0770 C.3   1501  HEM1501     0.0000
     12  CAA       54.3230   82.9890   12.6280 C.3   1501  HEM1501     0.0000
     13  CBA       52.8830   83.2930   12.9930 C.3   1501  HEM1501     0.0000
     14  CGA       52.5790   84.7580   13.1470 C.2   1501  HEM1501     0.0000
     15  O1A       51.4160   85.0930   13.4700 O.co2 1501  HEM1501     0.0000
     16  O2A       53.5090   85.5760   12.9920 O.co2 1501  HEM1501     0.0000
     17  NB        55.3520   76.5880   12.3110 N.ar  1501  HEM1501     0.0000
     18  C1B       55.4600   77.0500   13.6010 C.ar  1501  HEM1501     0.0000
     19  C2B       55.7840   75.9640   14.5180 C.ar  1501  HEM1501     0.0000
     20  C3B       55.8660   74.8520   13.7420 C.ar  1501  HEM1501     0.0000
     21  C4B       55.5690   75.2570   12.3710 C.ar  1501  HEM1501     0.0000
     22  CMB       55.9790   76.1210   16.0010 C.3   1501  HEM1501     0.0000
     23  CAB       56.1760   73.4450   14.0850 C.2   1501  HEM1501     0.0000
     24  CBB       56.8430   72.9410   15.1040 C.2   1501  HEM1501     0.0000
     25  NC        55.0460   75.9650    9.4970 N.2   1501  HEM1501     0.0000
     26  C1C       55.2720   74.7090    9.9550 C.2   1501  HEM1501     0.0000
     27  C2C       55.1620   73.7640    8.8780 C.2   1501  HEM1501     0.0000
     28  C3C       54.8840   74.4890    7.7640 C.2   1501  HEM1501     0.0000
     29  C4C       54.8340   75.9040    8.1810 C.2   1501  HEM1501     0.0000
     30  CMC       55.3380   72.2690    9.0510 C.3   1501  HEM1501     0.0000
     31  CAC       54.6760   74.0080    6.3930 C.2   1501  HEM1501     0.0000
     32  CBC       53.5660   74.1480    5.6520 C.2   1501  HEM1501     0.0000
     33  ND        54.6100   78.8720    9.0170 N.ar  1501  HEM1501     0.0000
     34  C1D       54.5240   78.4170    7.7310 C.ar  1501  HEM1501     0.0000
     35  C2D       54.2820   79.5060    6.8340 C.ar  1501  HEM1501     0.0000
     36  C3D       54.2330   80.6280    7.5970 C.ar  1501  HEM1501     0.0000
     37  C4D       54.4400   80.2200    8.9730 C.ar  1501  HEM1501     0.0000
     38  CMD       54.1150   79.4230    5.3690 C.3   1501  HEM1501     0.0000
     39  CAD       54.0040   81.9890    7.0570 C.3   1501  HEM1501     0.0000
     40  CBD       52.5160   82.2920    6.8840 C.3   1501  HEM1501     0.0000
     41  CGD       52.2560   83.6620    6.2860 C.2   1501  HEM1501     0.0000
     42  O1D       51.2810   83.6680    5.5030 O.co2 1501  HEM1501     0.0000
     43  O2D       52.9570   84.7210    6.6080 O.co2 1501  HEM1501     0.0000
@<TRIPOS>BOND
     1    38    35    1
     2    42    41   ar
     3    32    31    2
     4    41    43   ar
     5    41    40    1
     6    31    28    1
     7    35    36   ar
     8    35    34   ar
     9    40    39    1
    10    39    36    1
    11     5    34    2
    12     5    29    1
    13    36    37   ar
    14    34    33   ar
    15    28    29    1
    16    28    27    2
    17    29    25    2
    18    27    30    1
    19    27    26    1
    20    37    33   ar
    21    37     2    2
    22    33     1    1
    23    25    26    1
    24    25     1    1
    25    26     4    2
    26     2     7    1
    27     1     6    1
    28     1    17    1
    29     4    21    1
    30     7     6    2
    31     7     8    1
    32     6    10    1
    33    17    21   ar
    34    17    18   ar
    35    21    20   ar
    36     8    12    1
    37     8     9    2
    38    12    13    1
    39    16    14   ar
    40    13    14    1
    41    14    15   ar
    42    10     9    1
    43    10     3    2
    44    18     3    1
    45    18    19   ar
    46     9    11    1
    47    20    23    1
    48    20    19   ar
    49    23    24    2
    50    19    22    1
