@<TRIPOS>MOLECULE
1w0f_STR_A_1.pdb
 23 26 0 0 0
SMALL
GASTEIGER

@<TRIPOS>ATOM
      1  C1        78.5430   84.1150    4.8020 C.3   1499  STR1499     0.0118
      2  C2        79.6920   84.6230    3.8170 C.3   1499  STR1499     0.0694
      3  C3        79.0680   84.8490    2.3750 C.2   1499  STR1499     0.1725
      4  O3        79.7250   84.5840    1.3480 O.2   1499  STR1499    -0.2914
      5  C4        77.6310   85.3900    2.2720 C.2   1499  STR1499     0.0289
      6  C5        76.7830   85.4570    3.3510 C.2   1499  STR1499    -0.0420
      7  C6        75.3360   86.0070    3.0790 C.3   1499  STR1499     0.0221
      8  C7        74.2440   85.1100    3.7340 C.3   1499  STR1499     0.0044
      9  C8        74.5190   84.8310    5.2700 C.3   1499  STR1499     0.0006
     10  C9        75.9750   84.1340    5.4680 C.3   1499  STR1499     0.0035
     11  C10       77.1950   84.9980    4.8110 C.3   1499  STR1499     0.0157
     12  C11       76.2490   83.6650    6.9850 C.3   1499  STR1499     0.0003
     13  C12       75.0440   82.9050    7.6790 C.3   1499  STR1499     0.0004
     14  C13       73.5990   83.5330    7.4160 C.3   1499  STR1499     0.0065
     15  C14       73.4410   83.8350    5.8230 C.3   1499  STR1499     0.0004
     16  C15       71.9390   84.1390    5.6950 C.3   1499  STR1499     0.0004
     17  C16       71.3310   82.9440    6.4610 C.3   1499  STR1499     0.0073
     18  C17       72.3880   82.5060    7.5460 C.3   1499  STR1499     0.0576
     19  C18       73.4360   84.8460    8.3440 C.3   1499  STR1499     0.0004
     20  C19       77.5050   86.2940    5.6490 C.3   1499  STR1499     0.0041
     21  C20       71.7910   82.2900    8.9790 C.2   1499  STR1499     0.1507
     22  O20       70.7610   82.8710    9.3290 O.2   1499  STR1499    -0.2961
     23  C21       72.4970   81.3590    9.9710 C.3   1499  STR1499     0.0722
@<TRIPOS>BOND
     1     4     3    2
     2     5     3    1
     3     5     6    2
     4     3     2    1
     5     7     6    1
     6     7     8    1
     7     6    11    1
     8     8     9    1
     9     2     1    1
    10     1    11    1
    11    11    10    1
    12    11    20    1
    13     9    10    1
    14     9    15    1
    15    10    12    1
    16    16    15    1
    17    16    17    1
    18    15    14    1
    19    17    18    1
    20    12    13    1
    21    14    18    1
    22    14    13    1
    23    14    19    1
    24    18    21    1
    25    21    22    2
    26    21    23    1
