@<TRIPOS>MOLECULE
1w0f_HEM_A_1.pdb
 43 50 0 0 0
SMALL
GASTEIGER

@<TRIPOS>ATOM
      1 FE         54.4260   78.1170   10.3300 Fe    1501  HEM1501     0.0000
      2  CHA       53.8720   81.4780    9.7510 C.2   1501  HEM1501     0.0000
      3  CHB       54.8470   78.8030   13.6560 C.2   1501  HEM1501     0.0000
      4  CHC       55.0820   74.8030   10.9160 C.2   1501  HEM1501     0.0000
      5  CHD       54.1090   77.4960    6.9830 C.2   1501  HEM1501     0.0000
      6  NA        54.3620   79.8230   11.4880 N.2   1501  HEM1501     0.0000
      7  C1A       54.1030   81.1140   11.0560 C.2   1501  HEM1501     0.0000
      8  C2A       54.1070   82.0200   12.1990 C.2   1501  HEM1501     0.0000
      9  C3A       54.3800   81.2660   13.2950 C.2   1501  HEM1501     0.0000
     10  C4A       54.5440   79.8910   12.8330 C.2   1501  HEM1501     0.0000
     11  CMA       54.5040   81.7250   14.7260 C.3   1501  HEM1501     0.0000
     12  CAA       53.8590   83.5070   12.1630 C.3   1501  HEM1501     0.0000
     13  CBA       52.4620   83.8510   12.6770 C.3   1501  HEM1501     0.0000
     14  CGA       52.1040   85.3270   12.7220 C.2   1501  HEM1501     0.0000
     15  O1A       52.7540   86.1400   12.0080 O.co2 1501  HEM1501     0.0000
     16  O2A       51.1840   85.6740   13.4930 O.co2 1501  HEM1501     0.0000
     17  NB        54.8920   77.0080   12.0010 N.ar  1501  HEM1501     0.0000
     18  C1B       55.0130   77.4810   13.2800 C.ar  1501  HEM1501     0.0000
     19  C2B       55.3390   76.3910   14.1920 C.ar  1501  HEM1501     0.0000
     20  C3B       55.4040   75.2620   13.4190 C.ar  1501  HEM1501     0.0000
     21  C4B       55.1210   75.6610   12.0440 C.ar  1501  HEM1501     0.0000
     22  CMB       55.5470   76.5380   15.6820 C.3   1501  HEM1501     0.0000
     23  CAB       55.6890   73.8650   13.8290 C.2   1501  HEM1501     0.0000
     24  CBB       56.8060   73.3730   14.3260 C.2   1501  HEM1501     0.0000
     25  NC        54.5590   76.4240    9.1510 N.2   1501  HEM1501     0.0000
     26  C1C       54.8210   75.1540    9.5830 C.2   1501  HEM1501     0.0000
     27  C2C       54.7870   74.2390    8.4330 C.2   1501  HEM1501     0.0000
     28  C3C       54.5150   75.0040    7.3270 C.2   1501  HEM1501     0.0000
     29  C4C       54.3760   76.3870    7.7970 C.2   1501  HEM1501     0.0000
     30  CMC       55.0210   72.7530    8.5200 C.3   1501  HEM1501     0.0000
     31  CAC       54.3810   74.5900    5.9130 C.2   1501  HEM1501     0.0000
     32  CBC       53.4100   73.8590    5.3810 C.2   1501  HEM1501     0.0000
     33  ND        54.0580   79.2910    8.6790 N.ar  1501  HEM1501     0.0000
     34  C1D       53.9660   78.8330    7.3760 C.ar  1501  HEM1501     0.0000
     35  C2D       53.7110   79.9430    6.4830 C.ar  1501  HEM1501     0.0000
     36  C3D       53.6410   81.0730    7.2770 C.ar  1501  HEM1501     0.0000
     37  C4D       53.8560   80.6490    8.6440 C.ar  1501  HEM1501     0.0000
     38  CMD       53.5590   79.8450    4.9860 C.3   1501  HEM1501     0.0000
     39  CAD       53.3930   82.4800    6.8150 C.3   1501  HEM1501     0.0000
     40  CBD       51.9040   82.8270    6.6570 C.3   1501  HEM1501     0.0000
     41  CGD       51.7820   84.2680    6.1690 C.2   1501  HEM1501     0.0000
     42  O1D       52.6340   85.1230    6.5250 O.co2 1501  HEM1501     0.0000
     43  O2D       50.8120   84.5260    5.4220 O.co2 1501  HEM1501     0.0000
@<TRIPOS>BOND
     1    38    35    1
     2    32    31    2
     3    43    41   ar
     4    31    28    1
     5    41    42   ar
     6    41    40    1
     7    35    36   ar
     8    35    34   ar
     9    40    39    1
    10    39    36    1
    11     5    34    2
    12     5    29    1
    13    36    37   ar
    14    28    29    1
    15    28    27    2
    16    34    33   ar
    17    29    25    2
    18    27    30    1
    19    27    26    1
    20    37    33   ar
    21    37     2    2
    22    33     1    1
    23    25    26    1
    24    25     1    1
    25    26     4    2
    26     2     7    1
    27     1     6    1
    28     1    17    1
    29     4    21    1
    30     7     6    2
    31     7     8    1
    32     6    10    1
    33    17    21   ar
    34    17    18   ar
    35    15    14   ar
    36    21    20   ar
    37    12     8    1
    38    12    13    1
    39     8     9    2
    40    13    14    1
    41    14    16   ar
    42    10     9    1
    43    10     3    2
    44    18     3    1
    45    18    19   ar
    46     9    11    1
    47    20    23    1
    48    20    19   ar
    49    23    24    2
    50    19    22    1
