@<TRIPOS>MOLECULE
1w0g_HEM_A_1.pdb
 43 50 0 0 0
SMALL
GASTEIGER

@<TRIPOS>ATOM
      1 FE         54.9750   78.8580   10.6750 Fe    1501  HEM1501     0.0000
      2  CHA       54.3000   82.2550    9.9310 C.2   1501  HEM1501     0.0000
      3  CHB       55.3900   79.6790   13.7880 C.2   1501  HEM1501     0.0000
      4  CHC       55.4330   75.5520   11.3220 C.2   1501  HEM1501     0.0000
      5  CHD       54.8100   78.1760    7.3360 C.2   1501  HEM1501     0.0000
      6  NA        54.9040   80.6000   11.6020 N.2   1501  HEM1501     0.0000
      7  C1A       54.5530   81.8710   11.1990 C.2   1501  HEM1501     0.0000
      8  C2A       54.4340   82.7440   12.3570 C.2   1501  HEM1501     0.0000
      9  C3A       54.7150   82.0310   13.4110 C.2   1501  HEM1501     0.0000
     10  C4A       55.0120   80.6870   12.9660 C.2   1501  HEM1501     0.0000
     11  CMA       54.7490   82.5580   14.8430 C.3   1501  HEM1501     0.0000
     12  CAA       54.0460   84.2270   12.3610 C.3   1501  HEM1501     0.0000
     13  CBA       52.6400   84.3730   12.9510 C.3   1501  HEM1501     0.0000
     14  CGA       52.1450   85.8120   13.0280 C.2   1501  HEM1501     0.0000
     15  O1A       51.1630   86.0800   13.7790 O.co2 1501  HEM1501     0.0000
     16  O2A       52.7120   86.6940   12.3300 O.co2 1501  HEM1501     0.0000
     17  NB        55.3950   77.8440   12.1590 N.ar  1501  HEM1501     0.0000
     18  C1B       55.4470   78.3760   13.4230 C.ar  1501  HEM1501     0.0000
     19  C2B       55.5870   77.3130   14.3690 C.ar  1501  HEM1501     0.0000
     20  C3B       55.6040   76.1690   13.7030 C.ar  1501  HEM1501     0.0000
     21  C4B       55.4970   76.4840   12.3080 C.ar  1501  HEM1501     0.0000
     22  CMB       55.6590   77.4920   15.8940 C.3   1501  HEM1501     0.0000
     23  CAB       55.7000   74.7580   14.2980 C.2   1501  HEM1501     0.0000
     24  CBB       56.8810   74.2300   14.5910 C.2   1501  HEM1501     0.0000
     25  NC        55.0760   77.2050    9.5870 N.2   1501  HEM1501     0.0000
     26  C1C       55.2200   75.9050   10.0310 C.2   1501  HEM1501     0.0000
     27  C2C       55.3340   74.9920    8.9150 C.2   1501  HEM1501     0.0000
     28  C3C       55.0040   75.6900    7.8460 C.2   1501  HEM1501     0.0000
     29  C4C       54.9590   77.1150    8.2110 C.2   1501  HEM1501     0.0000
     30  CMC       55.2610   73.4720    9.0070 C.3   1501  HEM1501     0.0000
     31  CAC       54.8900   75.0610    6.4370 C.2   1501  HEM1501     0.0000
     32  CBC       54.1090   75.6160    5.4970 C.2   1501  HEM1501     0.0000
     33  ND        54.5960   80.0120    8.9620 N.ar  1501  HEM1501     0.0000
     34  C1D       54.6190   79.4910    7.6710 C.ar  1501  HEM1501     0.0000
     35  C2D       54.3910   80.5550    6.7160 C.ar  1501  HEM1501     0.0000
     36  C3D       54.2440   81.7990    7.5510 C.ar  1501  HEM1501     0.0000
     37  C4D       54.3830   81.3820    8.9040 C.ar  1501  HEM1501     0.0000
     38  CMD       54.3190   80.5160    5.1650 C.3   1501  HEM1501     0.0000
     39  CAD       53.9970   83.2220    7.0640 C.3   1501  HEM1501     0.0000
     40  CBD       52.6230   83.3330    6.4190 C.3   1501  HEM1501     0.0000
     41  CGD       52.2390   84.7930    6.3770 C.2   1501  HEM1501     0.0000
     42  O1D       51.1440   85.1510    5.8470 O.co2 1501  HEM1501     0.0000
     43  O2D       53.0380   85.6030    6.9120 O.co2 1501  HEM1501     0.0000
@<TRIPOS>BOND
     1    38    35    1
     2    32    31    2
     3    42    41   ar
     4    41    40    1
     5    41    43   ar
     6    40    39    1
     7    31    28    1
     8    35    36   ar
     9    35    34   ar
    10    39    36    1
    11     5    34    2
    12     5    29    1
    13    36    37   ar
    14    34    33   ar
    15    28    29    1
    16    28    27    2
    17    29    25    2
    18    37    33   ar
    19    37     2    2
    20    27    30    1
    21    27    26    1
    22    33     1    1
    23    25    26    1
    24    25     1    1
    25     2     7    1
    26    26     4    2
    27     1     6    1
    28     1    17    1
    29     7     6    2
    30     7     8    1
    31     4    21    1
    32     6    10    1
    33    17    21   ar
    34    17    18   ar
    35    21    20   ar
    36    16    14   ar
    37     8    12    1
    38     8     9    2
    39    12    13    1
    40    13    14    1
    41    10     9    1
    42    10     3    2
    43    14    15   ar
    44     9    11    1
    45    18     3    1
    46    18    19   ar
    47    20    23    1
    48    20    19   ar
    49    23    24    2
    50    19    22    1
