@<TRIPOS>MOLECULE
1w0g_MYT_A_1.pdb
 17 18 0 0 0
SMALL
GASTEIGER

@<TRIPOS>ATOM
      1  N1        57.7830   85.6800   12.3180 N.ar  1499  MYT1499    -0.2422
      2  C2        57.7310   85.1200   11.1120 C.ar  1499  MYT1499     0.1017
      3  C3        58.3550   83.8950   10.7980 C.ar  1499  MYT1499     0.0541
      4  C4        59.0370   83.2710   11.8550 C.ar  1499  MYT1499     0.0060
      5  C5        59.0790   83.9000   13.0960 C.ar  1499  MYT1499     0.0208
      6  C6        58.4360   85.1170   13.3040 C.ar  1499  MYT1499     0.0989
      7  C7        58.2430   83.3280    9.4350 C.2   1499  MYT1499     0.1775
      8  O8        57.4440   83.8220    8.6770 O.2   1499  MYT1499    -0.2910
      9  C9        58.6330   81.8560    7.4390 C.3   1499  MYT1499     0.0122
     10  C10       59.0340   82.1570    8.8920 C.3   1499  MYT1499     0.0758
     11  C11       60.5090   82.5700    8.9140 C.3   1499  MYT1499     0.0122
     12  C12       58.7480   80.9170    9.6810 C.ar  1499  MYT1499     0.0033
     13  C13       57.4840   80.3820    9.6370 C.ar  1499  MYT1499     0.0950
     14  N14       57.1720   79.3100   10.3350 N.ar  1499  MYT1499    -0.2426
     15  C15       58.0810   78.7220   11.0960 C.ar  1499  MYT1499     0.0989
     16  C16       59.3690   79.2260   11.1920 C.ar  1499  MYT1499     0.0204
     17  C17       59.7100   80.3380   10.4840 C.ar  1499  MYT1499    -0.0007
@<TRIPOS>BOND
     1     9    10    1
     2     8     7    2
     3    10    11    1
     4    10     7    1
     5    10    12    1
     6     7     3    1
     7    13    12   ar
     8    13    14   ar
     9    12    17   ar
    10    14    15   ar
    11    17    16   ar
    12     3     2   ar
    13     3     4   ar
    14    15    16   ar
    15     2     1   ar
    16     4     5   ar
    17     1     6   ar
    18     5     6   ar
