@<TRIPOS>MOLECULE
1w0h_AMP_A_1.pdb
 23 25 0 0 0
SMALL
GASTEIGER

@<TRIPOS>ATOM
      1  P          9.6440   71.8500   37.7360 P.3   1002  AMP1002     0.5327
      2  O1P       10.9620   72.2940   37.1670 O.2   1002  AMP1002    -0.2224
      3  O2P        9.3240   72.6390   39.0120 O.3   1002  AMP1002    -0.1145
      4  O3P        9.5900   70.3530   38.0760 O.3   1002  AMP1002    -0.1145
      5  O5'        8.4650   72.1150   36.6790 O.3   1002  AMP1002    -0.2675
      6  C5'        8.4980   73.3600   36.0110 C.3   1002  AMP1002     0.1860
      7  C4'        7.0650   73.8590   35.8600 C.3   1002  AMP1002     0.1823
      8  O4'        6.2640   72.8870   35.1900 O.3   1002  AMP1002    -0.3135
      9  C3'        6.2830   74.1650   37.1470 C.3   1002  AMP1002     0.2184
     10  O3'        6.6550   75.4210   37.6510 O.3   1002  AMP1002    -0.2174
     11  C2'        4.8620   74.0570   36.6420 C.3   1002  AMP1002     0.2570
     12  O2'        4.4870   75.2120   35.8880 O.3   1002  AMP1002    -0.2130
     13  C1'        4.9540   72.8730   35.6850 C.3   1002  AMP1002     0.3186
     14  N9         4.7310   71.6240   36.4420 N.pl3 1002  AMP1002    -0.1439
     15  C8         5.6890   70.8290   37.0420 C.3   1002  AMP1002     0.3377
     16  N7         5.0520   69.7840   37.6240 N.2   1002  AMP1002    -0.2095
     17  C5         3.7250   69.9110   37.4060 C.2   1002  AMP1002     0.2526
     18  C6         2.6010   69.1590   37.7690 C.2   1002  AMP1002     0.4393
     19  N6         2.7310   68.0430   38.4920 N.pl3 1002  AMP1002     0.2180
     20  N1         1.3490   69.5570   37.3830 N.2   1002  AMP1002     0.0021
     21  C2         1.1630   70.7140   36.6440 C.3   1002  AMP1002     0.5254
     22  N3         2.2640   71.4530   36.2910 N.2   1002  AMP1002    -0.0055
     23  C4         3.5140   71.0680   36.6600 C.2   1002  AMP1002     0.3518
@<TRIPOS>BOND
     1     8    13    1
     2     8     7    1
     3    13    14    1
     4    13    11    1
     5     7     6    1
     6     7     9    1
     7    12    11    1
     8     6     5    1
     9    22    21    1
    10    22    23    2
    11    14    23    1
    12    14    15    1
    13    11     9    1
    14    21    20    1
    15    23    17    1
    16     5     1    1
    17    15    16    1
    18     9    10    1
    19     2     1    2
    20    20    18    2
    21    17    16    2
    22    17    18    1
    23     1     4    1
    24     1     3    1
    25    18    19    1
