@<TRIPOS>MOLECULE
1w0j_ADP_A_1.pdb
 27 29 0 0 0
SMALL
GASTEIGER

@<TRIPOS>ATOM
      1  PB        39.7840   12.3220   89.3170 P.3   1511  ADP1511     0.5373
      2  O1B       40.0840   13.5080   88.4550 O.2   1511  ADP1511    -0.2221
      3  O2B       38.8510   12.6050   90.4930 O.3   1511  ADP1511    -0.1143
      4  O3B       39.2870   11.1690   88.4880 O.3   1511  ADP1511    -0.1143
      5  PA        41.6270   11.1520   91.2520 P.3   1511  ADP1511     0.2231
      6  O1A       40.7200    9.9860   91.4090 O.2   1511  ADP1511    -0.5169
      7  O2A       41.6430   12.1060   92.4160 O.3   1511  ADP1511    -0.4370
      8  O3A       41.2630   11.9490   89.8730 O.3   1511  ADP1511    -0.2261
      9  O5'       43.1100   10.7100   90.8990 O.3   1511  ADP1511    -0.3111
     10  C5'       43.4200    9.9140   89.7510 C.3   1511  ADP1511     0.1813
     11  C4'       44.6240    9.0130   90.0430 C.3   1511  ADP1511     0.1821
     12  O4'       45.7590    9.8610   90.2660 O.3   1511  ADP1511    -0.3135
     13  C3'       44.3910    8.1930   91.3140 C.3   1511  ADP1511     0.2184
     14  O3'       44.7900    6.8260   91.1900 O.3   1511  ADP1511    -0.2174
     15  C2'       45.2160    8.9170   92.3580 C.3   1511  ADP1511     0.2570
     16  O2'       45.6070    8.0380   93.4130 O.3   1511  ADP1511    -0.2130
     17  C1'       46.3320    9.5370   91.5290 C.3   1511  ADP1511     0.3186
     18  N9        46.8100   10.7980   92.1180 N.pl3 1511  ADP1511    -0.1439
     19  C8        46.0680   11.8740   92.4420 C.3   1511  ADP1511     0.3377
     20  N7        46.8480   12.8500   92.9800 N.2   1511  ADP1511    -0.2095
     21  C5        48.1190   12.4010   92.9920 C.2   1511  ADP1511     0.2526
     22  C6        49.4450   12.9020   93.4180 C.2   1511  ADP1511     0.4393
     23  N6        49.6100   14.1190   93.9550 N.pl3 1511  ADP1511     0.2180
     24  N1        50.5070   12.0990   93.2500 N.2   1511  ADP1511     0.0021
     25  C2        50.4010   10.8660   92.7150 C.3   1511  ADP1511     0.5254
     26  N3        49.2350   10.3370   92.3170 N.2   1511  ADP1511    -0.0055
     27  C4        48.0840   11.0450   92.4180 C.2   1511  ADP1511     0.3518
@<TRIPOS>BOND
     1     2     1    2
     2     4     1    1
     3     1     8    1
     4     1     3    1
     5    10    11    1
     6    10     9    1
     7     8     5    1
     8    11    12    1
     9    11    13    1
    10    12    17    1
    11     9     5    1
    12    14    13    1
    13     5     6    2
    14     5     7    1
    15    13    15    1
    16    17    18    1
    17    17    15    1
    18    18    27    1
    19    18    19    1
    20    26    27    2
    21    26    25    1
    22    15    16    1
    23    27    21    1
    24    19    20    1
    25    25    24    1
    26    20    21    2
    27    21    22    1
    28    24    22    2
    29    22    23    1
