@<TRIPOS>MOLECULE
1w0k_ADP_A_1.pdb
 27 29 0 0 0
SMALL
GASTEIGER

@<TRIPOS>ATOM
      1  PB       101.4910   66.8880   50.1670 P.3   1511  ADP1511     0.5373
      2  O1B      101.1350   68.0680   51.0870 O.3   1511  ADP1511    -0.1143
      3  O2B      102.3640   67.4020   49.0070 O.2   1511  ADP1511    -0.2221
      4  O3B      102.2270   65.8180   50.8810 O.3   1511  ADP1511    -0.1143
      5  PA        99.6880   65.5880   48.3060 P.3   1511  ADP1511     0.2231
      6  O1A       99.6910   66.5570   47.1920 O.2   1511  ADP1511    -0.5169
      7  O2A      100.6170   64.4060   48.0080 O.3   1511  ADP1511    -0.4370
      8  O3A      100.0580   66.2900   49.7140 O.3   1511  ADP1511    -0.2261
      9  O5'       98.1690   65.1300   48.5930 O.3   1511  ADP1511    -0.3111
     10  C5'       97.8280   64.2490   49.6510 C.3   1511  ADP1511     0.1813
     11  C4'       96.6860   63.3020   49.2480 C.3   1511  ADP1511     0.1821
     12  O4'       95.4700   64.0020   49.0410 O.3   1511  ADP1511    -0.3135
     13  C3'       96.9850   62.5400   47.9660 C.3   1511  ADP1511     0.2184
     14  O3'       96.5480   61.2070   48.1080 O.3   1511  ADP1511    -0.2174
     15  C2'       96.1580   63.2390   46.9210 C.3   1511  ADP1511     0.2570
     16  O2'       95.7480   62.3190   45.9440 O.3   1511  ADP1511    -0.2130
     17  C1'       94.9930   63.8000   47.7260 C.3   1511  ADP1511     0.3186
     18  N9        94.5020   65.0850   47.1920 N.pl3 1511  ADP1511    -0.1439
     19  C8        95.2370   66.2230   46.9850 C.3   1511  ADP1511     0.3377
     20  N7        94.4280   67.1880   46.4980 N.2   1511  ADP1511    -0.2095
     21  C5        93.1790   66.6870   46.3960 C.2   1511  ADP1511     0.2526
     22  C6        91.9830   67.2480   45.9490 C.2   1511  ADP1511     0.4393
     23  N6        92.0340   68.3190   45.1540 N.pl3 1511  ADP1511     0.2180
     24  N1        90.8340   66.4660   45.9630 N.2   1511  ADP1511     0.0021
     25  C2        90.8790   65.1520   46.4020 C.3   1511  ADP1511     0.5254
     26  N3        92.0760   64.6100   46.8380 N.2   1511  ADP1511    -0.0055
     27  C4        93.2080   65.3630   46.8310 C.2   1511  ADP1511     0.3518
@<TRIPOS>BOND
     1    23    22    1
     2    16    15    1
     3    22    24    2
     4    22    21    1
     5    24    25    1
     6    21    20    2
     7    21    27    1
     8    25    26    1
     9    20    19    1
    10    27    26    2
    11    27    18    1
    12    15    17    1
    13    15    13    1
    14    19    18    1
    15     6     5    2
    16    18    17    1
    17    17    12    1
    18    13    14    1
    19    13    11    1
    20     7     5    1
    21     5     9    1
    22     5     8    1
    23     9    10    1
    24     3     1    2
    25    12    11    1
    26    11    10    1
    27     8     1    1
    28     1     4    1
    29     1     2    1
