@<TRIPOS>MOLECULE
1w0o_SIA_A_1.pdb
 21 21 0 0 0
SMALL
GASTEIGER

@<TRIPOS>ATOM
      1  C1       -27.7010   65.9540  190.9900 C.2   1783  SIA1783     0.4179
      2  C2       -26.3880   65.2610  190.6270 C.3   1783  SIA1783     0.3155
      3  C3       -26.6650   63.8050  190.2120 C.3   1783  SIA1783     0.1056
      4  C4       -27.4200   63.7300  188.8810 C.3   1783  SIA1783     0.1798
      5  C5       -26.7150   64.5770  187.8180 C.3   1783  SIA1783     0.1554
      6  C6       -26.5810   66.0040  188.3500 C.3   1783  SIA1783     0.1734
      7  C7       -25.9580   66.9340  187.3120 C.3   1783  SIA1783     0.2135
      8  C8       -25.8700   68.3570  187.8660 C.3   1783  SIA1783     0.2173
      9  C9       -25.3370   69.3160  186.8000 C.3   1783  SIA1783     0.2175
     10  C10      -27.0270   63.8090  185.5040 C.2   1783  SIA1783     0.2420
     11  C11      -28.0590   63.6260  184.4070 C.3   1783  SIA1783     0.0964
     12  N5       -27.3620   64.6010  186.5190 N.am  1783  SIA1783    -0.2020
     13  O1A      -28.5980   65.2850  191.5470 O.co2 1783  SIA1783    -0.2401
     14  O1B      -27.8330   67.1700  190.7340 O.co2 1783  SIA1783    -0.2401
     15  O2       -25.5270   65.2890  191.7120 O.3   1783  SIA1783    -0.1830
     16  O4       -27.4940   62.3800  188.4480 O.3   1783  SIA1783    -0.2210
     17  O6       -25.7750   65.9910  189.5510 O.3   1783  SIA1783    -0.3220
     18  O7       -24.6620   66.4670  186.9710 O.3   1783  SIA1783    -0.2176
     19  O8       -27.1550   68.7880  188.2950 O.3   1783  SIA1783    -0.2175
     20  O9       -26.3900   69.6970  185.9250 O.3   1783  SIA1783    -0.2175
     21  O10      -25.9380   63.2340  185.4270 O.2   1783  SIA1783    -0.2733
@<TRIPOS>BOND
     1    11    10    1
     2    21    10    2
     3    10    12   am
     4    20     9    1
     5    12     5    1
     6     9     8    1
     7    18     7    1
     8     7     8    1
     9     7     6    1
    10     5     6    1
    11     5     4    1
    12     8    19    1
    13     6    17    1
    14    16     4    1
    15     4     3    1
    16    17     2    1
    17     3     2    1
    18     2     1    1
    19     2    15    1
    20    14     1   ar
    21     1    13   ar
