@<TRIPOS>MOLECULE
1w0o_DAN_A_1.pdb
 20 20 0 0 0
SMALL
GASTEIGER

@<TRIPOS>ATOM
      1  C1       -22.4960   25.7920  157.1200 C.2   1778  DAN1778     0.4208
      2  C2       -23.3070   24.7080  156.7600 C.2   1778  DAN1778     0.2163
      3  C3       -24.4340   24.4570  157.5610 C.2   1778  DAN1778     0.0518
      4  C4       -25.5370   23.4930  157.1130 C.3   1778  DAN1778     0.2007
      5  C5       -25.0590   22.6380  155.9360 C.3   1778  DAN1778     0.1722
      6  C6       -24.2880   23.5020  154.9270 C.3   1778  DAN1778     0.2215
      7  C7       -23.8350   22.6780  153.7230 C.3   1778  DAN1778     0.2261
      8  C8       -23.2260   23.6050  152.6730 C.3   1778  DAN1778     0.2185
      9  C9       -22.6640   22.7990  151.5130 C.3   1778  DAN1778     0.2175
     10  C10      -26.5940   20.7780  155.5080 C.2   1778  DAN1778     0.2420
     11  C11      -28.0750   20.4740  155.3360 C.3   1778  DAN1778     0.0964
     12  N5       -26.1990   22.0260  155.2680 N.am  1778  DAN1778    -0.2004
     13  O1A      -22.6090   26.3600  158.2300 O.co2 1778  DAN1778    -0.2371
     14  O1B      -21.6650   26.1800  156.2610 O.co2 1778  DAN1778    -0.2371
     15  O4       -26.0150   22.6380  158.1430 O.3   1778  DAN1778    -0.2162
     16  O6       -23.1300   24.0700  155.5590 O.2   1778  DAN1778    -0.4684
     17  O7       -22.8770   21.7210  154.1440 O.3   1778  DAN1778    -0.2164
     18  O8       -24.2250   24.5050  152.2030 O.3   1778  DAN1778    -0.2174
     19  O9       -23.7210   22.1890  150.7850 O.3   1778  DAN1778    -0.2175
     20  O10      -25.8210   19.8860  155.8610 O.2   1778  DAN1778    -0.2733
@<TRIPOS>BOND
     1    19     9    1
     2     9     8    1
     3    18     8    1
     4     8     7    1
     5     7    17    1
     6     7     6    1
     7     6    16    1
     8     6     5    1
     9    12    10   am
    10    12     5    1
    11    11    10    1
    12    10    20    2
    13    16     2    1
    14     5     4    1
    15    14     1   ar
    16     2     1    1
    17     2     3    2
    18     4     3    1
    19     4    15    1
    20     1    13   ar
