@<TRIPOS>MOLECULE
1w0p_SIA_A_1.pdb
 21 21 0 0 0
SMALL
GASTEIGER

@<TRIPOS>ATOM
      1  C1       -27.8250   66.0160  191.3130 C.2   1784  SIA1784     0.4179
      2  C2       -26.5110   65.3070  190.9880 C.3   1784  SIA1784     0.3155
      3  C3       -26.7920   63.8490  190.5830 C.3   1784  SIA1784     0.1056
      4  C4       -27.5500   63.7770  189.2530 C.3   1784  SIA1784     0.1798
      5  C5       -26.8260   64.6070  188.1860 C.3   1784  SIA1784     0.1554
      6  C6       -26.6630   66.0360  188.7060 C.3   1784  SIA1784     0.1734
      7  C7       -26.0130   66.9460  187.6670 C.3   1784  SIA1784     0.2135
      8  C8       -26.1160   68.4060  188.1140 C.3   1784  SIA1784     0.2173
      9  C9       -25.4740   69.3280  187.0810 C.3   1784  SIA1784     0.2175
     10  C10      -27.0730   64.0460  185.8550 C.2   1784  SIA1784     0.2420
     11  C11      -27.9280   64.0880  184.6010 C.3   1784  SIA1784     0.0964
     12  N5       -27.5820   64.6040  186.9480 N.am  1784  SIA1784    -0.2020
     13  O1A      -28.7650   65.3490  191.7930 O.co2 1784  SIA1784    -0.2401
     14  O1B      -27.9180   67.2430  191.0930 O.co2 1784  SIA1784    -0.2401
     15  O2       -25.6720   65.3400  192.0910 O.3   1784  SIA1784    -0.1830
     16  O4       -27.6450   62.4240  188.8280 O.3   1784  SIA1784    -0.2210
     17  O6       -25.8730   66.0220  189.9170 O.3   1784  SIA1784    -0.3220
     18  O7       -24.6470   66.5880  187.5040 O.3   1784  SIA1784    -0.2176
     19  O8       -27.4800   68.7620  188.2880 O.3   1784  SIA1784    -0.2175
     20  O9       -26.1480   69.1980  185.8380 O.3   1784  SIA1784    -0.2175
     21  O10      -25.9650   63.5080  185.8270 O.2   1784  SIA1784    -0.2733
@<TRIPOS>BOND
     1    11    10    1
     2    21    10    2
     3    20     9    1
     4    10    12   am
     5    12     5    1
     6     9     8    1
     7    18     7    1
     8     7     8    1
     9     7     6    1
    10     8    19    1
    11     5     6    1
    12     5     4    1
    13     6    17    1
    14    16     4    1
    15     4     3    1
    16    17     2    1
    17     3     2    1
    18     2     1    1
    19     2    15    1
    20    14     1   ar
    21     1    13   ar
