@<TRIPOS>MOLECULE
1w0x_OLO_C_1.pdb
 25 27 0 0 0
SMALL
GASTEIGER

@<TRIPOS>ATOM
      1  N        107.0840  100.2570   81.1410 N.pl3 1299  OLO1299    -0.2590
      2  C        108.0000  100.9480   80.3360 C.3   1299  OLO1299     0.2221
      3  N1       107.4580  101.3740   79.1990 N.2   1299  OLO1299    -0.2402
      4  C3A      106.1350  100.9110   79.2460 C.2   1299  OLO1299     0.1673
      5  C7A      105.8950  100.2660   80.4270 C.2   1299  OLO1299     0.2197
      6  C1       105.0440  100.9680   78.3580 C.2   1299  OLO1299     0.2153
      7  N2       103.9470  100.3120   78.6750 N.2   1299  OLO1299    -0.3114
      8  C2       103.7070   99.7520   79.8650 C.1   1299  OLO1299     0.2020
      9  N3       104.6740   99.7320   80.8190 N.2   1299  OLO1299    -0.3111
     10  C3       107.3030   99.5740   82.4900 C.3   1299  OLO1299     0.1165
     11  N4       102.4930   99.0410   80.0920 N.pl3 1299  OLO1299    -0.2561
     12  C4       101.5880   98.7140   78.9120 C.3   1299  OLO1299     0.1304
     13  C5       100.8840   97.3220   78.7590 C.3   1299  OLO1299     0.1590
     14  O         99.4610   97.6010   78.7240 O.3   1299  OLO1299    -0.3802
     15  N5       105.0290  101.6760   77.2000 N.pl3 1299  OLO1299    -0.3025
     16  C6       104.0080  101.3500   76.1800 C.3   1299  OLO1299     0.1162
     17  C7       101.6240  101.7240   76.5510 C.ar  1299  OLO1299    -0.0026
     18  C8       100.4600  102.5470   76.5070 C.ar  1299  OLO1299    -0.0003
     19  C9       100.6270  103.8740   76.1430 C.ar  1299  OLO1299    -0.0000
     20  C10      101.9520  104.3680   75.8390 C.ar  1299  OLO1299    -0.0003
     21  C11      103.0670  103.5270   75.8960 C.ar  1299  OLO1299    -0.0026
     22  C12      102.8890  102.2430   76.2340 C.ar  1299  OLO1299    -0.0026
     23  HN4      102.1980   98.7380   81.0080 H     1299  OLO1299     0.1602
     24  HO        99.1710   97.6740   77.8120 H     1299  OLO1299     0.2105
     25  HN5      105.6820  102.4180   76.9970 H     1299  OLO1299     0.1495
@<TRIPOS>BOND
     1    20    21   ar
     2    20    19   ar
     3    21    22   ar
     4    19    18   ar
     5    16    22    1
     6    16    15    1
     7    22    17   ar
     8    18    17   ar
     9    25    15    1
    10    15     6    1
    11    24    14    1
    12     6     7    2
    13     6     4    1
    14     7     8    2
    15    14    13    1
    16    13    12    1
    17    12    11    1
    18     3     4    2
    19     3     2    1
    20     4     5    1
    21     8    11    1
    22     8     9    2
    23    11    23    1
    24     2     1    1
    25     5     9    2
    26     5     1    1
    27     1    10    1
