@<TRIPOS>MOLECULE
1w0y_FUC_L_1.pdb
 10 10 0 0 0
SMALL
GASTEIGER

@<TRIPOS>ATOM
      1  C1        21.3920   32.3740   62.4030 C.3   1143  FUC1143     0.1776
      2  C2        20.4540   33.5580   62.7300 C.3   1143  FUC1143     0.2141
      3  C3        20.3260   34.5170   61.5060 C.3   1143  FUC1143     0.2172
      4  C4        20.0220   33.6770   60.2700 C.3   1143  FUC1143     0.2116
      5  C5        21.0770   32.6160   60.0260 C.3   1143  FUC1143     0.1483
      6  C6        20.6870   31.7600   58.8070 C.3   1143  FUC1143     0.0349
      7  O2        20.9450   34.2470   63.8980 O.3   1143  FUC1143    -0.2176
      8  O3        19.2660   35.5310   61.6970 O.3   1143  FUC1143    -0.2175
      9  O4        18.8380   33.0050   60.5910 O.3   1143  FUC1143    -0.2177
     10  O5        21.0570   31.7590   61.1520 O.3   1143  FUC1143    -0.3508
@<TRIPOS>BOND
     1     6     5    1
     2     5     4    1
     3     5    10    1
     4     4     9    1
     5     4     3    1
     6    10     1    1
     7     3     8    1
     8     3     2    1
     9     1     2    1
    10     2     7    1
