@<TRIPOS>MOLECULE
1w0y_771_H_1.pdb
 32 34 0 0 0
SMALL
GASTEIGER

@<TRIPOS>ATOM
      1  C1        29.8940    6.6810   15.0960 C.2   1258  7711258     0.4766
      2  N1        29.3940    7.6860   15.8290 N.pl3 1258  7711258     0.2047
      3  N2        30.2260    5.5920   15.8250 N.pl3 1258  7711258     0.2047
      4  C2        30.2090    6.9370   13.6710 C.ar  1258  7711258     0.0976
      5  C3        29.4770    7.9530   12.9940 C.ar  1258  7711258     0.0093
      6  C4        29.6280    8.1420   11.6330 C.ar  1258  7711258     0.0164
      7  C5        30.5090    7.3190   10.9230 C.ar  1258  7711258     0.0657
      8  N3        30.7790    7.5770    9.5560 N.pl3 1258  7711258    -0.2328
      9  C8        31.7020    6.6900    8.7660 C.3   1258  7711258     0.1400
     10  C15       38.1770    7.7270    9.5410 C.3   1258  7711258     0.2321
     11  C16       38.4750    6.9510   10.7710 C.ar  1258  7711258     0.0212
     12  C17       37.7260    7.0730   11.9080 C.ar  1258  7711258    -0.0007
     13  C18       38.0040    6.3000   13.0250 C.ar  1258  7711258    -0.0002
     14  C19       39.0420    5.3970   13.0020 C.ar  1258  7711258    -0.0000
     15  C21       39.5050    6.0500   10.7570 C.ar  1258  7711258    -0.0007
     16  C20       39.7920    5.2820   11.8540 C.ar  1258  7711258    -0.0002
     17  C9        33.1490    7.1280    8.8990 C.ar  1258  7711258     0.0193
     18  C13       35.4970    6.6340    9.4050 C.ar  1258  7711258     0.0578
     19  C14       34.2010    6.2070    9.1790 C.ar  1258  7711258     0.0915
     20  N4        33.9440    4.8440    9.3400 N.pl3 1258  7711258    -0.1008
     21  S1        33.7020    3.8520    7.9700 S.O2  1258  7711258     0.0750
     22  C22       35.3440    3.5370    7.3820 C.3   1258  7711258     0.2016
     23  O5        32.9530    4.5850    6.9730 O.2   1258  7711258    -0.1528
     24  O4        33.1670    2.5920    8.3100 O.2   1258  7711258    -0.1528
     25  C12       35.7830    8.0010    9.3180 C.ar  1258  7711258     0.1740
     26  O3        37.0110    8.5270    9.6310 O.3   1258  7711258    -0.4675
     27  C10       33.4640    8.5070    8.7960 C.ar  1258  7711258     0.0388
     28  C11       34.7970    8.9390    8.9920 C.ar  1258  7711258     0.1722
     29  O2        35.2390   10.2440    8.7780 O.3   1258  7711258    -0.4684
     30  C23       34.3570   11.2760    8.3370 C.3   1258  7711258     0.2526
     31  C6        31.2490    6.3180   11.5960 C.ar  1258  7711258     0.0164
     32  C7        31.1120    6.1260   12.9430 C.ar  1258  7711258     0.0093
@<TRIPOS>BOND
     1    23    21    2
     2    22    21    1
     3    21    24    2
     4    21    20    1
     5    30    29    1
     6     9    17    1
     7     9     8    1
     8    29    28    1
     9    27    17   ar
    10    27    28   ar
    11    17    19   ar
    12    28    25   ar
    13    19    20    1
    14    19    18   ar
    15    25    18   ar
    16    25    26    1
    17    10    26    1
    18    10    11    1
    19     8     7    1
    20    15    11   ar
    21    15    16   ar
    22    11    12   ar
    23     7    31   ar
    24     7     6   ar
    25    31    32   ar
    26     6     5   ar
    27    16    14   ar
    28    12    13   ar
    29    32     4   ar
    30     5     4   ar
    31    14    13   ar
    32     4     1    1
    33     1     3    2
    34     1     2    1
