@<TRIPOS>MOLECULE
1w0y_BGC_L_1.pdb
 11 11 0 0 0
SMALL
GASTEIGER

@<TRIPOS>ATOM
      1  C2        38.1720   35.6380   60.9610 C.3   1161  BGC1161     0.2141
      2  C3        38.4930   34.4020   60.1200 C.3   1161  BGC1161     0.2173
      3  C4        39.2090   33.4160   61.0350 C.3   1161  BGC1161     0.2142
      4  C5        38.1980   33.0830   62.1650 C.3   1161  BGC1161     0.1810
      5  C6        38.6860   31.8720   62.9400 C.3   1161  BGC1161     0.2141
      6  C1        37.3940   35.1710   62.1540 C.3   1161  BGC1161     0.1777
      7  O2        37.4030   36.5960   60.2160 O.3   1161  BGC1161    -0.2176
      8  O3        39.2250   34.6790   58.9020 O.3   1161  BGC1161    -0.2175
      9  O4        39.7300   32.2340   60.3260 O.3   1161  BGC1161    -0.2176
     10  O5        37.9730   34.1980   63.0010 O.3   1161  BGC1161    -0.3481
     11  O6        40.0860   31.9970   63.1630 O.3   1161  BGC1161    -0.2176
@<TRIPOS>BOND
     1     8     2    1
     2     2     1    1
     3     2     3    1
     4     7     1    1
     5     9     3    1
     6     1     6    1
     7     3     4    1
     8     6    10    1
     9     4     5    1
    10     4    10    1
    11     5    11    1
