@<TRIPOS>MOLECULE
1w0z_SI1_U_1.pdb
 29 29 0 0 0
SMALL
GASTEIGER

@<TRIPOS>ATOM
      1  N4        34.3950    4.7700   27.3880 N.pl3 1245  SI11245     0.2047
      2  N5        33.1770    2.9530   27.8990 N.pl3 1245  SI11245     0.2047
      3  C18       33.1870    4.2980   27.7840 C.2   1245  SI11245     0.4766
      4  C14       32.0490    5.0940   28.0620 C.ar  1245  SI11245     0.0975
      5  C13       32.0740    6.4990   27.8890 C.ar  1245  SI11245     0.0077
      6  C12       30.9720    7.3020   28.2420 C.ar  1245  SI11245    -0.0023
      7  C17       29.7680    6.7210   28.6810 C.ar  1245  SI11245    -0.0006
      8  C16       29.7170    5.3210   28.8170 C.ar  1245  SI11245    -0.0023
      9  C15       30.8440    4.5270   28.5260 C.ar  1245  SI11245     0.0077
     10  C11       28.5850    7.5630   28.9930 C.3   1245  SI11245     0.1415
     11  N3        28.7810    8.3350   30.1590 N.am  1245  SI11245    -0.1991
     12  C10       29.0710    9.6110   30.1330 C.2   1245  SI11245     0.2615
     13  O5        29.2390   10.2050   29.0590 O.2   1245  SI11245    -0.2715
     14  C8        29.2050   10.3700   31.3810 C.3   1245  SI11245     0.1728
     15  N2        30.3020   11.2630   31.3040 N.am  1245  SI11245    -0.1965
     16  C7        31.5700   10.9280   31.1760 C.2   1245  SI11245     0.2622
     17  O4        31.8750    9.7340   31.0790 O.2   1245  SI11245    -0.2717
     18  C5        32.6660   11.9060   31.1340 C.3   1245  SI11245     0.2074
     19  C6        33.4010   12.1040   32.4900 C.3   1245  SI11245     0.2106
     20  O3        32.4930   12.1230   33.5950 O.3   1245  SI11245    -0.2182
     21  N1        33.7980   11.5600   30.2380 N.3   1245  SI11245    -0.0714
     22  S1        33.7560   12.1400   28.6580 S.O2  1245  SI11245     0.0578
     23  O2        33.3650   13.6380   28.6020 O.2   1245  SI11245    -0.1561
     24  O1        35.1840   11.8500   28.1110 O.2   1245  SI11245    -0.1561
     25  C1        32.6150   11.1430   27.7700 C.3   1245  SI11245     0.1705
     26  C4        32.4750   11.4000   26.2510 C.3   1245  SI11245     0.0271
     27  C3        31.4570   10.3930   25.6520 C.3   1245  SI11245     0.0019
     28  C2        31.3430   10.6000   24.1210 C.3   1245  SI11245     0.0001
     29  C9        27.9160   11.1980   31.6240 C.3   1245  SI11245     0.0334
@<TRIPOS>BOND
     1    28    27    1
     2    27    26    1
     3    26    25    1
     4     1     3    2
     5    25    22    1
     6     3     2    1
     7     3     4    1
     8     5     4   ar
     9     5     6   ar
    10     4     9   ar
    11    24    22    2
    12     6     7   ar
    13     9     8   ar
    14    23    22    2
    15    22    21    1
    16     7     8   ar
    17     7    10    1
    18    10    11    1
    19    13    12    2
    20    12    11   am
    21    12    14    1
    22    21    18    1
    23    17    16    2
    24    18    16    1
    25    18    19    1
    26    16    15   am
    27    15    14    1
    28    14    29    1
    29    19    20    1
