@<TRIPOS>MOLECULE
1w10_SJ1_U_1.pdb
 29 28 0 0 0
SMALL
GASTEIGER

@<TRIPOS>ATOM
      1  N1        34.0800    4.8240   27.4120 N.pl3 1245  SJ11245     0.1354
      2  C2        32.8460    4.4350   27.7720 C.cat 1245  SJ11245     0.5346
      3  N2        32.6280    3.1070   27.9330 N.pl3 1245  SJ11245     0.1354
      4  N3        31.9280    5.3870   27.9520 N.pl3 1245  SJ11245    -0.0865
      5  C3        30.6340    5.0910   28.3970 C.3   1245  SJ11245     0.2205
      6  C4        29.8170    6.4040   28.3990 C.3   1245  SJ11245     0.0492
      7  C5        28.3350    6.1510   28.7610 C.3   1245  SJ11245     0.0334
      8  C6        27.6410    7.5130   28.9680 C.3   1245  SJ11245     0.1597
      9  C7        26.1840    7.4370   29.0710 C.2   1245  SJ11245     0.2287
     10  O1        25.4310    8.3590   29.4320 O.2   1245  SJ11245    -0.2864
     11  N4        28.1330    8.1590   30.1550 N.am  1245  SJ11245    -0.1977
     12  C8        28.4260    9.4420   30.1350 C.2   1245  SJ11245     0.2616
     13  O2        28.3660   10.1580   29.1010 O.2   1245  SJ11245    -0.2715
     14  C9        28.8520   10.0870   31.3850 C.3   1245  SJ11245     0.1728
     15  C10       27.6270   10.8700   31.9120 C.3   1245  SJ11245     0.0334
     16  N5        29.8930   11.0170   31.1460 N.am  1245  SJ11245    -0.1963
     17  C11       31.1120   10.7280   30.7190 C.2   1245  SJ11245     0.2644
     18  O3        31.4080    9.5520   30.4560 O.2   1245  SJ11245    -0.2714
     19  C12       32.1030   11.7930   30.5570 C.3   1245  SJ11245     0.2088
     20  C13       32.8280   12.1470   31.8800 C.3   1245  SJ11245     0.2131
     21  O4        33.4680   10.9340   32.3030 O.3   1245  SJ11245    -0.2179
     22  N6        33.0810   11.3930   29.6090 N.am  1245  SJ11245    -0.1583
     23  C14       33.1830   11.8550   28.3880 C.2   1245  SJ11245     0.4216
     24  O5        34.1030   11.4360   27.6680 O.2   1245  SJ11245    -0.2246
     25  O6        32.3870   12.7000   27.9110 O.3   1245  SJ11245    -0.4335
     26  C15       32.5690   13.7200   27.0490 C.3   1245  SJ11245     0.2100
     27  C16       31.4140   13.7480   26.0070 C.3   1245  SJ11245     0.0439
     28  C17       31.8850   12.8950   24.7950 C.3   1245  SJ11245     0.0038
     29  C18       31.1320   15.1910   25.5150 C.3   1245  SJ11245     0.0038
@<TRIPOS>BOND
     1    28    27    1
     2    29    27    1
     3    27    26    1
     4    26    25    1
     5     1     2    1
     6    24    23    2
     7     2     3    1
     8     2     4    2
     9    25    23    1
    10     4     5    1
    11    23    22   am
    12     5     6    1
    13     6     7    1
    14     7     8    1
    15     8     9    1
    16     8    11    1
    17     9    10    2
    18    13    12    2
    19    22    19    1
    20    12    11   am
    21    12    14    1
    22    18    17    2
    23    19    17    1
    24    19    20    1
    25    17    16   am
    26    16    14    1
    27    14    15    1
    28    20    21    1
