@<TRIPOS>MOLECULE
1w11_SK1_U_1.pdb
 32 33 0 0 0
SMALL
GASTEIGER

@<TRIPOS>ATOM
      1  N3        28.4620    8.1490   29.6750 N.am  1247  SK11247    -0.1991
      2  N5        34.2760    4.7210   26.7910 N.pl3 1247  SK11247     0.2047
      3  C18       33.1130    4.2970   27.3250 C.2   1247  SK11247     0.4766
      4  N4        33.0430    2.9720   27.5180 N.pl3 1247  SK11247     0.2047
      5  C14       32.0250    5.1160   27.6680 C.ar  1247  SK11247     0.0975
      6  C13       31.9470    6.4710   27.3000 C.ar  1247  SK11247     0.0077
      7  C12       30.7480    7.1680   27.5350 C.ar  1247  SK11247    -0.0023
      8  C17       29.6660    6.5930   28.2340 C.ar  1247  SK11247    -0.0006
      9  C16       29.8080    5.2800   28.6940 C.ar  1247  SK11247    -0.0023
     10  C15       30.9620    4.5500   28.4020 C.ar  1247  SK11247     0.0077
     11  C11       28.3800    7.3430   28.4950 C.3   1247  SK11247     0.1415
     12  C10       28.8020    9.4820   29.6000 C.2   1247  SK11247     0.2615
     13  O5        29.0000   10.0970   28.5810 O.2   1247  SK11247    -0.2715
     14  C8        28.9360   10.1550   30.9410 C.3   1247  SK11247     0.1728
     15  N2        29.9270   11.1780   30.9750 N.am  1247  SK11247    -0.1965
     16  C7        31.2390   10.8040   30.7810 C.2   1247  SK11247     0.2622
     17  O4        31.5510    9.6390   30.6300 O.2   1247  SK11247    -0.2717
     18  C5        32.2790   11.9060   30.7370 C.3   1247  SK11247     0.2075
     19  C6        33.0280   12.0850   32.0660 C.3   1247  SK11247     0.2106
     20  O3        32.0730   12.0210   33.0980 O.3   1247  SK11247    -0.2182
     21  N1        33.3060   11.6510   29.7850 N.3   1247  SK11247    -0.0711
     22  S1        33.2070   11.7830   28.1520 S.O2  1247  SK11247     0.0621
     23  O1        34.5830   11.5010   27.7120 O.2   1247  SK11247    -0.1558
     24  O2        32.7600   13.1350   27.9210 O.2   1247  SK11247    -0.1558
     25  C1        31.9210   10.6550   27.5940 C.3   1247  SK11247     0.1969
     26  C4        31.8740   10.9070   26.1030 C.ar  1247  SK11247     0.0030
     27  C19       32.5730   10.0880   25.2100 C.ar  1247  SK11247    -0.0025
     28  C20       32.6790   10.5110   23.8830 C.ar  1247  SK11247    -0.0003
     29  C21       32.1010   11.7150   23.4590 C.ar  1247  SK11247    -0.0000
     30  C2        31.3260   12.4830   24.3410 C.ar  1247  SK11247    -0.0003
     31  C3        31.1300   12.0100   25.6470 C.ar  1247  SK11247    -0.0025
     32  C22       27.6060   10.7720   31.3850 C.3   1247  SK11247     0.0334
@<TRIPOS>BOND
     1    29    28   ar
     2    29    30   ar
     3    28    27   ar
     4    30    31   ar
     5    27    26   ar
     6    31    26   ar
     7    26    25    1
     8     2     3    2
     9     6     7   ar
    10     6     5   ar
    11     3     4    1
    12     3     5    1
    13     7     8   ar
    14    25    22    1
    15     5    10   ar
    16    23    22    2
    17    24    22    2
    18    22    21    1
    19     8    11    1
    20     8     9   ar
    21    10     9   ar
    22    11     1    1
    23    13    12    2
    24    12     1   am
    25    12    14    1
    26    21    18    1
    27    17    16    2
    28    18    16    1
    29    18    19    1
    30    16    15   am
    31    14    15    1
    32    14    32    1
    33    19    20    1
