@<TRIPOS>MOLECULE
1w12_SL1_U_1.pdb
 43 46 0 0 0
SMALL
GASTEIGER

@<TRIPOS>ATOM
      1  N1        25.2970   17.0840   56.2410 N.3   1245  SL11245    -0.0487
      2  C1        25.7400   18.3280   55.5940 C.3   1245  SL11245     0.2751
      3  C2        24.6880   19.3460   55.7260 C.2   1245  SL11245     0.2709
      4  O1        23.6040   18.9760   56.1720 O.2   1245  SL11245    -0.2708
      5  N2        24.8680   20.6180   55.3640 N.am  1245  SL11245    -0.2468
      6  C3        23.7650   21.5460   55.4330 C.3   1245  SL11245     0.1850
      7  C4        22.7580   21.3020   54.3980 C.2   1245  SL11245     0.2623
      8  O3        23.1740   20.7550   53.3500 O.2   1245  SL11245    -0.2715
      9  N3        21.4840   21.6480   54.5870 N.am  1245  SL11245    -0.1977
     10  C5        20.5970   21.5530   53.4700 C.3   1245  SL11245     0.1597
     11  C6        20.1560   22.8210   52.9340 C.2   1245  SL11245     0.2287
     12  O2        20.9390   23.7770   52.8400 O.2   1245  SL11245    -0.2864
     13  C7        26.0870   21.0540   54.8980 C.ar  1245  SL11245     0.0558
     14  C9        26.8440   20.3180   53.9050 C.ar  1245  SL11245     0.0310
     15  C8        26.4380   19.0750   53.3570 C.2   1245  SL11245     0.0793
     16  N4        25.9780   18.1710   54.1970 N.2   1245  SL11245    -0.2441
     17  C10       26.5200   18.8070   51.9650 C.ar  1245  SL11245     0.0173
     18  C11       26.1530   19.7670   50.9590 C.ar  1245  SL11245     0.0015
     19  C12       26.2890   19.5250   49.5700 C.ar  1245  SL11245     0.0000
     20  C13       26.7620   18.2500   49.1270 C.ar  1245  SL11245     0.0000
     21  C14       27.1390   17.2520   50.0760 C.ar  1245  SL11245     0.0000
     22  C15       26.9870   17.5470   51.4570 C.ar  1245  SL11245     0.0015
     23  C16       28.0740   20.8980   53.4690 C.ar  1245  SL11245     0.0027
     24  C17       28.5570   22.1390   53.9610 C.ar  1245  SL11245     0.0001
     25  C18       27.8390   22.8070   54.9830 C.ar  1245  SL11245     0.0013
     26  C19       26.6000   22.2800   55.4260 C.ar  1245  SL11245     0.0150
     27  C20       19.2740   20.7470   53.7080 C.3   1245  SL11245     0.0334
     28  C21       19.6870   19.3040   54.1100 C.3   1245  SL11245     0.0492
     29  C22       18.5020   18.4070   54.5370 C.3   1245  SL11245     0.2205
     30  N5        18.9480   17.0250   54.4910 N.pl3 1245  SL11245    -0.0865
     31  C23       18.1210   16.0090   54.8330 C.cat 1245  SL11245     0.5346
     32  N6        16.8230   16.2240   55.1810 N.pl3 1245  SL11245     0.1354
     33  N7        18.5150   14.7280   54.8560 N.pl3 1245  SL11245     0.1354
     34  S         26.5140   16.3840   57.1650 S.O2  1245  SL11245     0.0638
     35  O4        27.8300   16.7990   56.4970 O.2   1245  SL11245    -0.1557
     36  O5        26.3280   14.9000   57.0820 O.2   1245  SL11245    -0.1557
     37  C24       26.6830   16.7860   58.8660 C.3   1245  SL11245     0.1970
     38  C25       26.7880   18.2650   58.8010 C.ar  1245  SL11245     0.0030
     39  C26       27.9640   18.9690   58.3960 C.ar  1245  SL11245    -0.0025
     40  C27       28.0420   20.3970   58.3760 C.ar  1245  SL11245    -0.0003
     41  C28       26.8990   21.1280   58.7920 C.ar  1245  SL11245    -0.0000
     42  C29       25.6810   20.4620   59.1180 C.ar  1245  SL11245    -0.0003
     43  C30       25.6610   19.0430   59.1550 C.ar  1245  SL11245    -0.0025
@<TRIPOS>BOND
     1    20    19   ar
     2    20    21   ar
     3    19    18   ar
     4    21    22   ar
     5    18    17   ar
     6    22    17   ar
     7    17    15    1
     8    12    11    2
     9    11    10    1
    10     8     7    2
    11    15    14    1
    12    15    16    2
    13    23    14   ar
    14    23    24   ar
    15    10    27    1
    16    10     9    1
    17    27    28    1
    18    14    13   ar
    19    24    25   ar
    20    28    29    1
    21    16     2    1
    22     7     9   am
    23     7     6    1
    24    30    29    1
    25    30    31    2
    26    31    33    1
    27    31    32    1
    28    13     5    1
    29    13    26   ar
    30    25    26   ar
    31     5     6    1
    32     5     3   am
    33     2     3    1
    34     2     1    1
    35     3     4    2
    36     1    34    1
    37    35    34    2
    38    36    34    2
    39    34    37    1
    40    40    39   ar
    41    40    41   ar
    42    39    38   ar
    43    41    42   ar
    44    38    37    1
    45    38    43   ar
    46    42    43   ar
