@<TRIPOS>MOLECULE
1w13_SM1_U_1.pdb
 33 34 0 0 0
SMALL
GASTEIGER

@<TRIPOS>ATOM
      1  N6        35.2150    4.5230   27.3340 N.pl3 1245  SM11245     0.1358
      2  C18       33.8740    4.5620   27.5210 C.cat 1245  SM11245     0.5393
      3  N5        33.2280    3.3910   27.5790 N.pl3 1245  SM11245     0.1358
      4  N4        33.2140    5.7360   27.6500 N.pl3 1245  SM11245    -0.0605
      5  C14       31.9150    6.0040   27.9610 C.ar  1245  SM11245     0.1592
      6  C13       31.2870    7.0540   27.2660 C.ar  1245  SM11245     0.0368
      7  C12       30.0050    7.4920   27.6570 C.ar  1245  SM11245     0.0005
      8  C17       29.3460    6.8600   28.7290 C.ar  1245  SM11245    -0.0004
      9  C16       29.9450    5.7410   29.3510 C.ar  1245  SM11245     0.0005
     10  C15       31.2040    5.2770   28.9450 C.ar  1245  SM11245     0.0368
     11  C11       28.0340    7.3360   29.2240 C.3   1245  SM11245     0.1415
     12  N3        28.1660    8.2190   30.3150 N.am  1245  SM11245    -0.1991
     13  C10       28.4450    9.5010   30.1970 C.2   1245  SM11245     0.2615
     14  O5        28.5460   10.0700   29.1000 O.2   1245  SM11245    -0.2715
     15  C8        28.6590   10.3160   31.3940 C.3   1245  SM11245     0.1728
     16  C22       27.4340   11.2240   31.6640 C.3   1245  SM11245     0.0334
     17  N2        29.7590   11.1820   31.2470 N.am  1245  SM11245    -0.1965
     18  C7        31.0080   10.8900   30.9890 C.2   1245  SM11245     0.2622
     19  C5        32.0080   11.9490   30.8560 C.3   1245  SM11245     0.2075
     20  C6        32.7220   12.2720   32.1990 C.3   1245  SM11245     0.2106
     21  O3        31.7500   12.5830   33.2100 O.3   1245  SM11245    -0.2182
     22  N1        33.1030   11.5940   29.9160 N.3   1245  SM11245    -0.0711
     23  O4        31.3520    9.7150   30.8480 O.2   1245  SM11245    -0.2717
     24  O2        32.3880   13.3910   28.0760 O.2   1245  SM11245    -0.1558
     25  S1        32.8660   11.9360   28.2830 S.O2  1245  SM11245     0.0621
     26  O1        34.2430   11.6550   27.6120 O.2   1245  SM11245    -0.1558
     27  C1        31.6480   10.8760   27.6040 C.3   1245  SM11245     0.1969
     28  C4        31.4700   11.0880   26.1490 C.ar  1245  SM11245     0.0030
     29  C19       32.2100   10.3160   25.2160 C.ar  1245  SM11245    -0.0025
     30  C20       32.0930   10.5360   23.8260 C.ar  1245  SM11245    -0.0003
     31  C21       31.1900   11.5140   23.3590 C.ar  1245  SM11245    -0.0000
     32  C2        30.4040   12.2470   24.2780 C.ar  1245  SM11245    -0.0003
     33  C3        30.5650   12.0620   25.6730 C.ar  1245  SM11245    -0.0025
@<TRIPOS>BOND
     1    31    30   ar
     2    31    32   ar
     3    30    29   ar
     4    32    33   ar
     5    29    28   ar
     6    33    28   ar
     7    28    27    1
     8     6     7   ar
     9     6     5   ar
    10     1     2    1
    11     2     3    1
    12     2     4    2
    13    27    25    1
    14    26    25    2
    15     4     5    1
    16     7     8   ar
    17     5    10   ar
    18    24    25    2
    19    25    22    1
    20     8    11    1
    21     8     9   ar
    22    10     9   ar
    23    14    13    2
    24    11    12    1
    25    22    19    1
    26    13    12   am
    27    13    15    1
    28    23    18    2
    29    19    18    1
    30    19    20    1
    31    18    17   am
    32    17    15    1
    33    15    16    1
    34    20    21    1
