@<TRIPOS>MOLECULE
1w14_SH1_U_1.pdb
 33 33 0 0 0
SMALL
GASTEIGER

@<TRIPOS>ATOM
      1  C1        32.7040   12.0000   27.3830 C.3   1300  SH11300     0.1752
      2  C2        32.7350   12.9370   26.1960 C.3   1300  SH11300     0.0534
      3  C3        33.6190   12.4380   25.0570 C.ar  1300  SH11300    -0.0204
      4  C4        33.2190   11.3510   24.2740 C.ar  1300  SH11300    -0.0042
      5  C5        34.8320   13.0800   24.7990 C.ar  1300  SH11300    -0.0042
      6  C6        33.9910   10.9560   23.1850 C.ar  1300  SH11300    -0.0003
      7  C7        35.5850   12.6790   23.7080 C.ar  1300  SH11300    -0.0003
      8  C8        35.1660   11.6370   22.8950 C.ar  1300  SH11300    -0.0000
      9  S1        33.9890   12.3310   28.5990 S.O2  1300  SH11300     0.0581
     10  O1        35.6470   11.8470   28.2450 O.2   1300  SH11300    -0.1561
     11  O2        34.0560   14.0560   28.9730 O.2   1300  SH11300    -0.1561
     12  N1        33.5470   11.4050   30.0130 N.3   1300  SH11300    -0.0714
     13  C9        32.4610   11.9220   30.7860 C.3   1300  SH11300     0.2074
     14  C10       33.1480   12.2830   32.0940 C.3   1300  SH11300     0.2106
     15  O3        33.8480   11.1250   32.5350 O.3   1300  SH11300    -0.2182
     16  C11       31.4270   10.8060   30.8860 C.2   1300  SH11300     0.2622
     17  O4        31.7310    9.6360   30.5900 O.2   1300  SH11300    -0.2717
     18  N2        30.2100   11.1610   31.3020 N.am  1300  SH11300    -0.1965
     19  C12       29.1480   10.2120   31.4990 C.3   1300  SH11300     0.1728
     20  C13       27.9950   10.9430   32.1380 C.3   1300  SH11300     0.0334
     21  C14       28.7610    9.5930   30.1500 C.2   1300  SH11300     0.2612
     22  O5        28.7030   10.2590   29.0860 O.2   1300  SH11300    -0.2715
     23  N3        28.5020    8.2860   30.2400 N.am  1300  SH11300    -0.2031
     24  C15       28.0250    7.5620   29.0730 C.3   1300  SH11300     0.1283
     25  C16       28.7440    6.2450   28.8480 C.3   1300  SH11300     0.0281
     26  C17       30.2290    6.4680   28.6670 C.3   1300  SH11300     0.0488
     27  C18       30.8540    5.1510   28.3070 C.3   1300  SH11300     0.2205
     28  N4        32.2470    5.4100   28.0420 N.pl3 1300  SH11300    -0.0865
     29  C19       33.1520    4.4440   27.8860 C.cat 1300  SH11300     0.5346
     30  N5        32.8260    3.1440   27.9710 N.pl3 1300  SH11300     0.1354
     31  N6        34.4110    4.8090   27.6420 N.pl3 1300  SH11300     0.1354
     32  C20       26.5090    7.3490   29.1840 C.3   1300  SH11300     0.2036
     33  O6        25.8170    8.5400   29.5650 O.3   1300  SH11300    -0.2185
@<TRIPOS>BOND
     1     8     6   ar
     2     8     7   ar
     3     6     4   ar
     4     7     5   ar
     5     4     3   ar
     6     5     3   ar
     7     3     2    1
     8     2     1    1
     9     1     9    1
    10    31    29    1
    11    29    30    1
    12    29    28    2
    13    28    27    1
    14    10     9    2
    15    27    26    1
    16     9    11    2
    17     9    12    1
    18    26    25    1
    19    25    24    1
    20    24    32    1
    21    24    23    1
    22    22    21    2
    23    32    33    1
    24    12    13    1
    25    21    23   am
    26    21    19    1
    27    17    16    2
    28    13    16    1
    29    13    14    1
    30    16    18   am
    31    18    19    1
    32    19    20    1
    33    14    15    1
