@<TRIPOS>MOLECULE
1w19_T4P_D_1.pdb
 29 30 0 0 0
SMALL
GASTEIGER

@<TRIPOS>ATOM
      1  O33        4.9930  -15.3610   15.7180 O.2   1163  T4P1163    -0.2224
      2  P          5.7500  -16.1210   16.7690 P.3   1163  T4P1163     0.5326
      3  O31        5.2800  -17.5040   17.0650 O.3   1163  T4P1163    -0.1145
      4  O32        7.2240  -15.9750   16.7720 O.3   1163  T4P1163    -0.1145
      5  O27        5.3910  -15.3030   18.1210 O.3   1163  T4P1163    -0.2702
      6  C17        5.9820  -14.0200   18.3520 C.3   1163  T4P1163     0.1555
      7  C16        5.4180  -13.4310   19.6350 C.3   1163  T4P1163     0.0543
      8  C15        6.0450  -14.2790   20.7070 C.3   1163  T4P1163     0.0990
      9  N5         5.4770  -14.1540   22.0330 N.am  1163  T4P1163    -0.2437
     10  C6         4.5300  -14.9080   22.6230 C.2   1163  T4P1163     0.3137
     11  O6         3.9060  -15.8690   22.0590 O.2   1163  T4P1163    -0.2519
     12  C9         5.8470  -13.3210   22.9920 C.3   1163  T4P1163     0.2651
     13  C4         6.7940  -12.2070   23.1560 C.1   1163  T4P1163     0.2198
     14  O4         7.5320  -11.8630   22.2030 O.2   1163  T4P1163    -0.2112
     15  N3         6.8520  -11.5950   24.3510 N.2   1163  T4P1163    -0.2349
     16  C2         6.0640  -11.9100   25.4160 C.1   1163  T4P1163     0.3663
     17  O2         6.1870  -11.2780   26.4890 O.2   1163  T4P1163    -0.1745
     18  C8         5.0230  -13.6310   24.1640 C.2   1163  T4P1163     0.2182
     19  N1         5.1760  -12.9020   25.3790 N.2   1163  T4P1163    -0.2938
     20  N7         4.2180  -14.6390   23.8770 N.am  1163  T4P1163    -0.2159
     21  C10        3.1940  -15.3990   24.5440 C.3   1163  T4P1163     0.1375
     22  C11        2.9880  -15.0500   25.9740 C.3   1163  T4P1163     0.2049
     23  O19        2.4310  -13.7370   26.1760 O.3   1163  T4P1163    -0.2185
     24  C12        2.3290  -16.2870   26.5830 C.3   1163  T4P1163     0.2166
     25  O21        2.2720  -16.0030   27.9390 O.3   1163  T4P1163    -0.2175
     26  C13        1.1210  -17.0800   25.9670 C.3   1163  T4P1163     0.2175
     27  O23        0.2570  -16.4390   25.0360 O.3   1163  T4P1163    -0.2175
     28  C14        0.2930  -17.7940   27.0500 C.3   1163  T4P1163     0.2175
     29  O26       -0.6710  -16.9430   27.6680 O.3   1163  T4P1163    -0.2175
@<TRIPOS>BOND
     1     1     2    2
     2     2     4    1
     3     2     3    1
     4     2     5    1
     5     5     6    1
     6     6     7    1
     7     7     8    1
     8     8     9    1
     9     9    10   am
    10     9    12    1
    11    11    10    2
    12    14    13    2
    13    10    20   am
    14    12    13    1
    15    12    18    1
    16    13    15    2
    17    20    18    1
    18    20    21    1
    19    18    19    2
    20    15    16    2
    21    21    22    1
    22    27    26    1
    23    19    16    2
    24    16    17    2
    25    26    24    1
    26    26    28    1
    27    22    23    1
    28    22    24    1
    29    24    25    1
    30    28    29    1
