@<TRIPOS>MOLECULE
1w19_T2P_B_1.pdb
 29 30 0 0 0
SMALL
GASTEIGER

@<TRIPOS>ATOM
      1  O33       -5.3910   13.3380    9.0510 O.3   1163  T2P1163    -0.1145
      2  P         -6.1490   14.6280    9.1500 P.3   1163  T2P1163     0.5326
      3  O31       -5.5940   15.6030   10.1380 O.3   1163  T2P1163    -0.1145
      4  O32       -6.4760   15.2520    7.8360 O.2   1163  T2P1163    -0.2224
      5  O27       -7.5950   14.2590    9.7900 O.3   1163  T2P1163    -0.2702
      6  C17       -8.4940   13.3480    9.1460 C.3   1163  T2P1163     0.1555
      7  C16       -9.6890   13.0570   10.0490 C.3   1163  T2P1163     0.0543
      8  C15      -10.4030   14.3740   10.1910 C.3   1163  T2P1163     0.0990
      9  N5       -11.4140   14.4610   11.2280 N.am  1163  T2P1163    -0.2437
     10  C6       -11.2530   14.8350   12.5080 C.2   1163  T2P1163     0.3137
     11  O6       -10.0900   15.0880   12.9990 O.2   1163  T2P1163    -0.2519
     12  C9       -12.7320   14.3020   11.1080 C.3   1163  T2P1163     0.2651
     13  C4       -13.7170   13.9420   10.0630 C.1   1163  T2P1163     0.2198
     14  O4       -13.3170   13.6820    8.9090 O.2   1163  T2P1163    -0.2112
     15  N3       -15.0230   13.8930   10.3760 N.2   1163  T2P1163    -0.2349
     16  C2       -15.5080   14.1440   11.6150 C.1   1163  T2P1163     0.3663
     17  O2       -16.7360   14.0690   11.8150 O.2   1163  T2P1163    -0.1745
     18  C8       -13.3090   14.5760   12.4160 C.2   1163  T2P1163     0.2182
     19  N1       -14.7210   14.4880   12.6410 N.2   1163  T2P1163    -0.2938
     20  N7       -12.3530   14.8790   13.2720 N.am  1163  T2P1163    -0.2159
     21  C10      -12.3840   15.3160   14.6440 C.3   1163  T2P1163     0.1375
     22  C11      -13.1800   14.6380   15.7510 C.3   1163  T2P1163     0.2049
     23  O19      -14.4500   14.1160   15.3720 O.3   1163  T2P1163    -0.2185
     24  C12      -13.1840   15.8560   16.6870 C.3   1163  T2P1163     0.2166
     25  O21      -14.4980   16.3200   16.9600 O.3   1163  T2P1163    -0.2175
     26  C13      -12.2490   15.7260   17.8920 C.3   1163  T2P1163     0.2175
     27  O23      -11.1490   14.8730   17.6020 O.3   1163  T2P1163    -0.2175
     28  C14      -12.9630   15.1780   19.1060 C.3   1163  T2P1163     0.2175
     29  O26      -12.9750   16.1670   20.0970 O.3   1163  T2P1163    -0.2175
@<TRIPOS>BOND
     1     4     2    2
     2    14    13    2
     3     1     2    1
     4     6     5    1
     5     6     7    1
     6     2     5    1
     7     2     3    1
     8     7     8    1
     9    13    15    2
    10    13    12    1
    11     8     9    1
    12    15    16    2
    13    12     9    1
    14    12    18    1
    15     9    10   am
    16    16    17    2
    17    16    19    2
    18    18    19    2
    19    18    20    1
    20    10    11    2
    21    10    20   am
    22    20    21    1
    23    21    22    1
    24    23    22    1
    25    22    24    1
    26    24    25    1
    27    24    26    1
    28    27    26    1
    29    26    28    1
    30    28    29    1
