@<TRIPOS>MOLECULE
1w19_T1P_A_1.pdb
 29 30 0 0 0
SMALL
GASTEIGER

@<TRIPOS>ATOM
      1  O33      -17.4770    0.5530    1.1680 O.3   1163  T1P1163    -0.1145
      2  P        -18.9660    0.4110    0.8970 P.3   1163  T1P1163     0.5326
      3  O31      -19.7570    1.6730    0.9800 O.3   1163  T1P1163    -0.1145
      4  O32      -19.3520   -0.5050   -0.2010 O.2   1163  T1P1163    -0.2224
      5  O27      -19.5000   -0.4350    2.1890 O.3   1163  T1P1163    -0.2702
      6  C17      -19.3100   -1.8580    2.2550 C.3   1163  T1P1163     0.1555
      7  C16      -20.0290   -2.4320    3.4600 C.3   1163  T1P1163     0.0543
      8  C15      -21.4850   -2.2260    3.1370 C.3   1163  T1P1163     0.0990
      9  N5       -22.3480   -2.5010    4.2550 N.am  1163  T1P1163    -0.2437
     10  C6       -22.9420   -1.6340    5.1010 C.2   1163  T1P1163     0.3137
     11  O6       -22.7710   -0.3700    5.0140 O.2   1163  T1P1163    -0.2519
     12  C9       -22.7880   -3.6730    4.6460 C.3   1163  T1P1163     0.2651
     13  C4       -22.6440   -5.0880    4.2710 C.1   1163  T1P1163     0.2198
     14  O4       -21.9240   -5.4200    3.3230 O.2   1163  T1P1163    -0.2112
     15  N3       -23.3030   -6.0020    4.9620 N.2   1163  T1P1163    -0.2349
     16  C2       -24.1040   -5.7250    6.0000 C.1   1163  T1P1163     0.3663
     17  O2       -24.6950   -6.6370    6.6100 O.2   1163  T1P1163    -0.1745
     18  C8       -23.6730   -3.4220    5.7740 C.2   1163  T1P1163     0.2182
     19  N1       -24.3060   -4.4980    6.4280 N.2   1163  T1P1163    -0.2938
     20  N7       -23.7580   -2.1330    6.0360 N.am  1163  T1P1163    -0.2159
     21  C10      -24.4470   -1.3300    7.0320 C.3   1163  T1P1163     0.1375
     22  C11      -25.2250   -2.0370    8.1150 C.3   1163  T1P1163     0.2049
     23  O19      -24.5100   -2.9970    8.8770 O.3   1163  T1P1163    -0.2185
     24  C12      -25.8950   -1.0860    9.0850 C.3   1163  T1P1163     0.2166
     25  O21      -27.2470   -1.4340    8.8780 O.3   1163  T1P1163    -0.2175
     26  C13      -25.7170    0.4320    8.9380 C.3   1163  T1P1163     0.2175
     27  O23      -24.4270    0.8950    9.3190 O.3   1163  T1P1163    -0.2175
     28  C14      -26.7290    1.1320    9.8430 C.3   1163  T1P1163     0.2175
     29  O26      -26.5340    0.7240   11.1870 O.3   1163  T1P1163    -0.2175
@<TRIPOS>BOND
     1     4     2    2
     2     2     3    1
     3     2     1    1
     4     2     5    1
     5     5     6    1
     6     6     7    1
     7     8     7    1
     8     8     9    1
     9    14    13    2
    10     9    12    1
    11     9    10   am
    12    13    12    1
    13    13    15    2
    14    12    18    1
    15    15    16    2
    16    11    10    2
    17    10    20   am
    18    18    20    1
    19    18    19    2
    20    16    19    2
    21    16    17    2
    22    20    21    1
    23    21    22    1
    24    22    23    1
    25    22    24    1
    26    25    24    1
    27    26    24    1
    28    26    27    1
    29    26    28    1
    30    28    29    1
