@<TRIPOS>MOLECULE
1w19_T5P_C_1.pdb
 29 30 0 0 0
SMALL
GASTEIGER

@<TRIPOS>ATOM
      1  O33        8.4370    3.4140   17.9190 O.2   1162  T5P1162    -0.2224
      2  P          9.1260    4.2720   18.9640 P.3   1162  T5P1162     0.5326
      3  O31        9.8590    3.5260   20.0250 O.3   1162  T5P1162    -0.1145
      4  O32        9.9030    5.4230   18.4690 O.3   1162  T5P1162    -0.1145
      5  O27        7.8610    4.9250   19.7360 O.3   1162  T5P1162    -0.2702
      6  C17        7.1230    6.0080   19.1550 C.3   1162  T5P1162     0.1555
      7  C16        6.0200    6.4130   20.1140 C.3   1162  T5P1162     0.0543
      8  C15        6.7140    6.8570   21.3730 C.3   1162  T5P1162     0.0990
      9  N5         5.8800    7.2950   22.4860 N.am  1162  T5P1162    -0.2437
     10  C6         5.8280    6.7180   23.7180 C.2   1162  T5P1162     0.3137
     11  O6         6.4940    5.6500   24.0200 O.2   1162  T5P1162    -0.2519
     12  C9         5.0740    8.3570   22.5730 C.3   1162  T5P1162     0.2651
     13  C4         4.5590    9.4980   21.7650 C.1   1162  T5P1162     0.2198
     14  O4         4.9210    9.6860   20.5780 O.2   1162  T5P1162    -0.2112
     15  N3         3.7090   10.3660   22.3310 N.2   1162  T5P1162    -0.2349
     16  C2         3.2580   10.2730   23.6010 C.1   1162  T5P1162     0.3663
     17  O2         2.4550   11.1080   24.0710 O.2   1162  T5P1162    -0.1745
     18  C8         4.5520    8.3180   23.9320 C.2   1162  T5P1162     0.2182
     19  N1         3.6470    9.3030   24.4100 N.2   1162  T5P1162    -0.2938
     20  N7         5.0090    7.2780   24.6200 N.am  1162  T5P1162    -0.2159
     21  C10        4.8280    6.9450   26.0160 C.3   1162  T5P1162     0.1375
     22  C11        3.4770    6.4700   26.4960 C.3   1162  T5P1162     0.2049
     23  O19        2.4630    7.4320   26.2850 O.3   1162  T5P1162    -0.2185
     24  C12        3.6070    6.1920   27.9930 C.3   1162  T5P1162     0.2166
     25  O21        4.1350    7.3090   28.6920 O.3   1162  T5P1162    -0.2175
     26  C13        4.4900    4.9970   28.2990 C.3   1162  T5P1162     0.2175
     27  O23        4.0790    3.8890   27.5180 O.3   1162  T5P1162    -0.2175
     28  C14        4.3930    4.6470   29.7790 C.3   1162  T5P1162     0.2175
     29  O26        3.0420    4.4400   30.1440 O.3   1162  T5P1162    -0.2175
@<TRIPOS>BOND
     1     1     2    2
     2     4     2    1
     3     2     5    1
     4     2     3    1
     5     6     5    1
     6     6     7    1
     7     7     8    1
     8    14    13    2
     9     8     9    1
    10    13    15    2
    11    13    12    1
    12    15    16    2
    13     9    12    1
    14     9    10   am
    15    12    18    1
    16    16    17    2
    17    16    19    2
    18    10    11    2
    19    10    20   am
    20    18    19    2
    21    18    20    1
    22    20    21    1
    23    21    22    1
    24    23    22    1
    25    22    24    1
    26    27    26    1
    27    24    26    1
    28    24    25    1
    29    26    28    1
    30    28    29    1
