@<TRIPOS>MOLECULE
1w1a_NDG_1_1.pdb
 15 15 0 0 0
SMALL
GASTEIGER

@<TRIPOS>ATOM
      1  C1        72.6990   17.9180    2.7900 C.3   1261  NDG1261     0.2917
      2  C2        71.6000   18.9760    2.9020 C.3   1261  NDG1261     0.1871
      3  C3        70.5640   18.4410    3.8800 C.3   1261  NDG1261     0.2095
      4  C4        69.9870   17.1120    3.3340 C.3   1261  NDG1261     0.2136
      5  C5        71.1050   16.1070    2.9590 C.3   1261  NDG1261     0.1835
      6  C6        70.5520   14.9640    2.1220 C.3   1261  NDG1261     0.2142
      7  C7        72.1770   21.2810    2.5080 C.2   1261  NDG1261     0.2421
      8  C8        73.1300   22.4150    2.8470 C.3   1261  NDG1261     0.0964
      9  O         72.1530   16.7370    2.1710 O.3   1261  NDG1261    -0.3242
     10  O3        69.5360   19.4010    4.0700 O.3   1261  NDG1261    -0.2183
     11  O4        69.1470   16.5110    4.3130 O.3   1261  NDG1261    -0.2176
     12  O6        69.7170   15.4540    1.0750 O.3   1261  NDG1261    -0.2176
     13  O7        71.4880   21.3480    1.4880 O.2   1261  NDG1261    -0.2733
     14  N2        72.1350   20.2490    3.3480 N.am  1261  NDG1261    -0.1991
     15  O1L       73.1400   17.5740    4.0640 O.3   1261  NDG1261    -0.1879
@<TRIPOS>BOND
     1    12     6    1
     2    13     7    2
     3     6     5    1
     4     9     1    1
     5     9     5    1
     6     7     8    1
     7     7    14   am
     8     1     2    1
     9     1    15    1
    10     2    14    1
    11     2     3    1
    12     5     4    1
    13     4     3    1
    14     4    11    1
    15     3    10    1
