@<TRIPOS>MOLECULE
1w1d_4IP_A_1.pdb
 28 28 0 0 0
SMALL
GASTEIGER

@<TRIPOS>ATOM
      1  C1        11.0900   35.1680    6.1500 C.3   1552  4IP1552     0.1917
      2  O1        10.9840   36.5430    5.8770 O.3   1552  4IP1552    -0.2673
      3  C2        10.7920   34.8680    7.6300 C.3   1552  4IP1552     0.2120
      4  O2        11.8410   35.4460    8.4260 O.3   1552  4IP1552    -0.2177
      5  C3        10.8110   33.3430    7.7720 C.3   1552  4IP1552     0.1890
      6  O3        10.4540   33.0590    9.1420 O.3   1552  4IP1552    -0.2674
      7  C4        12.1940   32.8060    7.4700 C.3   1552  4IP1552     0.1865
      8  O4        12.1890   31.3620    7.5290 O.3   1552  4IP1552    -0.2675
      9  C5        12.5350   33.0910    5.9850 C.3   1552  4IP1552     0.1890
     10  O5        13.9370   32.7700    5.8920 O.3   1552  4IP1552    -0.2674
     11  C6        12.4670   34.6010    5.7420 C.3   1552  4IP1552     0.2120
     12  O6        12.6710   34.8450    4.3340 O.3   1552  4IP1552    -0.2177
     13  P1         9.6000   37.1370    5.2920 P.3   1552  4IP1552     0.5327
     14  O1P        9.3380   36.5010    3.9440 O.2   1552  4IP1552    -0.2224
     15  O2P        8.5000   36.7630    6.2360 O.3   1552  4IP1552    -0.1145
     16  O3P        9.9080   38.6070    5.1690 O.3   1552  4IP1552    -0.1145
     17  P3         9.1110   32.2990    9.4990 P.3   1552  4IP1552     0.5327
     18  O4P        9.3380   30.8450    8.8310 O.2   1552  4IP1552    -0.2224
     19  O5P        7.9320   32.9600    8.8440 O.3   1552  4IP1552    -0.1145
     20  O6P        9.1310   32.1910   10.9920 O.3   1552  4IP1552    -0.1145
     21  P4        12.6870   30.5350    8.8140 P.3   1552  4IP1552     0.5327
     22  O7P       13.4250   31.4790    9.8340 O.3   1552  4IP1552    -0.1145
     23  O8P       11.4720   29.8390    9.3540 O.3   1552  4IP1552    -0.1145
     24  O9P       13.7140   29.6300    8.2620 O.2   1552  4IP1552    -0.2224
     25  P5        14.6140   31.6250    5.0110 P.3   1552  4IP1552     0.5327
     26  OPF       13.5120   31.2560    4.0960 O.2   1552  4IP1552    -0.2224
     27  OPG       14.8480   30.5900    6.1290 O.3   1552  4IP1552    -0.1145
     28  OPH       15.8360   32.0400    4.3620 O.3   1552  4IP1552    -0.1145
@<TRIPOS>BOND
     1    14    13    2
     2    26    25    2
     3    12    11    1
     4    28    25    1
     5    25    10    1
     6    25    27    1
     7    16    13    1
     8    13     2    1
     9    13    15    1
    10    11     9    1
    11    11     1    1
    12     2     1    1
    13    10     9    1
    14     9     7    1
    15     1     3    1
    16     7     8    1
    17     7     5    1
    18     8    21    1
    19     3     5    1
    20     3     4    1
    21     5     6    1
    22    24    21    2
    23    21    23    1
    24    21    22    1
    25    18    17    2
    26    19    17    1
    27     6    17    1
    28    17    20    1
