@<TRIPOS>MOLECULE
1w1g_4PT_A_1.pdb
 33 33 0 0 0
SMALL
GASTEIGER

@<TRIPOS>ATOM
      1  O0F       11.5310   38.4930    0.4950 O.3   1550  4PT1550    -0.2175
      2  C0E       10.6780   37.4030    0.0720 C.3   1550  4PT1550     0.2174
      3  C0C        9.6760   37.1030    1.1870 C.3   1550  4PT1550     0.2146
      4  O0D        8.9630   35.9040    0.9030 O.3   1550  4PT1550    -0.2176
      5  C0B       10.3790   36.8950    2.5410 C.3   1550  4PT1550     0.1846
      6  OP1        9.3870   36.7360    3.5720 O.3   1550  4PT1550    -0.3112
      7  P1         9.6300   37.4190    4.9690 P.3   1550  4PT1550     0.2141
      8  OP3        8.3200   37.0290    5.8360 O.3   1550  4PT1550    -0.4373
      9  OP2        9.8570   38.8910    4.8680 O.2   1550  4PT1550    -0.5172
     10  O1        10.9320   36.7720    5.5690 O.3   1550  4PT1550    -0.3111
     11  C1        10.8780   35.3570    5.8410 C.3   1550  4PT1550     0.1872
     12  C2        10.5370   35.0660    7.3250 C.3   1550  4PT1550     0.2119
     13  O2        11.5220   35.6490    8.1940 O.3   1550  4PT1550    -0.2177
     14  C3        10.5860   33.5280    7.5490 C.3   1550  4PT1550     0.1890
     15  O3        10.3290   33.2360    8.9320 O.3   1550  4PT1550    -0.2674
     16  P3         8.9990   32.3560    9.1710 P.3   1550  4PT1550     0.5327
     17  O11        7.7630   33.1270    8.6190 O.3   1550  4PT1550    -0.1145
     18  O10        8.9080   32.3040   10.7820 O.3   1550  4PT1550    -0.1145
     19  O12        9.0770   31.0100    8.4850 O.2   1550  4PT1550    -0.2224
     20  C4        11.9580   32.9330    7.2070 C.3   1550  4PT1550     0.1865
     21  O4        11.9070   31.5000    7.2650 O.3   1550  4PT1550    -0.2675
     22  P4        12.4650   30.7320    8.6070 P.3   1550  4PT1550     0.5327
     23  OP5       11.1270   29.9890    9.0330 O.3   1550  4PT1550    -0.1145
     24  OP6       13.5520   29.7770    8.0170 O.2   1550  4PT1550    -0.2224
     25  OP4       13.1510   31.6880    9.5730 O.3   1550  4PT1550    -0.1145
     26  C5        12.3740   33.3010    5.7530 C.3   1550  4PT1550     0.1890
     27  O5        13.7360   32.9650    5.6540 O.3   1550  4PT1550    -0.2674
     28  P5        14.1580   31.5880    4.8630 P.3   1550  4PT1550     0.5327
     29  OP8       14.9470   30.7790    5.9970 O.3   1550  4PT1550    -0.1145
     30  OP7       15.3040   31.9520    3.8620 O.2   1550  4PT1550    -0.2224
     31  OP9       12.9410   30.8620    4.3870 O.3   1550  4PT1550    -0.1145
     32  C6        12.2340   34.7920    5.4920 C.3   1550  4PT1550     0.2119
     33  O6        12.4830   35.0130    4.0900 O.3   1550  4PT1550    -0.2177
@<TRIPOS>BOND
     1     2     1    1
     2     2     3    1
     3     4     3    1
     4     3     5    1
     5     5     6    1
     6     6     7    1
     7    30    28    2
     8    33    32    1
     9    31    28    1
    10    28    27    1
    11    28    29    1
    12     9     7    2
    13     7    10    1
    14     7     8    1
    15    32    26    1
    16    32    11    1
    17    10    11    1
    18    27    26    1
    19    26    20    1
    20    11    12    1
    21    20    21    1
    22    20    14    1
    23    21    22    1
    24    12    14    1
    25    12    13    1
    26    14    15    1
    27    24    22    2
    28    19    16    2
    29    22    23    1
    30    22    25    1
    31    17    16    1
    32    15    16    1
    33    16    18    1
