@<TRIPOS>MOLECULE
1w1i_MAN_A_1.pdb
 11 11 0 0 0
SMALL
GASTEIGER

@<TRIPOS>ATOM
      1  C1        15.7700   33.5900  129.2220 C.3   833  MAN833      0.1777
      2  C2        15.5110   33.9470  130.6870 C.3   833  MAN833      0.2141
      3  C3        16.0280   35.3220  131.1150 C.3   833  MAN833      0.2173
      4  C4        15.9790   36.3670  129.9970 C.3   833  MAN833      0.2142
      5  C5        16.4750   35.8020  128.6710 C.3   833  MAN833      0.1810
      6  C6        17.9580   35.3990  128.6220 C.3   833  MAN833      0.2141
      7  O2        16.1140   32.9860  131.5230 O.3   833  MAN833     -0.2176
      8  O3        17.3230   35.2120  131.6810 O.3   833  MAN833     -0.2175
      9  O4        14.6530   36.8210  129.7910 O.3   833  MAN833     -0.2176
     10  O5        15.6310   34.7130  128.3780 O.3   833  MAN833     -0.3481
     11  O6        18.8360   36.4700  128.9220 O.3   833  MAN833     -0.2176
@<TRIPOS>BOND
     1    10     5    1
     2    10     1    1
     3     6     5    1
     4     6    11    1
     5     5     4    1
     6     1     2    1
     7     9     4    1
     8     4     3    1
     9     2     3    1
    10     2     7    1
    11     3     8    1
