@<TRIPOS>MOLECULE
1w1i_BMA_A_1.pdb
 11 11 0 0 0
SMALL
GASTEIGER

@<TRIPOS>ATOM
      1  C1        16.4420   29.6370  127.0680 C.3   832  BMA832      0.1777
      2  C2        16.4820   30.8460  128.0040 C.3   832  BMA832      0.2141
      3  C3        15.1960   31.6430  127.7960 C.3   832  BMA832      0.2173
      4  C4        15.2510   32.1270  126.3420 C.3   832  BMA832      0.2142
      5  C5        15.0420   30.8730  125.4890 C.3   832  BMA832      0.1810
      6  C6        14.7310   31.1320  124.0040 C.3   832  BMA832      0.2141
      7  O2        17.6190   31.6100  127.6490 O.3   832  BMA832     -0.2176
      8  O3        14.8360   32.5600  128.8300 O.3   832  BMA832     -0.2175
      9  O4        14.3020   33.1180  126.0490 O.3   832  BMA832     -0.2176
     10  O5        16.1530   30.0050  125.7140 O.3   832  BMA832     -0.3481
     11  O6        15.8520   31.0930  123.1450 O.3   832  BMA832     -0.2176
@<TRIPOS>BOND
     1    11     6    1
     2     6     5    1
     3     5    10    1
     4     5     4    1
     5    10     1    1
     6     9     4    1
     7     4     3    1
     8     1     2    1
     9     7     2    1
    10     3     2    1
    11     3     8    1
