@<TRIPOS>MOLECULE
1w1j_EUG_A_1.pdb
 11 11 0 0 0
SMALL
GASTEIGER

@<TRIPOS>ATOM
      1  C1       110.3840   47.1330   70.5860 C.ar  1562  EUG1562     0.0032
      2  C2       109.8610   46.5370   69.4380 C.ar  1562  EUG1562     0.0402
      3  C3       108.6900   47.0280   68.8570 C.ar  1562  EUG1562     0.1774
      4  C4       107.9940   48.1810   69.4650 C.ar  1562  EUG1562     0.2293
      5  C5       108.5310   48.7630   70.6130 C.ar  1562  EUG1562     0.0452
      6  C6       109.7110   48.2360   71.1630 C.ar  1562  EUG1562     0.0035
      7  C7       111.6300   46.5850   71.1740 C.2   1562  EUG1562     0.0001
      8  C8       112.6010   47.3760   71.5920 C.2   1562  EUG1562     0.0000
      9  C9       109.0060   46.1380   66.6300 C.3   1562  EUG1562     0.2526
     10  O3       108.1700   46.4590   67.7380 O.3   1562  EUG1562    -0.4682
     11  O4       106.8850   48.6430   68.9070 O.3   1562  EUG1562    -0.2833
@<TRIPOS>BOND
     1     9    10    1
     2    10     3    1
     3     3     2   ar
     4     3     4   ar
     5    11     4    1
     6     2     1   ar
     7     4     5   ar
     8     1     6   ar
     9     1     7    1
    10     5     6   ar
    11     7     8    2
