@<TRIPOS>MOLECULE
1w1k_EUG_A_1.pdb
 11 11 0 0 0
SMALL
GASTEIGER

@<TRIPOS>ATOM
      1  C1       110.5490   47.2990   70.4630 C.ar  1562  EUG1562     0.0032
      2  C2       110.0750   46.7600   69.2570 C.ar  1562  EUG1562     0.0402
      3  C3       108.8710   47.2140   68.7120 C.ar  1562  EUG1562     0.1774
      4  C4       108.0950   48.2720   69.3940 C.ar  1562  EUG1562     0.2293
      5  C5       108.5940   48.7930   70.5910 C.ar  1562  EUG1562     0.0452
      6  C6       109.8020   48.3100   71.1070 C.ar  1562  EUG1562     0.0035
      7  C7       111.8360   46.7880   71.0290 C.2   1562  EUG1562     0.0001
      8  C8       112.7130   47.5600   71.6450 C.2   1562  EUG1562     0.0000
      9  C9       109.2850   45.9180   66.7730 C.3   1562  EUG1562     0.2526
     10  O3       108.3910   46.6960   67.5570 O.3   1562  EUG1562    -0.4682
     11  O4       106.9480   48.6910   68.8600 O.3   1562  EUG1562    -0.2833
@<TRIPOS>BOND
     1     9    10    1
     2    10     3    1
     3     3     2   ar
     4     3     4   ar
     5    11     4    1
     6     2     1   ar
     7     4     5   ar
     8     1     7    1
     9     1     6   ar
    10     5     6   ar
    11     7     8    2
