@<TRIPOS>MOLECULE
1w1l_EUG_A_1.pdb
 11 11 0 0 0
SMALL
GASTEIGER

@<TRIPOS>ATOM
      1  C1       110.7580   47.2340   70.5210 C.ar  1562  EUG1562     0.0032
      2  C2       110.1830   46.6010   69.4050 C.ar  1562  EUG1562     0.0402
      3  C3       108.9240   47.0090   68.9460 C.ar  1562  EUG1562     0.1774
      4  C4       108.1960   48.1030   69.6370 C.ar  1562  EUG1562     0.2293
      5  C5       108.7840   48.7140   70.7410 C.ar  1562  EUG1562     0.0452
      6  C6       110.0470   48.2740   71.1690 C.ar  1562  EUG1562     0.0035
      7  C7       112.0970   46.7840   70.9900 C.2   1562  EUG1562     0.0001
      8  C8       112.7950   47.4270   71.9060 C.2   1562  EUG1562     0.0000
      9  C9       108.6600   46.8040   66.5680 C.3   1562  EUG1562     0.2526
     10  O3       108.3510   46.3910   67.8850 O.3   1562  EUG1562    -0.4682
     11  O4       107.0040   48.4850   69.1980 O.3   1562  EUG1562    -0.2833
@<TRIPOS>BOND
     1     9    10    1
     2    10     3    1
     3     3     2   ar
     4     3     4   ar
     5    11     4    1
     6     2     1   ar
     7     4     5   ar
     8     1     7    1
     9     1     6   ar
    10     5     6   ar
    11     7     8    2
