@<TRIPOS>MOLECULE
1w1m_EUG_A_1.pdb
 11 11 0 0 0
SMALL
GASTEIGER

@<TRIPOS>ATOM
      1  C1       110.5780   47.3060   70.8530 C.ar  1562  EUG1562     0.0032
      2  C2       110.1690   46.7280   69.6490 C.ar  1562  EUG1562     0.0402
      3  C3       108.9620   47.0980   69.0560 C.ar  1562  EUG1562     0.1774
      4  C4       108.0880   48.1170   69.7050 C.ar  1562  EUG1562     0.2293
      5  C5       108.5270   48.6750   70.9010 C.ar  1562  EUG1562     0.0452
      6  C6       109.7470   48.2650   71.4580 C.ar  1562  EUG1562     0.0035
      7  C7       111.8800   46.9000   71.4710 C.2   1562  EUG1562     0.0001
      8  C8       112.9700   47.6500   71.3530 C.2   1562  EUG1562     0.0000
      9  C9       109.4960   46.3660   66.8030 C.3   1562  EUG1562     0.2526
     10  O3       108.5810   46.5190   67.8840 O.3   1562  EUG1562    -0.4682
     11  O4       106.9230   48.4900   69.1610 O.3   1562  EUG1562    -0.2833
@<TRIPOS>BOND
     1     9    10    1
     2    10     3    1
     3     3     2   ar
     4     3     4   ar
     5    11     4    1
     6     2     1   ar
     7     4     5   ar
     8     1     6   ar
     9     1     7    1
    10     5     6   ar
    11     8     7    2
