@<TRIPOS>MOLECULE
1w1p_GIO_A_1.pdb
 11 12 0 0 0
SMALL
GASTEIGER

@<TRIPOS>ATOM
      1  OP        15.9870   43.6500  101.1850 O.2   1518  GIO1518    -0.2254
      2  CP        16.9460   43.5230  101.9460 C.1   1518  GIO1518     0.1445
      3  CAP       17.3080   44.6340  102.9360 C.3   1518  GIO1518     0.1823
      4  CBP       17.0650   46.0150  102.3230 C.3   1518  GIO1518     0.0388
      5  CGP       17.8910   46.8710  103.2870 C.3   1518  GIO1518     0.0244
      6  CDP       19.2180   46.1080  103.3300 C.3   1518  GIO1518     0.0945
      7  NP        18.7570   44.7080  103.1820 N.am  1518  GIO1518    -0.2658
      8  C         19.5130   43.5290  103.1500 C.2   1518  GIO1518     0.2521
      9  O         20.7240   43.5790  103.3540 O.2   1518  GIO1518    -0.2726
     10  CA        18.8510   42.1780  102.8620 C.3   1518  GIO1518     0.2221
     11  N         17.7320   42.3640  101.9090 N.2   1518  GIO1518    -0.1950
@<TRIPOS>BOND
     1     1     2    2
     2    11     2    2
     3    11    10    1
     4     2     3    1
     5     4     3    1
     6     4     5    1
     7    10     8    1
     8     3     7    1
     9     8     7   am
    10     8     9    2
    11     7     6    1
    12     5     6    1
