@<TRIPOS>MOLECULE
1w1q_ZIP_A_1.pdb
 15 16 0 0 0
SMALL
GASTEIGER

@<TRIPOS>ATOM
      1  C14       68.1320   35.3970   22.0490 C.3   1536  ZIP1536     0.0262
      2  C13       68.5580   34.2140   21.2290 C.2   1536  ZIP1536    -0.0437
      3  C15       67.5370   33.4930   20.4050 C.3   1536  ZIP1536     0.0262
      4  C12       69.8420   33.8050   21.2250 C.2   1536  ZIP1536     0.0201
      5  C11       70.8730   34.5230   22.0620 C.3   1536  ZIP1536     0.2770
      6  N10       72.1990   33.9520   21.9740 N.pl3 1536  ZIP1536    -0.0246
      7  C6        73.1890   34.5700   22.6590 C.2   1536  ZIP1536     0.3858
      8  C5        74.5860   34.2310   22.3440 C.2   1536  ZIP1536     0.2255
      9  N9        75.1630   33.3230   21.4770 N.2   1536  ZIP1536    -0.2268
     10  C4        75.5380   34.9020   23.0050 C.1   1536  ZIP1536     0.0578
     11  N7        76.7940   34.4860   22.6340 N.2   1536  ZIP1536    -0.1914
     12  C8        76.5110   33.5150   21.6950 C.3   1536  ZIP1536     0.2618
     13  N3        75.2610   35.8570   23.9230 N.2   1536  ZIP1536    -0.1640
     14  C2        73.9800   36.1730   24.1980 C.3   1536  ZIP1536     0.4006
     15  N1        72.9580   35.5520   23.5790 N.2   1536  ZIP1536    -0.0304
@<TRIPOS>BOND
     1     3     2    1
     2     4     2    2
     3     4     5    1
     4     2     1    1
     5     9    12    1
     6     9     8    2
     7    12    11    1
     8     6     5    1
     9     6     7    1
    10     8     7    1
    11     8    10    1
    12    11    10    2
    13     7    15    2
    14    10    13    2
    15    15    14    1
    16    13    14    1
