@<TRIPOS>MOLECULE
1w1r_ZEA_A_1.pdb
 16 17 0 0 0
SMALL
GASTEIGER

@<TRIPOS>ATOM
      1  O16       68.3400   33.2250   18.9760 O.3   1536  ZEA1536    -0.2155
      2  C14       67.8240   33.4880   20.2770 C.3   1536  ZEA1536     0.2042
      3  C13       68.8650   34.1860   21.1250 C.2   1536  ZEA1536    -0.0115
      4  C15       68.4220   35.2670   22.0730 C.3   1536  ZEA1536     0.0288
      5  C12       70.1570   33.8190   21.0120 C.2   1536  ZEA1536     0.0226
      6  C11       71.3020   34.4150   21.8030 C.3   1536  ZEA1536     0.2771
      7  N10       72.5490   33.7740   21.4180 N.pl3 1536  ZEA1536    -0.0246
      8  C6        73.7840   34.0810   21.8930 C.2   1536  ZEA1536     0.3858
      9  C5        74.0710   35.1850   22.8610 C.2   1536  ZEA1536     0.2255
     10  N9        73.2960   36.1090   23.5500 N.2   1536  ZEA1536    -0.2268
     11  C4        75.3580   35.3760   23.2010 C.1   1536  ZEA1536     0.0578
     12  N7        75.5190   36.4060   24.1090 N.2   1536  ZEA1536    -0.1914
     13  C8        74.2170   36.8260   24.2910 C.3   1536  ZEA1536     0.2618
     14  N3        76.3620   34.6260   22.6930 N.2   1536  ZEA1536    -0.1640
     15  C2        76.0940   33.6450   21.8130 C.3   1536  ZEA1536     0.4006
     16  N1        74.8380   33.3790   21.4140 N.2   1536  ZEA1536    -0.0304
@<TRIPOS>BOND
     1     1     2    1
     2     2     3    1
     3     5     3    2
     4     5     6    1
     5     3     4    1
     6    16    15    1
     7    16     8    2
     8     7     6    1
     9     7     8    1
    10    15    14    1
    11     8     9    1
    12    14    11    2
    13     9    11    1
    14     9    10    2
    15    11    12    2
    16    10    13    1
    17    12    13    1
