@<TRIPOS>MOLECULE
1w1s_EMU_A_1.pdb
 17 19 0 0 0
SMALL
GASTEIGER

@<TRIPOS>ATOM
      1  N1        72.2020   35.0780   23.4120 N.2   1536  EMU1536    -0.0304
      2  C2        73.3280   35.7400   23.7460 C.3   1536  EMU1536     0.4006
      3  N3        74.5310   35.4650   23.2110 N.2   1536  EMU1536    -0.1640
      4  C4        74.6390   34.4830   22.2970 C.1   1536  EMU1536     0.0578
      5  C5        73.5030   33.7220   21.8760 C.2   1536  EMU1536     0.2255
      6  C6        72.2110   34.0760   22.5000 C.2   1536  EMU1536     0.3858
      7  C9        69.7630   34.2300   22.2630 C.3   1536  EMU1536     0.2778
      8  N7        73.9320   32.7970   20.9410 N.2   1536  EMU1536    -0.2268
      9  C8        75.2960   33.0410   20.8420 C.3   1536  EMU1536     0.2618
     10  N9        75.7820   34.0590   21.6480 N.2   1536  EMU1536    -0.1914
     11  C10       68.8100   33.8920   21.1520 C.ar  1536  EMU1536     0.0285
     12  C11       69.2690   33.2020   20.0390 C.ar  1536  EMU1536    -0.0002
     13  C12       68.3970   32.8840   19.0060 C.ar  1536  EMU1536    -0.0002
     14  C13       67.0610   33.2560   19.0860 C.ar  1536  EMU1536    -0.0000
     15  C14       66.6010   33.9500   20.1980 C.ar  1536  EMU1536    -0.0002
     16  C15       67.4750   34.2690   21.2340 C.ar  1536  EMU1536    -0.0002
     17  N10       70.9600   33.3360   22.1310 N.pl3 1536  EMU1536    -0.0245
@<TRIPOS>BOND
     1    13    14   ar
     2    13    12   ar
     3    14    15   ar
     4    12    11   ar
     5    15    16   ar
     6     9     8    1
     7     9    10    1
     8     8     5    2
     9    11    16   ar
    10    11     7    1
    11    10     4    2
    12     5     4    1
    13     5     6    1
    14    17     7    1
    15    17     6    1
    16     4     3    2
    17     6     1    2
    18     3     2    1
    19     1     2    1
