@<TRIPOS>MOLECULE
1w1t_CHQ_A_1.pdb
 17 19 0 0 0
SMALL
GASTEIGER

@<TRIPOS>ATOM
      1  N         17.5970   42.2780  101.9110 N.2   1513  CHQ1513    -0.1972
      2  CA        18.9300   42.2000  102.5310 C.3   1513  CHQ1513     0.1959
      3  C         19.4770   43.5730  102.9430 C.2   1513  CHQ1513     0.2499
      4  O         20.6640   43.6740  103.2510 O.2   1513  CHQ1513    -0.2727
      5  CB        19.8800   41.5830  101.5000 C.3   1513  CHQ1513     0.0780
      6  ND1       21.2190   42.5810   99.5840 N.2   1513  CHQ1513    -0.2309
      7  CE1       20.9440   43.4340   98.6040 C.2   1513  CHQ1513     0.1939
      8  NE2       19.6800   43.8410   98.6170 N.2   1513  CHQ1513    -0.2440
      9  CD2       19.1470   43.2070   99.6590 C.3   1513  CHQ1513     0.1683
     10  CG        20.0720   42.4480  100.2490 C.2   1513  CHQ1513     0.0655
     11  NP        18.6790   44.7210  103.0080 N.am  1513  CHQ1513    -0.2658
     12  CAP       17.2360   44.6550  102.7270 C.3   1513  CHQ1513     0.1823
     13  CP        16.8080   43.4350  101.9060 C.1   1513  CHQ1513     0.1445
     14  OP        15.7460   43.4430  101.2830 O.2   1513  CHQ1513    -0.2254
     15  CBP       17.0640   45.9700  101.9650 C.3   1513  CHQ1513     0.0388
     16  CGP       17.8430   46.9080  102.8920 C.3   1513  CHQ1513     0.0244
     17  CDP       19.1300   46.1230  103.1650 C.3   1513  CHQ1513     0.0945
@<TRIPOS>BOND
     1     7     8    2
     2     7     6    1
     3     8     9    1
     4     6    10    2
     5     9    10    1
     6    10     5    1
     7    14    13    2
     8     5     2    1
     9    13     1    2
    10    13    12    1
    11     1     2    1
    12    15    12    1
    13    15    16    1
    14     2     3    1
    15    12    11    1
    16    16    17    1
    17     3    11   am
    18     3     4    2
    19    11    17    1
