@<TRIPOS>MOLECULE
1w1u_NAD_A_1.pdb
 44 48 0 0 0
SMALL
GASTEIGER

@<TRIPOS>ATOM
      1  PA        32.6420   19.4880  -54.8760 P.3   1555  NAD1555     0.2189
      2  O1A       31.7840   20.6980  -55.4980 O.2   1555  NAD1555    -0.5170
      3  O2A       31.9300   18.1900  -54.9190 O.3   1555  NAD1555    -0.4371
      4  O5B       34.0300   19.4650  -55.6850 O.3   1555  NAD1555    -0.3112
      5  C5B       35.0380   18.5200  -55.3260 C.3   1555  NAD1555     0.1813
      6  C4B       36.0600   18.3550  -56.4520 C.3   1555  NAD1555     0.1821
      7  O4B       37.0010   17.3380  -56.0730 O.3   1555  NAD1555    -0.3135
      8  C3B       35.3730   17.8520  -57.7250 C.3   1555  NAD1555     0.2184
      9  O3B       35.5310   18.8210  -58.7640 O.3   1555  NAD1555    -0.2174
     10  C2B       36.1280   16.5660  -58.0660 C.3   1555  NAD1555     0.2570
     11  O2B       36.4240   16.5190  -59.4630 O.3   1555  NAD1555    -0.2130
     12  C1B       37.4420   16.7780  -57.3160 C.3   1555  NAD1555     0.3186
     13  N9A       38.1410   15.4950  -57.0750 N.pl3 1555  NAD1555    -0.1439
     14  C8A       37.6380   14.4240  -56.4630 C.3   1555  NAD1555     0.3377
     15  N7A       38.5750   13.4850  -56.3620 N.2   1555  NAD1555    -0.2095
     16  C5A       39.6860   13.9600  -56.9180 C.2   1555  NAD1555     0.2526
     17  C6A       40.9630   13.4420  -57.0940 C.2   1555  NAD1555     0.4393
     18  N6A       41.2680   12.2200  -56.6630 N.pl3 1555  NAD1555     0.2180
     19  N1A       41.9230   14.2390  -57.7300 N.2   1555  NAD1555     0.0021
     20  C2A       41.5760   15.5240  -58.1690 C.3   1555  NAD1555     0.5254
     21  N3A       40.3510   15.9830  -57.9850 N.2   1555  NAD1555    -0.0055
     22  C4A       39.4100   15.2430  -57.3780 C.2   1555  NAD1555     0.3518
     23  O3        32.9930   19.8820  -53.3550 O.3   1555  NAD1555    -0.2703
     24  PN        33.3690   21.3680  -52.8630 P.3   1555  NAD1555     0.2189
     25  O1N       34.5700   21.9010  -53.7920 O.2   1555  NAD1555    -0.5170
     26  O2N       32.2180   22.2970  -52.8270 O.3   1555  NAD1555    -0.4371
     27  O5D       34.0170   21.1280  -51.4090 O.3   1555  NAD1555    -0.3112
     28  C5D       35.1800   20.2980  -51.3200 C.3   1555  NAD1555     0.1813
     29  C4D       35.3620   19.7020  -49.9230 C.3   1555  NAD1555     0.1799
     30  O4D       35.4760   20.7950  -48.9930 O.3   1555  NAD1555    -0.3327
     31  C3D       34.1360   18.8850  -49.5050 C.3   1555  NAD1555     0.2158
     32  O3D       34.5040   17.7450  -48.7240 O.3   1555  NAD1555    -0.2175
     33  C2D       33.3560   19.8820  -48.6520 C.3   1555  NAD1555     0.2309
     34  O2D       32.5350   19.2090  -47.6940 O.3   1555  NAD1555    -0.2158
     35  C1D       34.5330   20.5460  -47.9370 C.3   1555  NAD1555     0.2263
     36  N1N       34.1810   21.7890  -47.2150 N.pl3 1555  NAD1555    -0.2787
     37  C2N       34.4310   21.8690  -45.8380 C.3   1555  NAD1555     0.1244
     38  C3N       34.1450   23.0460  -45.1560 C.2   1555  NAD1555     0.0544
     39  C7N       34.3540   23.1220  -43.6420 C.2   1555  NAD1555     0.2818
     40  O7N       33.5470   23.7090  -42.9220 O.2   1555  NAD1555    -0.2670
     41  N7N       35.4200   22.4710  -43.1860 N.am  1555  NAD1555    -0.0839
     42  C4N       33.6180   24.1320  -45.8490 C.2   1555  NAD1555     0.0033
     43  C5N       33.3660   24.0590  -47.2160 C.2   1555  NAD1555     0.0157
     44  C6N       33.6450   22.8840  -47.9060 C.2   1555  NAD1555     0.0633
@<TRIPOS>BOND
     1    11    10    1
     2     9     8    1
     3    20    21    1
     4    20    19    1
     5    10     8    1
     6    10    12    1
     7    21    22    2
     8    19    17    2
     9     8     6    1
    10    22    13    1
    11    22    16    1
    12    12    13    1
    13    12     7    1
    14    17    16    1
    15    17    18    1
    16    13    14    1
    17    16    15    2
    18    14    15    1
    19     6     7    1
    20     6     5    1
    21     4     5    1
    22     4     1    1
    23     2     1    2
    24     3     1    1
    25     1    23    1
    26    25    24    2
    27    23    24    1
    28    24    26    1
    29    24    27    1
    30    27    28    1
    31    28    29    1
    32    29    31    1
    33    29    30    1
    34    31    32    1
    35    31    33    1
    36    30    35    1
    37    33    35    1
    38    33    34    1
    39    35    36    1
    40    44    43    2
    41    44    36    1
    42    43    42    1
    43    36    37    1
    44    42    38    2
    45    37    38    1
    46    38    39    1
    47    39    41   am
    48    39    40    2
