@<TRIPOS>MOLECULE
1w1u_URO_A_1.pdb
 10 10 0 0 0
SMALL
GASTEIGER

@<TRIPOS>ATOM
      1  OAA       28.5080   28.8110  -48.5750 O.co2 1556  URO1556    -0.2456
      2  CAI       29.4800   28.2960  -48.0250 C.2   1556  URO1556     0.3652
      3  OAB       30.5630   28.8790  -48.0460 O.co2 1556  URO1556    -0.2456
      4  CAC       29.3360   26.9470  -47.3170 C.3   1556  URO1556     0.1201
      5  CAD       30.5050   26.2020  -47.4140 C.3   1556  URO1556     0.0552
      6  CAJ       30.3950   24.8670  -46.6750 C.2   1556  URO1556     0.0636
      7  CAF       30.7540   24.6370  -45.4150 C.3   1556  URO1556     0.1682
      8  NAH       30.5620   23.3460  -45.1580 N.2   1556  URO1556    -0.2440
      9  CAE       30.0770   22.7760  -46.2570 C.2   1556  URO1556     0.1939
     10  NAG       29.9730   23.7170  -47.1920 N.2   1556  URO1556    -0.2310
@<TRIPOS>BOND
     1     1     2   ar
     2     3     2   ar
     3     2     4    1
     4     5     4    1
     5     5     6    1
     6    10     6    2
     7    10     9    1
     8     6     7    1
     9     9     8    2
    10     7     8    1
