@<TRIPOS>MOLECULE
1w1v_ALJ_A_1.pdb
 18 19 0 0 0
SMALL
GASTEIGER

@<TRIPOS>ATOM
      1  O         20.6420   43.3440  103.2610 O.2   1520  ALJ1520    -0.2727
      2  C         19.4840   43.3420  102.8460 C.2   1520  ALJ1520     0.2495
      3  NP        18.8080   44.5540  102.6470 N.am  1520  ALJ1520    -0.2658
      4  CDP       19.2500   45.9640  102.7540 C.3   1520  ALJ1520     0.0945
      5  CGP       17.9660   46.7650  102.5220 C.3   1520  ALJ1520     0.0244
      6  CBP       17.2690   45.9010  101.4720 C.3   1520  ALJ1520     0.0388
      7  CAP       17.4170   44.5460  102.1640 C.3   1520  ALJ1520     0.1823
      8  CP        17.2000   43.3920  101.1860 C.1   1520  ALJ1520     0.1445
      9  OP        16.4410   43.5260  100.2240 O.2   1520  ALJ1520    -0.2254
     10  N         17.8660   42.1790  101.4100 N.2   1520  ALJ1520    -0.1976
     11  CA        18.7590   42.0240  102.5690 C.3   1520  ALJ1520     0.1905
     12  CB        19.7510   40.8810  102.3340 C.3   1520  ALJ1520     0.0383
     13  CG        18.9880   39.5690  102.5280 C.3   1520  ALJ1520     0.0495
     14  CD        19.9020   38.3410  102.5180 C.3   1520  ALJ1520     0.2205
     15  NE        19.0000   37.1890  102.6760 N.pl3 1520  ALJ1520    -0.0865
     16  CZ        18.7420   36.3840  101.6480 C.cat 1520  ALJ1520     0.5346
     17  NH1       19.3650   36.5540  100.4850 N.pl3 1520  ALJ1520     0.1354
     18  NH2       17.8990   35.3640  101.8000 N.pl3 1520  ALJ1520     0.1354
@<TRIPOS>BOND
     1     9     8    2
     2    17    16    1
     3     8    10    2
     4     8     7    1
     5    10    11    1
     6     6     7    1
     7     6     5    1
     8    16    18    1
     9    16    15    2
    10     7     3    1
    11    12    13    1
    12    12    11    1
    13    14    13    1
    14    14    15    1
    15     5     4    1
    16    11     2    1
    17     3     4    1
    18     3     2   am
    19     2     1    2
