@<TRIPOS>MOLECULE
1w1w_AGS_A_1.pdb
 31 33 0 0 0
SMALL
GASTEIGER

@<TRIPOS>ATOM
      1  PG       -81.2170   81.0470   24.5540 P.3   2224  AGS2224     0.4340
      2  O2G      -81.6680   80.1970   23.4430 O.2   2224  AGS2224    -0.2423
      3  O3G      -80.2370   80.3880   25.4860 O.3   2224  AGS2224    -0.1305
      4  S1G      -82.5280   81.7230   25.6060 S.3   2224  AGS2224     0.0416
      5  PB       -79.2150   83.1080   24.0940 P.3   2224  AGS2224     0.2262
      6  O1B      -79.7320   84.4970   24.1190 O.2   2224  AGS2224    -0.5168
      7  O2B      -78.5950   82.6210   25.3540 O.3   2224  AGS2224    -0.4369
      8  O3B      -80.4320   82.1680   23.6740 O.3   2224  AGS2224    -0.2405
      9  PA       -76.4820   82.9740   23.2550 P.3   2224  AGS2224     0.2189
     10  O1A      -75.8290   84.0850   23.9690 O.3   2224  AGS2224    -0.4371
     11  O2A      -76.4040   81.5650   23.7420 O.2   2224  AGS2224    -0.5170
     12  O3A      -78.0970   83.2410   23.0470 O.3   2224  AGS2224    -0.2701
     13  O5'      -76.1010   83.1810   21.7340 O.3   2224  AGS2224    -0.3112
     14  C5'      -76.0730   82.1250   20.8140 C.3   2224  AGS2224     0.1813
     15  C4'      -75.8140   82.8030   19.4570 C.3   2224  AGS2224     0.1821
     16  O4'      -74.6250   83.5240   19.4890 O.3   2224  AGS2224    -0.3135
     17  C3'      -75.7380   81.8740   18.2390 C.3   2224  AGS2224     0.2184
     18  O3'      -76.9880   81.9280   17.5680 O.3   2224  AGS2224    -0.2174
     19  C2'      -74.6340   82.4800   17.3550 C.3   2224  AGS2224     0.2570
     20  O2'      -75.0910   83.0300   16.0890 O.3   2224  AGS2224    -0.2130
     21  C1'      -73.9860   83.5390   18.2670 C.3   2224  AGS2224     0.3186
     22  N9       -72.5300   83.3000   18.4570 N.pl3 2224  AGS2224    -0.1439
     23  C8       -71.7970   82.5090   19.3410 C.3   2224  AGS2224     0.3377
     24  N7       -70.4670   82.5410   19.2760 N.2   2224  AGS2224    -0.2095
     25  C5       -70.3080   83.4320   18.2480 C.2   2224  AGS2224     0.2526
     26  C6       -69.1670   83.9800   17.6070 C.2   2224  AGS2224     0.4393
     27  N6       -67.8240   83.6300   18.0430 N.pl3 2224  AGS2224     0.2180
     28  N1       -69.3410   84.8620   16.5620 N.2   2224  AGS2224     0.0021
     29  C2       -70.6060   85.2260   16.1370 C.3   2224  AGS2224     0.5254
     30  N3       -71.7740   84.8010   16.6690 N.2   2224  AGS2224    -0.0055
     31  C4       -71.5640   83.9010   17.7210 C.2   2224  AGS2224     0.3518
@<TRIPOS>BOND
     1    20    19    1
     2    29    28    1
     3    29    30    1
     4    28    26    2
     5    30    31    2
     6    19    17    1
     7    19    21    1
     8    18    17    1
     9    26    27    1
    10    26    25    1
    11    31    25    1
    12    31    22    1
    13    17    15    1
    14    25    24    2
    15    21    22    1
    16    21    16    1
    17    22    23    1
    18    24    23    1
    19    15    16    1
    20    15    14    1
    21    14    13    1
    22    13     9    1
    23    12     9    1
    24    12     5    1
    25     9    11    2
    26     9    10    1
    27     2     1    2
    28     8     5    1
    29     8     1    1
    30     5     6    2
    31     5     7    1
    32     1     3    1
    33     1     4    1
