@<TRIPOS>MOLECULE
1w1x_SIA_A_1.pdb
 21 21 0 0 0
SMALL
GASTEIGER

@<TRIPOS>ATOM
      1  C1        33.7360    9.9360   50.5420 C.2   1477  SIA1477     0.4179
      2  C2        35.0480    9.3440   50.9880 C.3   1477  SIA1477     0.3155
      3  C3        34.9330    8.8800   52.4340 C.3   1477  SIA1477     0.1056
      4  C4        36.0840    7.9400   52.7650 C.3   1477  SIA1477     0.1798
      5  C5        37.2060    8.1060   51.7480 C.3   1477  SIA1477     0.1554
      6  C6        36.7240    7.7980   50.3340 C.3   1477  SIA1477     0.1734
      7  C7        37.6070    8.4770   49.2940 C.3   1477  SIA1477     0.2135
      8  C8        36.8410    8.7150   47.9980 C.3   1477  SIA1477     0.2173
      9  C9        37.7890    9.0770   46.8620 C.3   1477  SIA1477     0.2175
     10  C10       39.4460    7.5380   52.4810 C.2   1477  SIA1477     0.2420
     11  C11       40.4200    6.4390   52.7870 C.3   1477  SIA1477     0.0964
     12  N5        38.2420    7.1430   52.0760 N.am  1477  SIA1477    -0.2020
     13  O1A       33.5400   10.0990   49.3190 O.co2 1477  SIA1477    -0.2401
     14  O1B       32.8950   10.2430   51.4140 O.co2 1477  SIA1477    -0.2401
     15  O2        36.0800   10.3320   50.8830 O.3   1477  SIA1477    -0.1830
     16  O4        36.5780    8.2340   54.0760 O.3   1477  SIA1477    -0.2210
     17  O6        35.3730    8.2260   50.1640 O.3   1477  SIA1477    -0.3220
     18  O7        38.0750    9.7280   49.8100 O.3   1477  SIA1477    -0.2176
     19  O8        36.1100    7.5330   47.6530 O.3   1477  SIA1477    -0.2175
     20  O9        38.8220    8.0900   46.7690 O.3   1477  SIA1477    -0.2175
     21  O10       39.7380    8.7160   52.5970 O.2   1477  SIA1477    -0.2733
@<TRIPOS>BOND
     1    20     9    1
     2     9     8    1
     3    19     8    1
     4     8     7    1
     5     7    18    1
     6     7     6    1
     7    13     1   ar
     8    17     6    1
     9    17     2    1
    10     6     5    1
    11     1     2    1
    12     1    14   ar
    13    15     2    1
    14     2     3    1
    15     5    12    1
    16     5     4    1
    17    12    10   am
    18     3     4    1
    19    10    21    2
    20    10    11    1
    21     4    16    1
