@<TRIPOS>MOLECULE
1w1x_BMA_A_1.pdb
 11 11 0 0 0
SMALL
GASTEIGER

@<TRIPOS>ATOM
      1  C1         4.9430   -0.1110   40.6420 C.3   1480  BMA1480     0.1777
      2  C2         4.0800    0.4730   39.5310 C.3   1480  BMA1480     0.2141
      3  C3         4.7410    0.2850   38.1700 C.3   1480  BMA1480     0.2173
      4  C4         6.1940    0.7440   38.2010 C.3   1480  BMA1480     0.2142
      5  C5         6.9310    0.1440   39.3920 C.3   1480  BMA1480     0.1810
      6  C6         8.3620    0.6630   39.4660 C.3   1480  BMA1480     0.2141
      7  O2         3.8710    1.8690   39.7720 O.3   1480  BMA1480    -0.2176
      8  O3         4.0240    1.0360   37.1840 O.3   1480  BMA1480    -0.2175
      9  O4         6.8450    0.3480   36.9880 O.3   1480  BMA1480    -0.2176
     10  O5         6.2410    0.4780   40.5950 O.3   1480  BMA1480    -0.3481
     11  O6         8.3850    1.8970   40.1920 O.3   1480  BMA1480    -0.2176
@<TRIPOS>BOND
     1     9     4    1
     2     8     3    1
     3     3     4    1
     4     3     2    1
     5     4     5    1
     6     5     6    1
     7     5    10    1
     8     6    11    1
     9     2     7    1
    10     2     1    1
    11    10     1    1
