@<TRIPOS>MOLECULE
1w1x_MAN_A_1.pdb
 11 11 0 0 0
SMALL
GASTEIGER

@<TRIPOS>ATOM
      1  C1        10.0500    2.7730   40.2410 C.3   1481  MAN1481     0.1777
      2  C2        10.0280    4.1220   40.9490 C.3   1481  MAN1481     0.2141
      3  C3         9.1930    5.1340   40.1730 C.3   1481  MAN1481     0.2173
      4  C4         9.5910    5.1560   38.7020 C.3   1481  MAN1481     0.2142
      5  C5         9.6400    3.7450   38.1280 C.3   1481  MAN1481     0.1810
      6  C6        10.1110    3.7610   36.6790 C.3   1481  MAN1481     0.2141
      7  O2        11.3670    4.6120   41.0840 O.3   1481  MAN1481    -0.2176
      8  O3         9.3770    6.4370   40.7370 O.3   1481  MAN1481    -0.2175
      9  O4         8.6450    5.9380   37.9640 O.3   1481  MAN1481    -0.2176
     10  O5        10.5260    2.9450   38.9070 O.3   1481  MAN1481    -0.3481
     11  O6        11.4290    4.3190   36.6120 O.3   1481  MAN1481    -0.2176
@<TRIPOS>BOND
     1    11     6    1
     2     6     5    1
     3     9     4    1
     4     5     4    1
     5     5    10    1
     6     4     3    1
     7    10     1    1
     8     3     8    1
     9     3     2    1
    10     1     2    1
    11     2     7    1
