@<TRIPOS>MOLECULE
1w1y_TYP_A_1.pdb
 19 21 0 0 0
SMALL
GASTEIGER

@<TRIPOS>ATOM
      1  N         17.9710   43.0160  100.4770 N.2   1507  TYP1507    -0.1972
      2  CA        18.8720   42.5860  101.5650 C.3   1507  TYP1507     0.1946
      3  C         19.4970   43.8150  102.2060 C.2   1507  TYP1507     0.2499
      4  O         20.6540   43.8030  102.5850 O.2   1507  TYP1507    -0.2727
      5  CB        19.9510   41.6650  100.9840 C.3   1507  TYP1507     0.0609
      6  CG        19.3380   40.3010  100.6820 C.ar  1507  TYP1507    -0.0195
      7  CD1       18.6840   40.0680   99.4470 C.ar  1507  TYP1507    -0.0009
      8  CE1       18.1010   38.8100   99.1950 C.ar  1507  TYP1507     0.0417
      9  CE2       18.8270   38.0250  101.3960 C.ar  1507  TYP1507     0.0417
     10  CD2       19.4100   39.2790  101.6540 C.ar  1507  TYP1507    -0.0009
     11  CZ        18.1710   37.7900  100.1700 C.ar  1507  TYP1507     0.1957
     12  OH        17.5920   36.5780   99.9300 O.3   1507  TYP1507    -0.2866
     13  NP        18.7050   44.9510  102.3990 N.am  1507  TYP1507    -0.2658
     14  CAP       17.2770   44.8930  101.9930 C.3   1507  TYP1507     0.1823
     15  CP        17.1890   44.1680  100.6480 C.1   1507  TYP1507     0.1445
     16  OP        16.4730   44.5830   99.7290 O.2   1507  TYP1507    -0.2254
     17  CBP       16.8370   46.3580  101.9130 C.3   1507  TYP1507     0.0388
     18  CGP       18.1340   47.1680  101.9520 C.3   1507  TYP1507     0.0244
     19  CDP       19.1040   46.3240  102.7740 C.3   1507  TYP1507     0.0945
@<TRIPOS>BOND
     1     8     7   ar
     2     8    11   ar
     3     7     6   ar
     4    16    15    2
     5    12    11    1
     6    11     9   ar
     7     1    15    2
     8     1     2    1
     9    15    14    1
    10     6     5    1
    11     6    10   ar
    12     5     2    1
    13     9    10   ar
    14     2     3    1
    15    17    18    1
    16    17    14    1
    17    18    19    1
    18    14    13    1
    19     3    13   am
    20     3     4    2
    21    13    19    1
