@<TRIPOS>MOLECULE
1w20_MAN_A_1.pdb
 11 11 0 0 0
SMALL
GASTEIGER

@<TRIPOS>ATOM
      1  C1        93.1470   -4.5710   10.4300 C.3   1485  MAN1485     0.1777
      2  C2        93.8000   -5.9480   10.4300 C.3   1485  MAN1485     0.2141
      3  C3        93.0000   -6.9320    9.5870 C.3   1485  MAN1485     0.2173
      4  C4        91.5220   -6.8920    9.9560 C.3   1485  MAN1485     0.2142
      5  C5        91.0050   -5.4590    9.9840 C.3   1485  MAN1485     0.1810
      6  C6        89.5470   -5.4130   10.4270 C.3   1485  MAN1485     0.2141
      7  O2        93.8900   -6.4330   11.7740 O.3   1485  MAN1485    -0.2176
      8  O3        93.5070   -8.2560    9.7890 O.3   1485  MAN1485    -0.2175
      9  O4        90.7710   -7.6520    9.0020 O.3   1485  MAN1485    -0.2176
     10  O5        91.7990   -4.6840   10.8800 O.3   1485  MAN1485    -0.3481
     11  O6        89.4070   -6.0950   11.6780 O.3   1485  MAN1485    -0.2176
@<TRIPOS>BOND
     1     9     4    1
     2     3     8    1
     3     3     4    1
     4     3     2    1
     5     4     5    1
     6     5     6    1
     7     5    10    1
     8     6    11    1
     9     1     2    1
    10     1    10    1
    11     2     7    1
