@<TRIPOS>MOLECULE
1w20_SIA_A_1.pdb
 21 21 0 0 0
SMALL
GASTEIGER

@<TRIPOS>ATOM
      1  C1       103.2450  -11.7290   33.9940 C.2   1477  SIA1477     0.4179
      2  C2       103.5810  -11.0550   35.3000 C.3   1477  SIA1477     0.3155
      3  C3       104.9460  -10.3880   35.1920 C.3   1477  SIA1477     0.1056
      4  C4       105.1660   -9.4700   36.3860 C.3   1477  SIA1477     0.1798
      5  C5       104.1200   -9.7480   37.4580 C.3   1477  SIA1477     0.1554
      6  C6       102.7070   -9.5490   36.9190 C.3   1477  SIA1477     0.1734
      7  C7       101.6760  -10.2220   37.8170 C.3   1477  SIA1477     0.2135
      8  C8       100.2640  -10.0060   37.2860 C.3   1477  SIA1477     0.2173
      9  C9        99.2230  -10.4220   38.3180 C.3   1477  SIA1477     0.2175
     10  C10      104.7790   -8.9590   39.6540 C.2   1477  SIA1477     0.2420
     11  C11      104.9150   -7.7810   40.5730 C.3   1477  SIA1477     0.0964
     12  N5       104.2990   -8.6920   38.4430 N.am  1477  SIA1477    -0.2020
     13  O1A      102.0420  -11.8880   33.6970 O.co2 1477  SIA1477    -0.2401
     14  O1B      104.1840  -12.1030   33.2580 O.co2 1477  SIA1477    -0.2401
     15  O2       103.6070  -12.0300   36.3480 O.3   1477  SIA1477    -0.1830
     16  O4       106.4740   -9.6940   36.9250 O.3   1477  SIA1477    -0.2210
     17  O6       102.5960  -10.0650   35.5920 O.3   1477  SIA1477    -0.3220
     18  O7       101.9490  -11.6260   37.8910 O.3   1477  SIA1477    -0.2176
     19  O8       100.0850   -8.6240   36.9570 O.3   1477  SIA1477    -0.2175
     20  O9        99.2070   -9.4720   39.3890 O.3   1477  SIA1477    -0.2175
     21  O10      105.0880  -10.0880   39.9960 O.2   1477  SIA1477    -0.2733
@<TRIPOS>BOND
     1    14     1   ar
     2    13     1   ar
     3     1     2    1
     4     3     2    1
     5     3     4    1
     6     2    17    1
     7     2    15    1
     8    17     6    1
     9     4    16    1
    10     4     5    1
    11     6     5    1
    12     6     7    1
    13    19     8    1
    14     8     7    1
    15     8     9    1
    16     5    12    1
    17     7    18    1
    18     9    20    1
    19    12    10   am
    20    10    21    2
    21    10    11    1
