@<TRIPOS>MOLECULE
1w21_BMA_A_1.pdb
 11 11 0 0 0
SMALL
GASTEIGER

@<TRIPOS>ATOM
      1  C1        92.8780   -1.2580    4.8660 C.3   1484  BMA1484     0.1777
      2  C2        91.7740   -1.8920    4.0290 C.3   1484  BMA1484     0.2141
      3  C3        90.4570   -1.9230    4.7960 C.3   1484  BMA1484     0.2173
      4  C4        90.6520   -2.4990    6.1930 C.3   1484  BMA1484     0.2142
      5  C5        91.8240   -1.8290    6.9010 C.3   1484  BMA1484     0.1810
      6  C6        92.0680   -2.4570    8.2680 C.3   1484  BMA1484     0.2141
      7  O2        92.1510   -3.2270    3.6740 O.3   1484  BMA1484    -0.2176
      8  O3        89.5060   -2.7190    4.0800 O.3   1484  BMA1484    -0.2175
      9  O4        89.4580   -2.3070    6.9600 O.3   1484  BMA1484    -0.2176
     10  O5        92.9990   -1.9590    6.1020 O.3   1484  BMA1484    -0.3481
     11  O6        93.0160   -3.5230    8.1410 O.3   1484  BMA1484    -0.2176
@<TRIPOS>BOND
     1     7     2    1
     2     2     3    1
     3     2     1    1
     4     8     3    1
     5     3     4    1
     6     1    10    1
     7    10     5    1
     8     4     5    1
     9     4     9    1
    10     5     6    1
    11    11     6    1
