@<TRIPOS>MOLECULE
1w22_NHB_A_1.pdb
 26 28 0 0 0
SMALL
GASTEIGER

@<TRIPOS>ATOM
      1  C7         0.0760   16.7330   26.0190 C.ar  1378  NHB1378     0.0197
      2  C8        -0.5380   17.4090   24.9680 C.ar  1378  NHB1378     0.0032
      3  C9         0.2230   17.6680   23.8330 C.ar  1378  NHB1378     0.0207
      4  C10        1.5680   17.2580   23.7770 C.ar  1378  NHB1378     0.0988
      5  N11        2.1420   16.6230   24.7980 N.ar  1378  NHB1378    -0.2433
      6  C6         1.4250   16.3410   25.9190 C.ar  1378  NHB1378     0.0873
      7  C4         2.0230   15.6770   26.9930 C.ar  1378  NHB1378     0.0484
      8  S5         1.5490   15.9510   28.5730 S.2   1378  NHB1378    -0.0655
      9  C3         3.0260   14.7700   27.0280 C.ar  1378  NHB1378     0.0099
     10  C2         3.3760   14.3300   28.2650 C.ar  1378  NHB1378     0.0274
     11  C1         2.6550   14.8870   29.2430 C.ar  1378  NHB1378     0.1549
     12  S12        2.8020   14.5870   30.9670 S.O2  1378  NHB1378     0.0823
     13  O13        2.5870   15.8440   31.7380 O.2   1378  NHB1378    -0.1492
     14  O14        4.1650   14.0270   31.3020 O.2   1378  NHB1378    -0.1492
     15  N15        1.5790   13.5120   31.1630 N.pl3 1378  NHB1378    -0.1884
     16  C16        0.2250   14.0170   31.3970 C.3   1378  NHB1378     0.1392
     17  C17        1.7900   12.1950   31.0620 C.ar  1378  NHB1378     0.0689
     18  C18        1.9010   11.4010   32.1890 C.ar  1378  NHB1378     0.0162
     19  C19        2.1070   10.0300   32.0740 C.ar  1378  NHB1378     0.0032
     20  C22        1.8930   11.5980   29.8170 C.ar  1378  NHB1378     0.0162
     21  C21        2.0970   10.2230   29.7070 C.ar  1378  NHB1378     0.0032
     22  C20        2.2150    9.4130   30.8330 C.ar  1378  NHB1378     0.0228
     23  C23        2.4840    7.8900   30.7090 C.2   1378  NHB1378     0.1101
     24  O25        2.6220    7.3530   29.6230 O.2   1378  NHB1378    -0.5359
     25  N24        2.6130    7.2120   31.8290 N.am  1378  NHB1378    -0.1984
     26  O26        3.0030    5.9130   31.8090 O.3   1378  NHB1378    -0.4024
@<TRIPOS>BOND
     1     4     3   ar
     2     4     5   ar
     3     3     2   ar
     4     5     6   ar
     5     2     1   ar
     6     6     1   ar
     7     6     7    1
     8     7     9   ar
     9     7     8   ar
    10     9    10   ar
    11    10    11   ar
    12     8    11   ar
    13    11    12    1
    14    24    23    2
    15    21    20   ar
    16    21    22   ar
    17    20    17   ar
    18    23    22    1
    19    23    25   am
    20    22    19   ar
    21    12    15    1
    22    12    14    2
    23    12    13    2
    24    17    15    1
    25    17    18   ar
    26    15    16    1
    27    26    25    1
    28    19    18   ar
