@<TRIPOS>MOLECULE
1w23_PLP_A_1.pdb
 15 15 0 0 0
SMALL
GASTEIGER

@<TRIPOS>ATOM
      1  N1        53.9520   23.7700    8.5820 N.ar  1367  PLP1367    -0.2452
      2  C2        54.1490   23.3130    7.2900 C.ar  1367  PLP1367     0.0978
      3  C2A       55.3810   22.5250    7.0420 C.3   1367  PLP1367     0.0555
      4  C3        53.2080   23.5910    6.3110 C.ar  1367  PLP1367     0.2049
      5  O3        53.3830   23.1360    5.0910 O.3   1367  PLP1367    -0.2857
      6  C4        52.0410   24.3740    6.6390 C.ar  1367  PLP1367     0.0182
      7  C4A       51.0100   24.6020    5.5920 C.3   1367  PLP1367     0.0342
      8  C5        51.8770   24.8050    7.9660 C.ar  1367  PLP1367     0.0261
      9  C6        52.8560   24.5100    8.9010 C.ar  1367  PLP1367     0.0965
     10  C5A       50.7150   25.6480    8.4050 C.3   1367  PLP1367     0.1815
     11  O4P       49.5430   24.7720    8.5930 O.3   1367  PLP1367    -0.2653
     12  P         48.1100   25.4440    8.9940 P.3   1367  PLP1367     0.5329
     13  O1P       47.7330   26.3530    7.8650 O.2   1367  PLP1367    -0.2224
     14  O2P       48.3270   26.2000   10.2960 O.3   1367  PLP1367    -0.1145
     15  O3P       47.2460   24.2060    9.1750 O.3   1367  PLP1367    -0.1145
@<TRIPOS>BOND
     1     5     4    1
     2     7     6    1
     3     4     6   ar
     4     4     2   ar
     5     6     8   ar
     6     3     2    1
     7     2     1   ar
     8    13    12    2
     9     8    10    1
    10     8     9   ar
    11    10    11    1
    12     1     9   ar
    13    11    12    1
    14    12    15    1
    15    12    14    1
