@<TRIPOS>MOLECULE
1w25_C2E_A_1.pdb
 46 52 0 0 0
SMALL
GASTEIGER

@<TRIPOS>ATOM
      1  P1        90.1150   19.5760   83.7650 P.3   501  C2E501      0.2141
      2  O2P       90.7830   20.8090   83.1950 O.3   501  C2E501     -0.4373
      3  O1P       89.7630   18.5830   82.6860 O.2   501  C2E501     -0.5172
      4  O5'       91.0930   18.8160   84.7860 O.3   501  C2E501     -0.3114
      5  C5'       90.7490   17.5250   85.2820 C.3   501  C2E501      0.1812
      6  C4'       91.7630   17.0720   86.3340 C.3   501  C2E501      0.1771
      7  O4'       92.9710   16.6570   85.6790 O.3   501  C2E501     -0.3327
      8  C3'       92.1590   18.1340   87.3660 C.3   501  C2E501      0.1857
      9  O3'       91.3030   18.0940   88.5370 O.3   501  C2E501     -0.3112
     10  C2'       93.5890   17.7380   87.6640 C.3   501  C2E501      0.2282
     11  O2'       93.5910   16.7280   88.6710 O.3   501  C2E501     -0.2159
     12  C1'       94.1250   17.1180   86.3850 C.3   501  C2E501      0.2292
     13  N9        94.9120   18.0840   85.5660 N.pl3 501  C2E501     -0.2354
     14  C8        94.4300   18.9710   84.6730 C.3   501  C2E501      0.2246
     15  N7        95.4360   19.6870   84.1090 N.2   501  C2E501     -0.2322
     16  C5        96.5910   19.2580   84.6370 C.2   501  C2E501      0.2182
     17  C6        98.0330   19.5830   84.4830 C.1   501  C2E501      0.2372
     18  O6        98.4220   20.4680   83.6860 O.2   501  C2E501     -0.2069
     19  N1        98.9170   18.8980   85.2170 N.2   501  C2E501     -0.2485
     20  C2        98.5390   17.9380   86.0820 C.1   501  C2E501      0.2531
     21  N2        99.4840   17.2860   86.7990 N.pl3 501  C2E501     -0.0226
     22  N3        97.2380   17.5890   86.2750 N.2   501  C2E501     -0.3074
     23  C4        96.2400   18.2010   85.5940 C.2   501  C2E501      0.2300
     24  P11       91.1400   19.5760   89.1550 P.3   501  C2E501      0.2141
     25  O21       92.4890   20.2480   89.2100 O.2   501  C2E501     -0.5172
     26  O11       90.5700   19.4630   90.5430 O.3   501  C2E501     -0.4373
     27  O5A       90.1490   20.4380   88.2250 O.3   501  C2E501     -0.3114
     28  C5A       88.8750   19.9220   87.8340 C.3   501  C2E501      0.1812
     29  C4A       88.2310   20.8290   86.7840 C.3   501  C2E501      0.1771
     30  O4A       88.0090   22.1480   87.3080 O.3   501  C2E501     -0.3327
     31  C3A       89.0740   21.0120   85.5230 C.3   501  C2E501      0.1857
     32  O3A       88.7720   20.0060   84.5330 O.3   501  C2E501     -0.3112
     33  C2A       88.7090   22.4120   85.0650 C.3   501  C2E501      0.2282
     34  O2A       87.6100   22.3630   84.1520 O.3   501  C2E501     -0.2159
     35  C1A       88.2760   23.1520   86.3190 C.3   501  C2E501      0.2292
     36  N91       89.3240   24.0900   86.8050 N.pl3 501  C2E501     -0.2354
     37  C81       90.3770   23.7830   87.5880 C.3   501  C2E501      0.2246
     38  N71       91.1270   24.8850   87.8480 N.2   501  C2E501     -0.2322
     39  C51       90.5510   25.9240   87.2290 C.2   501  C2E501      0.2182
     40  C61       90.8260   27.3690   87.0940 C.1   501  C2E501      0.2372
     41  O61       91.8080   27.9080   87.6430 O.2   501  C2E501     -0.2069
     42  N11       89.9860   28.0980   86.3600 N.2   501  C2E501     -0.2485
     43  C21       88.9100   27.5640   85.7510 C.1   501  C2E501      0.2531
     44  N21       88.1090   28.3790   85.0310 N.pl3 501  C2E501     -0.0226
     45  N31       88.5940   26.2460   85.8300 N.2   501  C2E501     -0.3074
     46  C41       89.3660   25.3950   86.5450 C.2   501  C2E501      0.2300
@<TRIPOS>BOND
     1     3     1    2
     2     2     1    1
     3    18    17    2
     4     1    32    1
     5     1     4    1
     6    15    16    2
     7    15    14    1
     8    34    33    1
     9    17    16    1
    10    17    19    2
    11    32    31    1
    12    16    23    1
    13    14    13    1
    14     4     5    1
    15    44    43    1
    16    33    31    1
    17    33    35    1
    18    19    20    2
    19     5     6    1
    20    31    29    1
    21    13    23    1
    22    13    12    1
    23    23    22    2
    24     7     6    1
    25     7    12    1
    26    43    45    2
    27    43    42    2
    28    45    46    2
    29    20    22    2
    30    20    21    1
    31    35    36    1
    32    35    30    1
    33     6     8    1
    34    42    40    2
    35    12    10    1
    36    46    36    1
    37    46    39    1
    38    29    30    1
    39    29    28    1
    40    36    37    1
    41    40    39    1
    42    40    41    2
    43    39    38    2
    44     8    10    1
    45     8     9    1
    46    37    38    1
    47    10    11    1
    48    28    27    1
    49    27    24    1
    50     9    24    1
    51    24    25    2
    52    24    26    1
