@<TRIPOS>MOLECULE
1w29_TS1_A_1.pdb
 30 31 0 0 0
SMALL
GASTEIGER

@<TRIPOS>ATOM
      1  O2       -25.0960   -3.6640    6.5880 O.2   1162  TS11162    -0.1745
      2  C2       -24.4490   -2.7510    6.0680 C.1   1162  TS11162     0.3663
      3  N3       -23.5920   -3.0330    5.0640 N.2   1162  TS11162    -0.2349
      4  N1       -24.6530   -1.5460    6.5160 N.2   1162  TS11162    -0.2938
      5  C8       -23.9360   -0.5100    5.8830 C.2   1162  TS11162     0.2182
      6  C9       -22.9950   -0.7670    4.7920 C.3   1162  TS11162     0.2651
      7  C4       -22.8660   -2.1650    4.4170 C.1   1162  TS11162     0.2198
      8  O4       -22.1200   -2.5550    3.5170 O.2   1162  TS11162    -0.2112
      9  N7       -23.9730    0.7650    6.1540 N.am  1162  TS11162    -0.2159
     10  C10      -24.6750    1.6480    7.0880 C.3   1162  TS11162     0.1375
     11  C11      -25.4410    1.1330    8.2490 C.3   1162  TS11162     0.2049
     12  C12      -25.7710    2.2650    9.2190 C.3   1162  TS11162     0.2166
     13  C13      -25.5340    3.7600    8.9090 C.3   1162  TS11162     0.2175
     14  C14      -26.4790    4.6360    9.7600 C.3   1162  TS11162     0.2175
     15  O26      -26.6690    4.1210   11.0940 O.3   1162  TS11162    -0.2175
     16  O23      -24.1730    4.1020    9.1060 O.3   1162  TS11162    -0.2175
     17  O21      -27.1560    2.1250    9.1750 O.3   1162  TS11162    -0.2175
     18  O19      -24.8430    0.0780    8.9960 O.3   1162  TS11162    -0.2185
     19  C6       -23.0960    1.2520    5.2890 C.2   1162  TS11162     0.3137
     20  O6       -22.9080    2.5040    5.3010 O.2   1162  TS11162    -0.2519
     21  N5       -22.4870    0.3960    4.4460 N.am  1162  TS11162    -0.2438
     22  C15      -21.5010    0.6460    3.4260 C.3   1162  TS11162     0.0965
     23  C16      -20.0850    0.3380    3.8700 C.3   1162  TS11162     0.0242
     24  C17      -19.2460    1.1020    2.8580 C.3   1162  TS11162     0.0344
     25  C18      -19.2750    1.4830    1.2640 C.3   1162  TS11162     0.1538
     26  O27      -18.9360    2.6400    0.3780 O.3   1162  TS11162    -0.2703
     27  P        -18.2360    4.0670   -0.0120 P.3   1162  TS11162     0.5326
     28  O33      -16.9640    3.9060    0.8340 O.3   1162  TS11162    -0.1145
     29  O31      -19.3350    4.9780    0.4080 O.3   1162  TS11162    -0.1145
     30  O32      -18.0120    3.9690   -1.4590 O.2   1162  TS11162    -0.2224
@<TRIPOS>BOND
     1    30    27    2
     2    27    26    1
     3    27    29    1
     4    27    28    1
     5    26    25    1
     6    25    24    1
     7    24    23    1
     8    22    23    1
     9    22    21    1
    10     8     7    2
    11     7     6    1
    12     7     3    2
    13    21     6    1
    14    21    19   am
    15     6     5    1
    16     3     2    2
    17    19    20    2
    18    19     9   am
    19     5     9    1
    20     5     4    2
    21     2     4    2
    22     2     1    2
    23     9    10    1
    24    10    11    1
    25    11    18    1
    26    11    12    1
    27    13    16    1
    28    13    12    1
    29    13    14    1
    30    17    12    1
    31    14    15    1
