@<TRIPOS>MOLECULE
1w29_TS0_D_1.pdb
 30 31 0 0 0
SMALL
GASTEIGER

@<TRIPOS>ATOM
      1  O2         6.5420   -8.2660   26.7510 O.2   1162  TS01162    -0.1745
      2  C2         6.3850   -8.9140   25.6750 C.1   1162  TS01162     0.3663
      3  N3         7.0690   -8.5820   24.5560 N.2   1162  TS01162    -0.2349
      4  N1         5.5380   -9.9250   25.6530 N.2   1162  TS01162    -0.2938
      5  C8         5.3570  -10.6370   24.4700 C.2   1162  TS01162     0.2182
      6  C9         6.0500  -10.3330   23.2440 C.3   1162  TS01162     0.2651
      7  C4         6.9810   -9.2010   23.3940 C.1   1162  TS01162     0.2198
      8  O4         7.6620   -8.7830   22.4670 O.2   1162  TS01162    -0.2112
      9  N7         4.5660  -11.6590   24.3060 N.am  1162  TS01162    -0.2159
     10  C10        3.7290  -12.3410   25.1940 C.3   1162  TS01162     0.1375
     11  C11        2.4930  -11.8110   25.8220 C.3   1162  TS01162     0.2049
     12  C12        2.2270  -13.1280   26.5570 C.3   1162  TS01162     0.2166
     13  C13        1.0960  -14.0190   25.9400 C.3   1162  TS01162     0.2175
     14  C14        0.4620  -14.9250   26.9960 C.3   1162  TS01162     0.2175
     15  O26       -0.5650  -14.3140   27.7630 O.3   1162  TS01162    -0.2175
     16  O23        0.1770  -13.2830   25.1160 O.3   1162  TS01162    -0.2175
     17  O21        2.2740  -12.9020   27.9540 O.3   1162  TS01162    -0.2175
     18  O19        2.7160  -10.6480   26.5730 O.3   1162  TS01162    -0.2185
     19  C6         4.7270  -12.0110   23.0500 C.2   1162  TS01162     0.3137
     20  O6         4.0570  -13.0150   22.5950 O.2   1162  TS01162    -0.2519
     21  N5         5.6310  -11.2430   22.3520 N.am  1162  TS01162    -0.2438
     22  C15        5.9950  -11.3490   20.9600 C.3   1162  TS01162     0.0965
     23  C16        5.3350  -10.2840   20.0690 C.3   1162  TS01162     0.0242
     24  C17        6.0500  -10.4480   18.7500 C.3   1162  TS01162     0.0344
     25  C18        6.9410  -11.6260   18.0430 C.3   1162  TS01162     0.1538
     26  O27        6.7630  -12.6040   16.9380 O.3   1162  TS01162    -0.2703
     27  P          6.0330  -13.3080   15.6270 P.3   1162  TS01162     0.5326
     28  O33        5.0200  -12.3580   15.0220 O.3   1162  TS01162    -0.1145
     29  O31        5.3980  -14.5390   16.1940 O.3   1162  TS01162    -0.1145
     30  O32        7.1750  -13.5470   14.7170 O.2   1162  TS01162    -0.2224
@<TRIPOS>BOND
     1    30    27    2
     2    28    27    1
     3    27    29    1
     4    27    26    1
     5    26    25    1
     6    25    24    1
     7    24    23    1
     8    23    22    1
     9    22    21    1
    10    21    19   am
    11    21     6    1
    12     8     7    2
    13    20    19    2
    14    19     9   am
    15     6     7    1
    16     6     5    1
    17     7     3    2
    18     9     5    1
    19     9    10    1
    20     5     4    2
    21     3     2    2
    22    16    13    1
    23    10    11    1
    24     4     2    2
    25     2     1    2
    26    11    12    1
    27    11    18    1
    28    13    12    1
    29    13    14    1
    30    12    17    1
    31    14    15    1
