@<TRIPOS>MOLECULE
1w2c_I3P_A_1.pdb
 24 24 0 0 0
SMALL
GASTEIGER

@<TRIPOS>ATOM
      1  C1        10.4150   29.2790   83.8450 C.3   1463  I3P1463     0.1918
      2  C2        11.2000   28.0380   83.3790 C.3   1463  I3P1463     0.2147
      3  C3        12.5930   28.0230   83.9750 C.3   1463  I3P1463     0.2146
      4  C4        12.4100   27.9910   85.4690 C.3   1463  I3P1463     0.1892
      5  C5        11.7290   29.2180   85.9640 C.3   1463  I3P1463     0.1891
      6  C6        10.3350   29.4930   85.3360 C.3   1463  I3P1463     0.2120
      7  O1         8.9870   29.2670   83.4280 O.3   1463  I3P1463    -0.2673
      8  O2        10.5530   26.8010   83.7090 O.3   1463  I3P1463    -0.2176
      9  O3        13.3350   26.9420   83.4120 O.3   1463  I3P1463    -0.2176
     10  O4        13.6570   27.8470   86.0670 O.3   1463  I3P1463    -0.2674
     11  O5        11.5550   29.1190   87.4020 O.3   1463  I3P1463    -0.2674
     12  O6         9.8080   30.7630   85.7520 O.3   1463  I3P1463    -0.2177
     13  P1         8.7550   29.7660   81.8670 P.3   1463  I3P1463     0.5327
     14  O11        9.6890   29.1810   80.9820 O.2   1463  I3P1463    -0.2224
     15  O12        8.8620   31.1890   81.9260 O.3   1463  I3P1463    -0.1145
     16  O13        7.3640   29.3210   81.6360 O.3   1463  I3P1463    -0.1145
     17  P4        14.2200   26.4870   86.6640 P.3   1463  I3P1463     0.5327
     18  O41       15.6390   26.7350   87.3060 O.3   1463  I3P1463    -0.1145
     19  O42       14.2060   25.5810   85.5150 O.2   1463  I3P1463    -0.2224
     20  O43       13.2960   26.1200   87.7690 O.3   1463  I3P1463    -0.1145
     21  P5        11.8170   30.2710   88.4400 P.3   1463  I3P1463     0.5327
     22  O51       13.2980   30.5490   88.5880 O.3   1463  I3P1463    -0.1145
     23  O52       11.2560   29.8980   89.7950 O.3   1463  I3P1463    -0.1145
     24  O53       10.9330   31.4680   88.0490 O.2   1463  I3P1463    -0.2224
@<TRIPOS>BOND
     1    14    13    2
     2    16    13    1
     3    13    15    1
     4    13     7    1
     5     2     8    1
     6     2     1    1
     7     2     3    1
     8     9     3    1
     9     7     1    1
    10     1     6    1
    11     3     4    1
    12     6    12    1
    13     6     5    1
    14     4     5    1
    15     4    10    1
    16    19    17    2
    17     5    11    1
    18    10    17    1
    19    17    18    1
    20    17    20    1
    21    11    21    1
    22    24    21    2
    23    21    22    1
    24    21    23    1
