@<TRIPOS>MOLECULE
1w2c_ANP_A_1.pdb
 31 33 0 0 0
SMALL
GASTEIGER

@<TRIPOS>ATOM
      1  PG        16.7420   29.0100   81.1510 P.3   1462  ANP1462     0.4884
      2  O1G       15.9430   27.8000   80.9890 O.3   1462  ANP1462    -0.1240
      3  O2G       17.2730   29.5240   79.8230 O.2   1462  ANP1462    -0.2331
      4  O3G       15.9240   29.9240   81.9100 O.3   1462  ANP1462    -0.1240
      5  PB        19.6680   29.2890   81.7790 P.3   1462  ANP1462     0.4669
      6  O1B       19.5700   30.7760   81.8460 O.2   1462  ANP1462    -0.2351
      7  O2B       20.3430   28.6040   82.8940 O.3   1462  ANP1462    -0.1253
      8  N3B       18.2430   28.6300   81.7760 N.3   1462  ANP1462    -0.0163
      9  PA        20.6930   27.6270   79.5520 P.3   1462  ANP1462     0.2220
     10  O1A       19.4740   26.7680   79.5700 O.2   1462  ANP1462    -0.5170
     11  O2A       21.9500   26.7560   79.8820 O.3   1462  ANP1462    -0.4370
     12  O3A       20.6830   28.8860   80.5970 O.3   1462  ANP1462    -0.2360
     13  O5'       21.0640   28.2270   78.0470 O.3   1462  ANP1462    -0.3111
     14  C5'       20.4020   29.4860   77.4750 C.3   1462  ANP1462     0.1813
     15  C4'       20.4800   29.5780   76.1400 C.3   1462  ANP1462     0.1821
     16  O4'       21.9130   29.9030   75.9710 O.3   1462  ANP1462    -0.3135
     17  C3'       20.2420   28.2590   75.2820 C.3   1462  ANP1462     0.2184
     18  O3'       18.8520   27.8830   74.7760 O.3   1462  ANP1462    -0.2174
     19  C2'       21.4390   28.4660   74.2350 C.3   1462  ANP1462     0.2570
     20  O2'       20.9220   29.4560   73.2000 O.3   1462  ANP1462    -0.2130
     21  C1'       22.5060   28.9550   75.1470 C.3   1462  ANP1462     0.3186
     22  N9        23.6090   28.2640   75.4860 N.pl3 1462  ANP1462    -0.1439
     23  C8        23.7640   27.4650   76.6130 C.3   1462  ANP1462     0.3377
     24  N7        24.8930   26.9030   76.8040 N.2   1462  ANP1462    -0.2095
     25  C5        25.5550   27.3280   75.7170 C.2   1462  ANP1462     0.2526
     26  C6        26.8350   27.0030   75.3730 C.2   1462  ANP1462     0.4393
     27  N6        27.7050   26.2130   76.0550 N.pl3 1462  ANP1462     0.2180
     28  N1        27.3410   27.5640   74.2200 N.2   1462  ANP1462     0.0021
     29  C2        26.5260   28.4000   73.4410 C.3   1462  ANP1462     0.5254
     30  N3        25.2600   28.7410   73.6630 N.2   1462  ANP1462    -0.0055
     31  C4        24.8150   28.1500   74.8750 C.2   1462  ANP1462     0.3518
@<TRIPOS>BOND
     1    20    19    1
     2    29    30    1
     3    29    28    1
     4    30    31    2
     5    28    26    2
     6    19    21    1
     7    19    17    1
     8    18    17    1
     9    31    22    1
    10    31    25    1
    11    21    22    1
    12    21    16    1
    13    17    15    1
    14    26    25    1
    15    26    27    1
    16    22    23    1
    17    25    24    2
    18    16    15    1
    19    15    14    1
    20    23    24    1
    21    14    13    1
    22    13     9    1
    23     9    10    2
    24     9    11    1
    25     9    12    1
    26     3     1    2
    27    12     5    1
    28     2     1    1
    29     1     8    1
    30     1     4    1
    31     8     5    1
    32     5     6    2
    33     5     7    1
