@<TRIPOS>MOLECULE
1w2d_ADP_A_1.pdb
 27 29 0 0 0
SMALL
GASTEIGER

@<TRIPOS>ATOM
      1  PB        19.9090   29.2880   81.5750 P.3   1462  ADP1462     0.5373
      2  O1B       19.2350   28.1840   82.4320 O.3   1462  ADP1462    -0.1143
      3  O2B       20.6120   30.2400   82.5740 O.3   1462  ADP1462    -0.1143
      4  O3B       18.9240   30.0080   80.7360 O.2   1462  ADP1462    -0.2221
      5  PA        21.0180   27.4920   79.5420 P.3   1462  ADP1462     0.2231
      6  O1A       22.1270   26.5310   79.9320 O.3   1462  ADP1462    -0.4370
      7  O2A       19.6190   26.8960   79.4400 O.2   1462  ADP1462    -0.5169
      8  O3A       21.0630   28.7650   80.5570 O.3   1462  ADP1462    -0.2261
      9  O5'       21.3550   28.1450   78.1200 O.3   1462  ADP1462    -0.3111
     10  C5'       20.4250   29.0550   77.5230 C.3   1462  ADP1462     0.1813
     11  C4'       20.7580   29.3260   76.0600 C.3   1462  ADP1462     0.1821
     12  O4'       22.0750   29.8010   75.8060 O.3   1462  ADP1462    -0.3135
     13  C3'       20.6560   28.0550   75.1940 C.3   1462  ADP1462     0.2184
     14  O3'       19.3650   27.7290   74.8250 O.3   1462  ADP1462    -0.2174
     15  C2'       21.6090   28.3540   74.0810 C.3   1462  ADP1462     0.2570
     16  O2'       20.9630   29.1590   73.1140 O.3   1462  ADP1462    -0.2130
     17  C1'       22.7190   29.1130   74.7660 C.3   1462  ADP1462     0.3186
     18  N9        23.8280   28.2070   75.2810 N.pl3 1462  ADP1462    -0.1439
     19  C8        23.8560   27.4100   76.3900 C.3   1462  ADP1462     0.3377
     20  N7        25.0410   26.7920   76.4990 N.2   1462  ADP1462    -0.2095
     21  C5        25.8140   27.1850   75.4740 C.2   1462  ADP1462     0.2526
     22  C6        27.1120   26.8730   75.1230 C.2   1462  ADP1462     0.4393
     23  N6        27.8780   26.0480   75.8880 N.pl3 1462  ADP1462     0.2180
     24  N1        27.6530   27.4640   74.0090 N.2   1462  ADP1462     0.0021
     25  C2        26.8870   28.3260   73.2210 C.3   1462  ADP1462     0.5254
     26  N3        25.6120   28.6380   73.5760 N.2   1462  ADP1462    -0.0055
     27  C4        25.0670   28.0810   74.7030 C.2   1462  ADP1462     0.3518
@<TRIPOS>BOND
     1    16    15    1
     2    25    26    1
     3    25    24    1
     4    26    27    2
     5    24    22    2
     6    15    17    1
     7    15    13    1
     8    27    18    1
     9    27    21    1
    10    17    18    1
    11    17    12    1
    12    14    13    1
    13    22    21    1
    14    22    23    1
    15    13    11    1
    16    18    19    1
    17    21    20    2
    18    12    11    1
    19    11    10    1
    20    19    20    1
    21    10     9    1
    22     9     5    1
    23     7     5    2
    24     5     6    1
    25     5     8    1
    26     8     1    1
    27     4     1    2
    28     1     2    1
    29     1     3    1
