@<TRIPOS>MOLECULE
1w2d_4IP_A_1.pdb
 28 28 0 0 0
SMALL
GASTEIGER

@<TRIPOS>ATOM
      1  C1        10.2650   29.3440   83.8230 C.3   1463  4IP1463     0.1917
      2  O1         8.9250   29.1270   83.3120 O.3   1463  4IP1463    -0.2673
      3  C2        11.1840   28.2090   83.3690 C.3   1463  4IP1463     0.2120
      4  O2        10.4990   26.9790   83.5490 O.3   1463  4IP1463    -0.2177
      5  C3        12.5240   28.1990   84.1100 C.3   1463  4IP1463     0.1890
      6  O3        13.3280   27.1480   83.5750 O.3   1463  4IP1463    -0.2674
      7  C4        12.3630   28.1000   85.6230 C.3   1463  4IP1463     0.1865
      8  O4        13.6920   28.1160   86.1870 O.3   1463  4IP1463    -0.2675
      9  C5        11.5220   29.3210   86.0600 C.3   1463  4IP1463     0.1890
     10  O5        11.2330   29.2820   87.4680 O.3   1463  4IP1463    -0.2674
     11  C6        10.1580   29.3780   85.3620 C.3   1463  4IP1463     0.2120
     12  O6         9.4530   30.5610   85.7170 O.3   1463  4IP1463    -0.2177
     13  P1         8.6630   29.6690   81.7930 P.3   1463  4IP1463     0.5327
     14  O1P        7.2270   29.1980   81.3910 O.3   1463  4IP1463    -0.1145
     15  O2P        9.6820   28.9800   80.9170 O.2   1463  4IP1463    -0.2224
     16  O3P        8.7300   31.1490   81.8800 O.3   1463  4IP1463    -0.1145
     17  P3        14.4410   27.5590   82.4850 P.3   1463  4IP1463     0.5327
     18  O4P       15.2830   28.6380   83.1440 O.3   1463  4IP1463    -0.1145
     19  O5P       15.1050   26.3560   81.9510 O.3   1463  4IP1463    -0.1145
     20  O6P       13.6610   28.4140   81.3850 O.2   1463  4IP1463    -0.2224
     21  P4        14.4020   27.0680   87.2260 P.3   1463  4IP1463     0.5327
     22  O7P       13.4000   26.0140   87.5710 O.3   1463  4IP1463    -0.1145
     23  O8P       15.6180   26.4160   86.5720 O.2   1463  4IP1463    -0.2224
     24  O9P       14.8210   28.0050   88.4260 O.3   1463  4IP1463    -0.1145
     25  P5        11.7300   30.4630   88.4520 P.3   1463  4IP1463     0.5327
     26  OPF       11.3830   29.9650   89.8520 O.3   1463  4IP1463    -0.1145
     27  OPG       10.8940   31.6950   87.9610 O.2   1463  4IP1463    -0.2224
     28  OPH       13.1820   30.6120   88.3080 O.3   1463  4IP1463    -0.1145
@<TRIPOS>BOND
     1    15    13    2
     2    20    17    2
     3    14    13    1
     4    13    16    1
     5    13     2    1
     6    19    17    1
     7    17    18    1
     8    17     6    1
     9     2     1    1
    10     3     4    1
    11     3     1    1
    12     3     5    1
    13     6     5    1
    14     1    11    1
    15     5     7    1
    16    11    12    1
    17    11     9    1
    18     7     9    1
    19     7     8    1
    20     9    10    1
    21     8    21    1
    22    23    21    2
    23    21    22    1
    24    21    24    1
    25    10    25    1
    26    27    25    2
    27    28    25    1
    28    25    26    1
