@<TRIPOS>MOLECULE
1w2g_THM_A_1.pdb
 17 18 0 0 0
SMALL
GASTEIGER

@<TRIPOS>ATOM
      1  O5'       32.3410   25.9330   88.8560 O.3   1210  THM1210    -0.2176
      2  C5'       31.3360   26.4800   88.0450 C.3   1210  THM1210     0.2141
      3  C4'       30.4990   25.3810   87.2800 C.3   1210  THM1210     0.1802
      4  O4'       31.0250   24.7760   86.0910 O.3   1210  THM1210    -0.3338
      5  C3'       29.9540   24.0800   87.9600 C.3   1210  THM1210     0.1858
      6  O3'       28.6030   23.5750   87.5180 O.3   1210  THM1210    -0.2203
      7  C2'       31.2300   23.2260   87.7370 C.3   1210  THM1210     0.0874
      8  C1'       31.4830   23.4560   86.2720 C.3   1210  THM1210     0.2090
      9  N1        32.8910   23.4430   85.7840 N.am  1210  THM1210    -0.1794
     10  C2        33.2270   22.7100   84.6780 C.1   1210  THM1210     0.2844
     11  O2        32.3140   22.0590   84.0860 O.2   1210  THM1210    -0.1918
     12  N3        34.4820   22.6590   84.2020 N.2   1210  THM1210    -0.2455
     13  C4        35.4540   23.3400   84.8190 C.1   1210  THM1210     0.2134
     14  O4        36.6730   23.2750   84.3390 O.2   1210  THM1210    -0.2088
     15  C5        35.1570   24.1140   85.9680 C.2   1210  THM1210     0.0891
     16  C5M       36.2310   24.9020   86.6990 C.3   1210  THM1210     0.0462
     17  C6        33.8320   24.1490   86.4420 C.2   1210  THM1210     0.0877
@<TRIPOS>BOND
     1    11    10    2
     2    12    10    2
     3    12    13    2
     4    14    13    2
     5    10     9   am
     6    13    15    1
     7     9     8    1
     8     9    17    1
     9    15    17    2
    10    15    16    1
    11     4     8    1
    12     4     3    1
    13     8     7    1
    14     3     5    1
    15     3     2    1
    16     6     5    1
    17     7     5    1
    18     2     1    1
