@<TRIPOS>MOLECULE
1w2h_ATM_A_1.pdb
 23 24 0 0 0
SMALL
GASTEIGER

@<TRIPOS>ATOM
      1  P         31.9230   26.8120   90.0100 P.3   1209  ATM1209     0.5327
      2  OP1       32.9200   26.2070   90.8970 O.3   1209  ATM1209    -0.1145
      3  OP2       32.1390   28.2080   89.5410 O.2   1209  ATM1209    -0.2224
      4  OP3       30.4700   26.6870   90.6490 O.3   1209  ATM1209    -0.1145
      5  O5'       31.6320   25.8520   88.7570 O.3   1209  ATM1209    -0.2676
      6  C5'       30.6970   26.3220   87.7340 C.3   1209  ATM1209     0.1853
      7  C4'       30.4490   25.2150   86.6770 C.3   1209  ATM1209     0.1724
      8  O4'       31.3430   24.8440   85.6230 O.3   1209  ATM1209    -0.3345
      9  C3'       30.1460   23.9830   87.4470 C.3   1209  ATM1209     0.1731
     10  N3'       28.8340   23.4380   87.0040 N.2   1209  ATM1209    -0.0969
     11  N4'       27.8730   23.9490   87.6000 N.2   1209  ATM1209    -0.1663
     12  N5'       26.8020   24.2070   87.9420 N.2   1209  ATM1209     0.0678
     13  C2'       31.3850   23.0580   87.2010 C.3   1209  ATM1209     0.0819
     14  C1'       31.9120   23.5890   85.8570 C.3   1209  ATM1209     0.2085
     15  N1        33.3750   23.6700   85.5560 N.am  1209  ATM1209    -0.1794
     16  C2        33.7780   22.8410   84.4540 C.1   1209  ATM1209     0.2844
     17  O2        32.9830   22.1400   83.8200 O.2   1209  ATM1209    -0.1918
     18  N3        35.1100   22.8890   84.1630 N.2   1209  ATM1209    -0.2455
     19  C4        36.0090   23.6860   84.8870 C.1   1209  ATM1209     0.2134
     20  O4        37.3030   23.6530   84.5160 O.2   1209  ATM1209    -0.2088
     21  C5        35.5470   24.5350   86.0280 C.2   1209  ATM1209     0.0891
     22  C5A       36.5420   25.3700   86.7810 C.3   1209  ATM1209     0.0462
     23  C6        34.1800   24.4900   86.3300 C.2   1209  ATM1209     0.0877
@<TRIPOS>BOND
     1    17    16    2
     2    18    16    2
     3    18    19    2
     4    16    15   am
     5    20    19    2
     6    19    21    1
     7    15    14    1
     8    15    23    1
     9     8    14    1
    10     8     7    1
    11    14    13    1
    12    21    23    2
    13    21    22    1
    14     7     9    1
    15     7     6    1
    16    10     9    1
    17    10    11    2
    18    13     9    1
    19    11    12    2
    20     6     5    1
    21     5     1    1
    22     3     1    2
    23     1     4    1
    24     1     2    1
