@<TRIPOS>MOLECULE
1w2k_380_H_1.pdb
 31 33 0 0 0
SMALL
GASTEIGER

@<TRIPOS>ATOM
      1  C1        30.3400    6.7100   15.0520 C.2   1258  3801258     0.4766
      2  N1        29.3360    7.3050   15.7410 N.pl3 1258  3801258     0.2047
      3  N2        31.0110    5.8030   15.7980 N.pl3 1258  3801258     0.2047
      4  C2        30.5660    6.8970   13.6060 C.ar  1258  3801258     0.0976
      5  C3        29.7360    7.7560   12.8270 C.ar  1258  3801258     0.0093
      6  C4        29.7840    7.7520   11.4310 C.ar  1258  3801258     0.0164
      7  C5        30.6720    6.8820   10.7800 C.ar  1258  3801258     0.0662
      8  N3        30.9540    6.9830    9.3970 N.pl3 1258  3801258    -0.2255
      9  C11       32.1720    6.2720    8.8890 C.3   1258  3801258     0.1921
     10  C22       32.0320    5.8400    7.4840 C.2   1258  3801258     0.2657
     11  N24       31.6530    6.7080    6.5150 N.am  1258  3801258    -0.1988
     12  C25       31.8630    6.0460    5.1950 C.3   1258  3801258     0.1415
     13  C26       33.0760    6.6070    4.5110 C.ar  1258  3801258    -0.0006
     14  C27       32.8430    7.7450    3.7500 C.ar  1258  3801258    -0.0026
     15  C28       33.8150    8.7260    3.6590 C.ar  1258  3801258    -0.0003
     16  C29       35.0290    8.5640    4.3200 C.ar  1258  3801258    -0.0000
     17  C30       35.2950    7.3990    5.0330 C.ar  1258  3801258    -0.0003
     18  C31       34.3150    6.4170    5.1120 C.ar  1258  3801258    -0.0026
     19  O23       32.3920    4.7420    7.0860 O.2   1258  3801258    -0.2711
     20  C12       33.5420    6.9460    9.1030 C.ar  1258  3801258     0.0093
     21  C17       33.8560    8.2680    8.7430 C.ar  1258  3801258     0.0379
     22  C19       35.1750    8.7390    8.8960 C.ar  1258  3801258     0.1721
     23  O2        35.5840    9.9840    8.4470 O.3   1258  3801258    -0.4684
     24  C24       34.6260   10.8800    7.8900 C.3   1258  3801258     0.2526
     25  C20       36.1770    7.9160    9.4180 C.ar  1258  3801258     0.1724
     26  O3        37.3910    8.5160    9.7640 O.3   1258  3801258    -0.4684
     27  C32       38.3870    7.8460   10.5560 C.3   1258  3801258     0.2526
     28  C16       34.5650    6.1410    9.6010 C.ar  1258  3801258     0.0012
     29  C18       35.8680    6.6030    9.7650 C.ar  1258  3801258     0.0398
     30  C6        31.5080    6.0460   11.5460 C.ar  1258  3801258     0.0164
     31  C7        31.4620    6.0530   12.9360 C.ar  1258  3801258     0.0093
@<TRIPOS>BOND
     1    15    14   ar
     2    15    16   ar
     3    14    13   ar
     4    16    17   ar
     5    13    18   ar
     6    13    12    1
     7    17    18   ar
     8    12    11    1
     9    11    10   am
    10    19    10    2
    11    10     9    1
    12    24    23    1
    13    23    22    1
    14    21    22   ar
    15    21    20   ar
    16     9    20    1
    17     9     8    1
    18    22    25   ar
    19    20    28   ar
    20     8     7    1
    21    25    26    1
    22    25    29   ar
    23    28    29   ar
    24    26    27    1
    25     7     6   ar
    26     7    30   ar
    27     6     5   ar
    28    30    31   ar
    29     5     4   ar
    30    31     4   ar
    31     4     1    1
    32     1     2    2
    33     1     3    1
