@<TRIPOS>MOLECULE
1w2k_FUC_L_1.pdb
 10 10 0 0 0
SMALL
GASTEIGER

@<TRIPOS>ATOM
      1  C1        21.6760   32.7870   62.3480 C.3   1143  FUC1143     0.1776
      2  C2        20.9140   34.0530   62.7110 C.3   1143  FUC1143     0.2141
      3  C3        20.6740   34.9330   61.4580 C.3   1143  FUC1143     0.2172
      4  C4        20.2170   34.0920   60.2640 C.3   1143  FUC1143     0.2116
      5  C5        21.1210   32.8770   60.1080 C.3   1143  FUC1143     0.1483
      6  C6        20.7670   32.0510   58.8670 C.3   1143  FUC1143     0.0349
      7  O2        21.6860   34.7670   63.6810 O.3   1143  FUC1143    -0.2176
      8  O3        19.7930   36.0430   61.7230 O.3   1143  FUC1143    -0.2175
      9  O4        18.9010   33.6540   60.5240 O.3   1143  FUC1143    -0.2177
     10  O5        21.0060   32.0890   61.2870 O.3   1143  FUC1143    -0.3508
@<TRIPOS>BOND
     1     6     5    1
     2     5     4    1
     3     5    10    1
     4     4     9    1
     5     4     3    1
     6    10     1    1
     7     3     8    1
     8     3     2    1
     9     1     2    1
    10     2     7    1
