@<TRIPOS>MOLECULE
1w2k_BGC_L_1.pdb
 11 11 0 0 0
SMALL
GASTEIGER

@<TRIPOS>ATOM
      1  C2        38.6400   35.8060   60.8710 C.3   1161  BGC1161     0.2141
      2  C3        38.8020   34.5640   60.0140 C.3   1161  BGC1161     0.2173
      3  C4        39.4730   33.4510   60.8600 C.3   1161  BGC1161     0.2142
      4  C5        38.5750   33.2340   62.0970 C.3   1161  BGC1161     0.1810
      5  C6        39.0110   31.9870   62.8280 C.3   1161  BGC1161     0.2141
      6  C1        37.9340   35.3660   62.1700 C.3   1161  BGC1161     0.1777
      7  O2        37.9330   36.7840   60.1170 O.3   1161  BGC1161    -0.2176
      8  O3        39.4760   34.9060   58.8110 O.3   1161  BGC1161    -0.2175
      9  O4        39.6720   32.2080   60.1490 O.3   1161  BGC1161    -0.2176
     10  O5        38.5910   34.3840   62.9400 O.3   1161  BGC1161    -0.3481
     11  O6        40.4170   31.9780   62.9690 O.3   1161  BGC1161    -0.2176
@<TRIPOS>BOND
     1     8     2    1
     2     2     3    1
     3     2     1    1
     4     7     1    1
     5     9     3    1
     6     3     4    1
     7     1     6    1
     8     4     5    1
     9     4    10    1
    10     6    10    1
    11     5    11    1
