@<TRIPOS>MOLECULE
1w2l_HEM_A_1.pdb
 43 50 0 0 0
SMALL
GASTEIGER

@<TRIPOS>ATOM
      1 FE         -6.0890   14.1280   28.4520 Fe    1100  HEM1100     0.0000
      2  CHA       -6.4650   13.0040   31.6550 C.2   1100  HEM1100     0.0000
      3  CHB       -2.9390   15.1910   29.2030 C.2   1100  HEM1100     0.0000
      4  CHC       -5.6990   15.1550   25.2430 C.2   1100  HEM1100     0.0000
      5  CHD       -9.3700   13.4000   27.8230 C.2   1100  HEM1100     0.0000
      6  NA        -4.9280   14.0780   30.1080 N.2   1100  HEM1100     0.0000
      7  C1A       -5.2620   13.5380   31.3350 C.2   1100  HEM1100     0.0000
      8  C2A       -4.1980   13.8650   32.2500 C.2   1100  HEM1100     0.0000
      9  C3A       -3.1970   14.4250   31.5570 C.2   1100  HEM1100     0.0000
     10  C4A       -3.6420   14.5830   30.1810 C.2   1100  HEM1100     0.0000
     11  CMA       -1.8700   14.9810   32.0740 C.3   1100  HEM1100     0.0000
     12  CAA       -4.3080   13.6540   33.7650 C.3   1100  HEM1100     0.0000
     13  CBA       -5.0930   14.8550   34.2880 C.3   1100  HEM1100     0.0000
     14  CGA       -5.3930   14.9030   35.8250 C.2   1100  HEM1100     0.0000
     15  O1A       -6.2080   15.7440   36.1170 O.co2 1100  HEM1100     0.0000
     16  O2A       -4.8340   14.0530   36.5680 O.co2 1100  HEM1100     0.0000
     17  NB        -4.5990   15.0180   27.4240 N.ar  1100  HEM1100     0.0000
     18  C1B       -3.4370   15.3910   27.9260 C.ar  1100  HEM1100     0.0000
     19  C2B       -2.6110   16.0520   26.8890 C.ar  1100  HEM1100     0.0000
     20  C3B       -3.3770   15.9700   25.7530 C.ar  1100  HEM1100     0.0000
     21  C4B       -4.6280   15.3670   26.0780 C.ar  1100  HEM1100     0.0000
     22  CMB       -1.2910   16.6710   27.0990 C.3   1100  HEM1100     0.0000
     23  CAB       -3.0330   16.4420   24.3600 C.3   1100  HEM1100     0.0000
     24  CBB       -1.7050   15.7960   23.8960 C.3   1100  HEM1100     0.0000
     25  NC        -7.2540   14.2150   26.8410 N.2   1100  HEM1100     0.0000
     26  C1C       -6.8860   14.7040   25.5890 C.2   1100  HEM1100     0.0000
     27  C2C       -8.0850   14.6240   24.7170 C.2   1100  HEM1100     0.0000
     28  C3C       -9.0870   14.1330   25.4390 C.2   1100  HEM1100     0.0000
     29  C4C       -8.5960   13.8530   26.7580 C.2   1100  HEM1100     0.0000
     30  CMC       -8.0590   15.0960   23.2630 C.3   1100  HEM1100     0.0000
     31  CAC      -10.5720   14.0290   25.0660 C.3   1100  HEM1100     0.0000
     32  CBC      -10.9390   13.1840   23.8690 C.3   1100  HEM1100     0.0000
     33  ND        -7.5930   13.3150   29.5240 N.ar  1100  HEM1100     0.0000
     34  C1D       -8.8740   13.1380   29.0940 C.ar  1100  HEM1100     0.0000
     35  C2D       -9.6990   12.6290   30.1660 C.ar  1100  HEM1100     0.0000
     36  C3D       -8.8650   12.5080   31.1980 C.ar  1100  HEM1100     0.0000
     37  C4D       -7.5600   12.9190   30.8350 C.ar  1100  HEM1100     0.0000
     38  CMD      -11.1390   12.3550   30.0580 C.3   1100  HEM1100     0.0000
     39  CAD       -9.2460   11.9960   32.6420 C.3   1100  HEM1100     0.0000
     40  CBD       -9.2780   10.4710   32.7120 C.3   1100  HEM1100     0.0000
     41  CGD       -7.8990    9.9090   32.7870 C.2   1100  HEM1100     0.0000
     42  O1D       -7.4220    9.2430   31.8230 O.co2 1100  HEM1100     0.0000
     43  O2D       -7.2060   10.1550   33.8200 O.co2 1100  HEM1100     0.0000
@<TRIPOS>BOND
     1    30    27    1
     2    32    31    1
     3    24    23    1
     4    23    20    1
     5    27    28    2
     6    27    26    1
     7    31    28    1
     8     4    26    2
     9     4    21    1
    10    28    29    1
    11    26    25    1
    12    20    21   ar
    13    20    19   ar
    14    21    17   ar
    15    29    25    2
    16    29     5    1
    17    25     1    1
    18    19    22    1
    19    19    18   ar
    20    17    18   ar
    21    17     1    1
    22     5    34    2
    23    18     3    1
    24     1    33    1
    25     1     6    1
    26    34    33   ar
    27    34    35   ar
    28     3    10    2
    29    33    37   ar
    30    38    35    1
    31     6    10    1
    32     6     7    2
    33    35    36   ar
    34    10     9    1
    35    37    36   ar
    36    37     2    2
    37    36    39    1
    38     7     2    1
    39     7     8    1
    40     9    11    1
    41     9     8    2
    42    42    41   ar
    43     8    12    1
    44    39    40    1
    45    40    41    1
    46    41    43   ar
    47    12    13    1
    48    13    14    1
    49    14    15   ar
    50    14    16   ar
