@<TRIPOS>MOLECULE
1w2n_PN1_A_1.pdb
 24 26 0 0 0
SMALL
GASTEIGER

@<TRIPOS>ATOM
      1  C8        64.9430    9.4140   31.3660 C.ar  315  PN1315     -0.0003
      2  C5        66.0200   10.3810   29.4080 C.ar  315  PN1315      0.0038
      3  C6        72.2930   11.1240   25.5660 C.3   315  PN1315      0.0681
      4  N1        68.2520   10.0930   26.8240 N.am  315  PN1315     -0.1937
      5  C2        73.1760   11.9570   27.9080 C.2   315  PN1315      0.3833
      6  N3        71.5070   10.1140   27.6100 N.am  315  PN1315     -0.2594
      7  C4        66.1410   10.5920   27.9160 C.3   315  PN1315      0.1915
      8  C1        72.6880   12.3720   24.7680 C.3   315  PN1315      0.0131
      9  C3        67.0820    9.5990   27.2740 C.2   315  PN1315      0.2635
     10  C7        65.0210    9.5660   29.9740 C.ar  315  PN1315     -0.0024
     11  C9        65.8500   10.0690   32.2090 C.ar  315  PN1315     -0.0000
     12  C10       66.8450   10.8800   31.6650 C.ar  315  PN1315     -0.0003
     13  C11       66.9240   11.0300   30.2750 C.ar  315  PN1315     -0.0024
     14  C12       72.0250   11.4050   27.0780 C.3   315  PN1315      0.1888
     15  C13       70.7360    9.4980   26.4900 C.3   315  PN1315      0.1529
     16  C14       69.4470    9.4130   27.3150 C.3   315  PN1315      0.1996
     17  C15       70.2850   10.1220   28.3380 C.2   315  PN1315      0.2491
     18  C16       73.3870   10.0470   25.3930 C.3   315  PN1315      0.0131
     19  N2        64.8670   10.5110   27.2320 N.3   315  PN1315     -0.1182
     20  O1        72.9650   12.3250   29.0520 O.co2 315  PN1315     -0.2438
     21  O2        74.4190   12.0860   27.4470 O.co2 315  PN1315     -0.2438
     22  O3        66.7850    8.4060   27.2270 O.2   315  PN1315     -0.2714
     23  O4        70.0150   10.5620   29.4610 O.2   315  PN1315     -0.2729
     24  S1        70.7420   10.5720   25.0080 S.3   315  PN1315     -0.1184
@<TRIPOS>BOND
     1     8     3    1
     2    24     3    1
     3    24    15    1
     4    18     3    1
     5     3    14    1
     6    15    16    1
     7    15     6    1
     8     4     9   am
     9     4    16    1
    10    14     6    1
    11    14     5    1
    12    22     9    2
    13    19     7    1
    14     9     7    1
    15    16    17    1
    16    21     5   ar
    17     6    17   am
    18     5    20   ar
    19     7     2    1
    20    17    23    2
    21     2    10   ar
    22     2    13   ar
    23    10     1   ar
    24    13    12   ar
    25     1    11   ar
    26    12    11   ar
