@<TRIPOS>MOLECULE
1w2o_P1C_A_1.pdb
 24 25 0 0 0
SMALL
GASTEIGER

@<TRIPOS>ATOM
      1  C1        67.6290    3.8480   31.1240 C.2   1300  P1C1300     0.3819
      2  C2        68.5770    4.5530   30.1800 C.3   1300  P1C1300     0.1943
      3  C3        68.6000    6.0650   30.4420 C.3   1300  P1C1300     0.0311
      4  C4        69.6060    6.4660   31.5250 C.3   1300  P1C1300     0.0117
      5  C7        69.2210    7.7620   32.2500 C.3   1300  P1C1300     0.0869
      6  C10       70.4020    8.7120   32.2600 C.2   1300  P1C1300     0.2418
      7  N11       70.3450    9.7410   31.4080 N.am  1300  P1C1300    -0.1951
      8  C12       71.5300    9.9080   30.5550 C.3   1300  P1C1300     0.2002
      9  C13       72.2910   11.0530   30.0010 C.2   1300  P1C1300     0.2526
     10  N14       69.9140    3.9940   30.3110 N.3   1300  P1C1300    -0.1208
     11  O15       71.3700    8.4860   32.9800 O.2   1300  P1C1300    -0.2733
     12  C16       72.0880    9.0870   29.3800 C.3   1300  P1C1300     0.1570
     13  O18       72.3740   12.2330   30.2650 O.2   1300  P1C1300    -0.2726
     14  O19       67.4250    4.2700   32.2560 O.co2 1300  P1C1300    -0.2441
     15  O20       66.9950    2.7400   30.7300 O.co2 1300  P1C1300    -0.2441
     16  N29       72.9150   10.2850   28.9920 N.am  1300  P1C1300    -0.2421
     17  C30       72.8120   10.8840   27.7020 C.2   1300  P1C1300     0.1279
     18  C31       73.9240   11.5540   27.3270 C.2   1300  P1C1300     0.4006
     19  C32       71.6980   10.7820   26.9340 C.2   1300  P1C1300    -0.0129
     20  C33       71.6030   11.4190   25.5700 C.3   1300  P1C1300     0.0288
     21  C37       70.4630   10.0280   27.3980 C.3   1300  P1C1300     0.0826
     22  O42       74.0580   12.1350   26.2620 O.co2 1300  P1C1300    -0.2392
     23  O43       74.9660   11.5980   28.1500 O.co2 1300  P1C1300    -0.2392
     24  S         70.8580    8.4410   28.1960 S.3   1300  P1C1300    -0.1141
@<TRIPOS>BOND
     1    20    19    1
     2    22    18   ar
     3    19    21    1
     4    19    17    2
     5    18    17    1
     6    18    23   ar
     7    21    24    1
     8    17    16    1
     9    24    12    1
    10    16    12    1
    11    16     9   am
    12    12     8    1
    13     9    13    2
    14     9     8    1
    15     2    10    1
    16     2     3    1
    17     2     1    1
    18     3     4    1
    19     8     7    1
    20    15     1   ar
    21     1    14   ar
    22     7     6   am
    23     4     5    1
    24     5     6    1
    25     6    11    2
