@<TRIPOS>MOLECULE
1w2t_SUC_A_1.pdb
 23 24 0 0 0
SMALL
GASTEIGER

@<TRIPOS>ATOM
      1  C1       -36.1170  -18.3720   -2.4180 C.3   1434  SUC1434     0.2713
      2  C2       -35.7610  -18.4980   -3.9080 C.3   1434  SUC1434     0.2406
      3  C3       -37.1020  -18.5630   -4.6500 C.3   1434  SUC1434     0.2198
      4  C4       -37.9160  -19.7410   -4.0700 C.3   1434  SUC1434     0.2144
      5  C5       -37.9950  -19.6840   -2.5120 C.3   1434  SUC1434     0.1835
      6  C6       -38.6830  -20.8920   -1.9000 C.3   1434  SUC1434     0.2142
      7  O1       -36.5130  -17.0660   -2.0080 O.3   1434  SUC1434    -0.3033
      8  O2       -34.9440  -17.4180   -4.3010 O.3   1434  SUC1434    -0.2149
      9  O3       -36.9490  -18.6600   -6.0630 O.3   1434  SUC1434    -0.2174
     10  O4       -39.2340  -19.7450   -4.5920 O.3   1434  SUC1434    -0.2176
     11  O5       -36.7040  -19.5560   -1.9060 O.3   1434  SUC1434    -0.3256
     12  O6       -38.0010  -22.0560   -2.2990 O.3   1434  SUC1434    -0.2176
     13  C1'      -34.7660  -15.6650   -1.3090 C.3   1434  SUC1434     0.2406
     14  C2'      -36.0120  -16.4200   -0.8490 C.3   1434  SUC1434     0.2516
     15  C3'      -37.1550  -15.5020   -0.4110 C.3   1434  SUC1434     0.2381
     16  C4'      -37.9660  -16.4500    0.4330 C.3   1434  SUC1434     0.2167
     17  C5'      -36.8880  -17.2800    1.1230 C.3   1434  SUC1434     0.1835
     18  C6'      -37.3640  -18.6800    1.4960 C.3   1434  SUC1434     0.2142
     19  O1'      -33.6060  -16.4600   -1.1570 O.3   1434  SUC1434    -0.2149
     20  O2'      -35.7970  -17.3250    0.2220 O.3   1434  SUC1434    -0.3272
     21  O3'      -37.8910  -14.9520   -1.4940 O.3   1434  SUC1434    -0.2150
     22  O4'      -38.8060  -15.7900    1.3520 O.3   1434  SUC1434    -0.2175
     23  O6'      -36.6340  -19.1280    2.2630 O.3   1434  SUC1434    -0.2176
@<TRIPOS>BOND
     1     9     3    1
     2     3     4    1
     3     3     2    1
     4    10     4    1
     5     8     2    1
     6     4     5    1
     7     2     1    1
     8     5    11    1
     9     5     6    1
    10     1     7    1
    11     1    11    1
    12    12     6    1
    13     7    14    1
    14    21    15    1
    15    13    19    1
    16    13    14    1
    17    14    15    1
    18    14    20    1
    19    15    16    1
    20    20    17    1
    21    16    17    1
    22    16    22    1
    23    17    18    1
    24    18    23    1
