@<TRIPOS>MOLECULE
1w2t_GLA_E_1.pdb
 11 11 0 0 0
SMALL
GASTEIGER

@<TRIPOS>ATOM
      1  C1        13.1400   33.7770   32.5170 C.3   1435  GLA1435     0.1777
      2  C2        13.0340   34.6100   31.2490 C.3   1435  GLA1435     0.2141
      3  C3        14.3830   35.2670   30.9830 C.3   1435  GLA1435     0.2173
      4  C4        14.8320   36.0560   32.2100 C.3   1435  GLA1435     0.2142
      5  C5        14.8020   35.1710   33.4550 C.3   1435  GLA1435     0.1810
      6  C6        15.1510   35.9620   34.7110 C.3   1435  GLA1435     0.2141
      7  O2        12.6830   33.7730   30.1700 O.3   1435  GLA1435    -0.2176
      8  O3        14.3010   36.1090   29.8540 O.3   1435  GLA1435    -0.2175
      9  O4        13.9740   37.1580   32.3970 O.3   1435  GLA1435    -0.2176
     10  O5        13.5140   34.6060   33.6060 O.3   1435  GLA1435    -0.3481
     11  O6        15.4540   35.0650   35.7570 O.3   1435  GLA1435    -0.2176
@<TRIPOS>BOND
     1     8     3    1
     2     7     2    1
     3     3     2    1
     4     3     4    1
     5     2     1    1
     6     4     9    1
     7     4     5    1
     8     1    10    1
     9     5    10    1
    10     5     6    1
    11     6    11    1
