@<TRIPOS>MOLECULE
1w2u_BGC_A_1.pdb
 12 12 0 0 0
SMALL
GASTEIGER

@<TRIPOS>ATOM
      1  C2         0.6080   32.7920   53.1030 C.3   301  BGC301      0.2434
      2  C3         1.1270   31.3880   52.8180 C.3   301  BGC301      0.2199
      3  C4         0.1180   30.3320   53.2730 C.3   301  BGC301      0.2144
      4  C5        -1.3240   30.6920   52.9060 C.3   301  BGC301      0.1836
      5  C6        -2.3400   29.7820   53.5930 C.3   301  BGC301      0.2142
      6  C1        -0.8060   32.9420   52.5590 C.3   301  BGC301      0.3024
      7  O1        -1.2640   34.2550   52.7590 O.3   301  BGC301     -0.1869
      8  O2         1.4660   33.7370   52.5010 O.3   301  BGC301     -0.2148
      9  O3         2.3470   31.2010   53.5090 O.3   301  BGC301     -0.2174
     10  O4         0.4120   29.1480   52.5670 O.3   301  BGC301     -0.2176
     11  O5        -1.6100   32.0290   53.2790 O.3   301  BGC301     -0.3236
     12  O6        -3.6760   30.0710   53.1850 O.3   301  BGC301     -0.2176
@<TRIPOS>BOND
     1     8     1    1
     2     6     7    1
     3     6     1    1
     4     6    11    1
     5    10     3    1
     6     2     1    1
     7     2     3    1
     8     2     9    1
     9     4     3    1
    10     4    11    1
    11     4     5    1
    12    12     5    1
