@<TRIPOS>MOLECULE
1w2x_RCP_A_1.pdb
 36 41 0 0 0
SMALL
GASTEIGER

@<TRIPOS>ATOM
      1  C29       -5.2130   34.1310  -16.7800 C.3   3000  RCP3000     0.1255
      2  C30       -5.2190   35.6620  -16.7380 C.3   3000  RCP3000     0.1636
      3  O28       -4.2710   36.1310  -15.7640 O.3   3000  RCP3000    -0.3501
      4  C28       -2.9260   35.8120  -16.1540 C.3   3000  RCP3000     0.1636
      5  C27       -2.7390   34.2930  -16.1230 C.3   3000  RCP3000     0.1255
      6  N26       -3.8270   33.6090  -16.8610 N.am  3000  RCP3000    -0.2744
      7  C26       -3.5420   32.5310  -17.5870 C.2   3000  RCP3000     0.2267
      8  O26       -2.4030   32.0640  -17.5410 O.2   3000  RCP3000    -0.2748
      9  C25       -4.5960   31.8710  -18.4800 C.3   3000  RCP3000     0.0927
     10  C24       -3.9090   31.3610  -19.7490 C.3   3000  RCP3000     0.0812
     11  C23       -5.2420   30.7040  -17.7270 C.3   3000  RCP3000     0.0119
     12  C22       -6.0850   29.8080  -18.6400 C.3   3000  RCP3000     0.0179
     13  C21       -5.3100   29.4240  -19.9030 C.3   3000  RCP3000     0.0721
     14  N20       -4.8760   30.6460  -20.5970 N.3   3000  RCP3000    -0.2734
     15  C20       -4.2590   30.3420  -21.8990 C.3   3000  RCP3000     0.0609
     16  C19       -3.9080   31.6340  -22.6430 C.3   3000  RCP3000     0.0375
     17  C18       -3.1960   31.3300  -23.9640 C.3   3000  RCP3000     0.0951
     18  C17       -5.1840   29.4890  -22.7730 C.3   3000  RCP3000     0.0375
     19  C16       -4.5010   29.1270  -24.0950 C.3   3000  RCP3000     0.0951
     20  N15       -3.9980   30.3590  -24.7460 N.am  3000  RCP3000    -0.2760
     21  C15       -4.2740   30.5770  -26.0310 C.2   3000  RCP3000     0.2490
     22  O15       -4.7880   29.6770  -26.6940 O.2   3000  RCP3000    -0.2699
     23  C14       -3.9670   31.9270  -26.6890 C.ar  3000  RCP3000     0.0536
     24  C1        -2.8060   32.0900  -27.4410 C.ar  3000  RCP3000     0.0044
     25  C2        -1.8750   31.0580  -27.5480 C.ar  3000  RCP3000     0.0001
     26  C3        -0.7190   31.2230  -28.3050 C.ar  3000  RCP3000     0.0000
     27  C4        -0.4850   32.4260  -28.9630 C.ar  3000  RCP3000     0.0000
     28  C5        -1.4090   33.4610  -28.8590 C.ar  3000  RCP3000     0.0000
     29  C6        -2.5650   33.2950  -28.0990 C.ar  3000  RCP3000     0.0001
     30  C7        -3.4780   34.3400  -28.0010 C.ar  3000  RCP3000     0.0000
     31  C8        -4.6340   34.1820  -27.2420 C.ar  3000  RCP3000     0.0001
     32  C13       -4.8790   32.9760  -26.5840 C.ar  3000  RCP3000     0.0044
     33  C12       -6.0300   32.8450  -25.8130 C.ar  3000  RCP3000     0.0001
     34  C11       -6.9290   33.9020  -25.6960 C.ar  3000  RCP3000     0.0000
     35  C10       -6.6800   35.1020  -26.3550 C.ar  3000  RCP3000     0.0000
     36  C9        -5.5300   35.2390  -27.1290 C.ar  3000  RCP3000     0.0000
@<TRIPOS>BOND
     1    27    28   ar
     2    27    26   ar
     3    28    29   ar
     4    26    25   ar
     5    29    30   ar
     6    29    24   ar
     7    30    31   ar
     8    25    24   ar
     9    24    23   ar
    10    31    36   ar
    11    31    32   ar
    12    36    35   ar
    13    22    21    2
    14    23    32   ar
    15    23    21    1
    16    32    33   ar
    17    35    34   ar
    18    21    20   am
    19    33    34   ar
    20    20    19    1
    21    20    17    1
    22    19    18    1
    23    17    16    1
    24    18    15    1
    25    16    15    1
    26    15    14    1
    27    14    13    1
    28    14    10    1
    29    13    12    1
    30    10     9    1
    31    12    11    1
    32     9    11    1
    33     9     7    1
    34     7     8    2
    35     7     6   am
    36     6     1    1
    37     6     5    1
    38     1     2    1
    39     2     3    1
    40     4     5    1
    41     4     3    1
