@<TRIPOS>MOLECULE
1w2y_DUN_A_1.pdb
 24 25 0 0 0
SMALL
GASTEIGER

@<TRIPOS>ATOM
      1  N1        60.0180   56.6270   17.0090 N.am  1230  DUN1230    -0.1790
      2  C2        60.1900   55.2560   17.0260 C.1   1230  DUN1230     0.2844
      3  N3        59.7660   54.5700   18.0980 N.2   1230  DUN1230    -0.2452
      4  C4        59.1660   55.1370   19.1790 C.1   1230  DUN1230     0.2182
      5  C5        58.9830   56.5280   19.1590 C.2   1230  DUN1230     0.1242
      6  C6        59.4350   57.2150   18.0770 C.2   1230  DUN1230     0.0928
      7  O2        60.7270   54.7220   16.0250 O.2   1230  DUN1230    -0.1918
      8  O4        58.7990   54.4610   20.1500 O.2   1230  DUN1230    -0.2085
      9  C1'       60.5060   57.4030   15.8680 C.3   1230  DUN1230     0.2090
     10  C2'       59.8810   57.0570   14.5330 C.3   1230  DUN1230     0.0874
     11  C3'       59.9610   58.3530   13.7620 C.3   1230  DUN1230     0.1857
     12  C4'       60.3210   59.4360   14.7980 C.3   1230  DUN1230     0.1774
     13  O4'       60.3170   58.8000   16.0800 O.3   1230  DUN1230    -0.3339
     14  O3'       61.0180   58.2410   12.7810 O.3   1230  DUN1230    -0.2203
     15  C5'       59.4060   60.6420   14.8450 C.3   1230  DUN1230     0.1848
     16  O5'       59.8820   61.5340   15.8960 O.3   1230  DUN1230    -0.2775
     17  PA        59.1910   62.9590   16.0780 P.3   1230  DUN1230     0.4623
     18  O1A       57.7290   62.8720   15.6910 O.2   1230  DUN1230    -0.2354
     19  O2A       59.5370   63.3070   17.5020 O.3   1230  DUN1230    -0.1255
     20  PB        60.0050   64.0250   13.4500 P.3   1230  DUN1230     0.4884
     21  O1B       61.0410   62.9230   13.1420 O.3   1230  DUN1230    -0.1240
     22  O2B       60.4640   65.3600   12.9860 O.3   1230  DUN1230    -0.1240
     23  O3B       58.6020   63.6470   12.9490 O.2   1230  DUN1230    -0.2331
     24  N3A       60.0200   64.0570   15.1020 N.3   1230  DUN1230    -0.0165
@<TRIPOS>BOND
     1    14    11    1
     2    23    20    2
     3    22    20    1
     4    21    20    1
     5    20    24    1
     6    11    10    1
     7    11    12    1
     8    10     9    1
     9    12    15    1
    10    12    13    1
    11    15    16    1
    12    24    17    1
    13    18    17    2
    14     9    13    1
    15     9     1    1
    16    16    17    1
    17     7     2    2
    18    17    19    1
    19     1     2   am
    20     1     6    1
    21     2     3    2
    22     6     5    2
    23     3     4    2
    24     5     4    1
    25     4     8    2
