@<TRIPOS>MOLECULE
1w3a_LBT_A_1.pdb
 23 24 0 0 0
SMALL
GASTEIGER

@<TRIPOS>ATOM
      1  C1        56.3470   15.4250  -20.3160 C.3   1315  LBT1315     0.2695
      2  C2        57.1540   16.6940  -19.9780 C.3   1315  LBT1315     0.2406
      3  C3        57.3300   16.9670  -18.4740 C.3   1315  LBT1315     0.2198
      4  C4        56.1240   16.5460  -17.6340 C.3   1315  LBT1315     0.2144
      5  C5        55.6110   15.1780  -18.0710 C.3   1315  LBT1315     0.1835
      6  C6        54.4100   14.7230  -17.2440 C.3   1315  LBT1315     0.2142
      7  O1        55.8630   15.5270  -21.6540 O.3   1315  LBT1315    -0.3257
      8  O2        58.4360   16.6250  -20.5800 O.3   1315  LBT1315    -0.2149
      9  O3        57.5850   18.3430  -18.2650 O.3   1315  LBT1315    -0.2174
     10  O4        55.1000   17.5050  -17.7610 O.3   1315  LBT1315    -0.2176
     11  O5        55.2520   15.2440  -19.4360 O.3   1315  LBT1315    -0.3256
     12  O6        54.8090   14.3740  -15.9400 O.3   1315  LBT1315    -0.2176
     13  C1'       55.8590   12.6070  -24.5870 C.3   1315  LBT1315     0.3023
     14  C2'       54.4680   13.0310  -24.0990 C.3   1315  LBT1315     0.2433
     15  C3'       54.5480   14.3410  -23.3330 C.3   1315  LBT1315     0.2168
     16  C4'       55.8390   14.3820  -22.5000 C.3   1315  LBT1315     0.1804
     17  C5'       57.0710   14.3650  -23.4300 C.3   1315  LBT1315     0.1804
     18  C6'       58.3570   13.8570  -22.7570 C.3   1315  LBT1315     0.2141
     19  O1'       55.7970   11.7950  -25.7580 O.3   1315  LBT1315    -0.1869
     20  O2'       53.5190   13.1390  -25.1460 O.3   1315  LBT1315    -0.2148
     21  O3'       53.3820   14.4050  -22.5450 O.3   1315  LBT1315    -0.2175
     22  O5'       56.8400   13.6490  -24.6450 O.3   1315  LBT1315    -0.3237
     23  O6'       58.2740   12.4960  -22.3850 O.3   1315  LBT1315    -0.2176
@<TRIPOS>BOND
     1    19    13    1
     2    20    14    1
     3    22    13    1
     4    22    17    1
     5    13    14    1
     6    14    15    1
     7    17    18    1
     8    17    16    1
     9    15    21    1
    10    15    16    1
    11    18    23    1
    12    16     7    1
    13     7     1    1
    14     8     2    1
    15     1     2    1
    16     1    11    1
    17     2     3    1
    18    11     5    1
    19     3     9    1
    20     3     4    1
    21     5     4    1
    22     5     6    1
    23    10     4    1
    24     6    12    1
