@<TRIPOS>MOLECULE
1w3c_DN1_A_1.pdb
 39 41 0 0 0
SMALL
GASTEIGER

@<TRIPOS>ATOM
      1  N1        65.0130   25.3870    3.5740 N.2   1176  DN11176    -0.2651
      2  C2        65.9280   24.1870    3.7600 C.3   1176  DN11176     0.1625
      3  C1        66.0500   23.4140    2.4010 C.2   1176  DN11176     0.2660
      4  O2        65.2710   22.4860    2.0850 O.2   1176  DN11176    -0.2710
      5  N3        67.0700   23.7390    1.5620 N.am  1176  DN11176    -0.1774
      6  C4        67.7810   22.7230    0.8250 C.2   1176  DN11176     0.1059
      7  C5        68.6090   23.2660   -0.3260 C.3   1176  DN11176     0.0480
      8  C6        66.8840   24.9580   -1.0520 C.3   1176  DN11176     0.0004
      9  C7        69.2910   25.4350   -1.4760 C.3   1176  DN11176     0.0004
     10  C8        68.3050   24.7760   -0.5240 C.3   1176  DN11176     0.0059
     11  C9        67.4890   21.2660    0.9160 C.2   1176  DN11176     0.2761
     12  O10       67.8700   20.4820    1.8090 O.2   1176  DN11176    -0.2673
     13  N11       66.6400   20.6690   -0.0380 N.am  1176  DN11176    -0.1992
     14  C12       66.3410   19.2230    0.2350 C.3   1176  DN11176     0.1428
     15  C13       66.6350   18.8810    1.6900 C.3   1176  DN11176     0.0971
     16  C14       65.5520   18.7510    2.6980 C.3   1176  DN11176     0.3204
     17  F15       64.4110   19.0890    2.4260 F     1176  DN11176    -0.1984
     18  F16       65.8120   19.3980    3.7200 F     1176  DN11176    -0.1984
     19  C17       67.1410   18.3000   -0.8300 C.3   1176  DN11176     0.2738
     20  C18       67.6660   16.9990   -0.0720 C.2   1176  DN11176     0.3964
     21  O19       68.1270   17.0570    1.1080 O.co2 1176  DN11176    -0.2428
     22  O20       67.5480   15.8940   -0.6750 O.co2 1176  DN11176    -0.2428
     23  O21       68.3120   19.0040   -1.2940 O.3   1176  DN11176    -0.2090
     24  C22       65.2230   23.2900    4.8400 C.3   1176  DN11176     0.0587
     25  C23       67.2730   24.7290    4.3490 C.3   1176  DN11176     0.0592
     26  C24       65.7600   26.4960    4.0110 C.2   1176  DN11176     0.0719
     27  C25       67.0300   26.1990    4.4690 C.2   1176  DN11176    -0.0065
     28  C26       65.2790   27.7890    4.0180 C.2   1176  DN11176     0.0141
     29  C27       67.8780   27.1960    4.9350 C.2   1176  DN11176    -0.0241
     30  C28       67.4080   28.5150    4.9420 C.3   1176  DN11176     0.0518
     31  C29       66.1110   28.8180    4.4840 C.2   1176  DN11176    -0.0199
     32  C30       66.2700   22.4860    5.6120 C.ar  1176  DN11176    -0.0069
     33  C31       67.2140   21.5810    5.0110 C.ar  1176  DN11176     0.0035
     34  C32       68.3010   21.3100    5.8180 C.ar  1176  DN11176     0.0353
     35  S33       68.2030   22.1580    7.3000 S.2   1176  DN11176    -0.0802
     36  C34       66.7350   22.8760    6.8610 C.ar  1176  DN11176     0.1053
     37  C35       66.0140   23.9240    7.6170 C.2   1176  DN11176     0.3933
     38  O36       66.5060   24.1300    8.7610 O.co2 1176  DN11176    -0.2400
     39  O37       65.0250   24.4460    7.0200 O.co2 1176  DN11176    -0.2400
@<TRIPOS>BOND
     1     9    10    1
     2    23    19    1
     3     8    10    1
     4    19    20    1
     5    19    14    1
     6    22    20   ar
     7    10     7    1
     8     7     6    1
     9    20    21   ar
    10    13    14    1
    11    13    11   am
    12    14    15    1
    13     6    11    1
    14     6     5    2
    15    11    12    2
    16     5     3    1
    17    15    16    1
    18     4     3    2
    19     3     2    1
    20    17    16    1
    21    16    18    1
    22     1     2    1
    23     1    26    2
    24     2    25    1
    25     2    24    1
    26    26    28    1
    27    26    27    1
    28    28    31    2
    29    25    27    1
    30    27    29    2
    31    31    30    1
    32    24    32    1
    33    29    30    1
    34    33    32   ar
    35    33    34   ar
    36    32    36   ar
    37    34    35   ar
    38    36    35   ar
    39    36    37    1
    40    39    37   ar
    41    37    38   ar
