@<TRIPOS>MOLECULE
1w3c_DN2_B_1.pdb
 39 41 0 0 0
SMALL
GASTEIGER

@<TRIPOS>ATOM
      1  N1        23.4510   29.4900   -3.5480 N.2   1176  DN21176    -0.2651
      2  C2        22.7310   28.1410   -3.6380 C.3   1176  DN21176     0.1622
      3  C1        22.8360   27.4090   -2.2500 C.2   1176  DN21176     0.2624
      4  O2        23.8490   26.6910   -2.0810 O.2   1176  DN21176    -0.2713
      5  N3        21.8910   27.5710   -1.2700 N.am  1176  DN21176    -0.1962
      6  C4        21.7770   26.5990   -0.1700 C.3   1176  DN21176     0.1728
      7  C5        20.5400   26.8760    0.7100 C.3   1176  DN21176     0.0311
      8  C6        19.0500   28.7080    1.7530 C.3   1176  DN21176     0.0001
      9  C7        21.5990   28.7560    1.9720 C.3   1176  DN21176     0.0001
     10  C8        20.3970   28.3550    1.1210 C.3   1176  DN21176     0.0022
     11  C9        21.6740   25.1740   -0.7730 C.2   1176  DN21176     0.2613
     12  O10       21.0320   24.9740   -1.8140 O.2   1176  DN21176    -0.2715
     13  N11       22.6910   24.3390   -0.3030 N.am  1176  DN21176    -0.2023
     14  C12       22.6530   22.8920   -0.4820 C.3   1176  DN21176     0.1425
     15  C13       23.8430   22.1940   -1.1580 C.3   1176  DN21176     0.0971
     16  C14       24.3810   22.8820   -2.3980 C.3   1176  DN21176     0.3204
     17  F15       23.5240   22.8010   -3.2760 F     1176  DN21176    -0.1984
     18  F16       24.4620   24.0830   -2.1690 F     1176  DN21176    -0.1984
     19  C17       22.1050   22.0800    0.8240 C.3   1176  DN21176     0.2737
     20  C18       21.7150   20.6770    0.1120 C.2   1176  DN21176     0.3964
     21  O19       20.7510   20.7420   -0.7060 O.co2 1176  DN21176    -0.2428
     22  O20       22.4440   19.7160    0.4440 O.co2 1176  DN21176    -0.2428
     23  O21       20.7940   22.6400    1.1420 O.3   1176  DN21176    -0.2090
     24  C22       23.6010   27.3880   -4.7070 C.3   1176  DN21176     0.0587
     25  C23       21.3180   28.4200   -4.2250 C.3   1176  DN21176     0.0592
     26  C24       22.5440   30.4300   -4.0590 C.2   1176  DN21176     0.0719
     27  C25       21.3350   29.8930   -4.4700 C.2   1176  DN21176    -0.0065
     28  C26       22.8030   31.7820   -4.1820 C.2   1176  DN21176     0.0141
     29  C27       20.3340   30.6880   -5.0160 C.2   1176  DN21176    -0.0241
     30  C28       20.5690   32.0550   -5.1320 C.3   1176  DN21176     0.0518
     31  C29       21.8030   32.5950   -4.7180 C.2   1176  DN21176    -0.0199
     32  C30       22.9530   26.2310   -5.4730 C.ar  1176  DN21176    -0.0069
     33  C31       22.1090   25.2520   -4.8360 C.ar  1176  DN21176     0.0035
     34  C32       21.0930   24.7850   -5.6380 C.ar  1176  DN21176     0.0353
     35  S33       21.1240   25.5290   -7.1740 S.2   1176  DN21176    -0.0802
     36  C34       22.4780   26.4550   -6.7700 C.ar  1176  DN21176     0.1053
     37  C35       22.9690   27.6280   -7.5280 C.2   1176  DN21176     0.3933
     38  O36       23.9700   28.1990   -6.9810 O.co2 1176  DN21176    -0.2400
     39  O37       22.3890   27.9540   -8.5940 O.co2 1176  DN21176    -0.2400
@<TRIPOS>BOND
     1    39    37   ar
     2    37    38   ar
     3    37    36    1
     4    35    36   ar
     5    35    34   ar
     6    36    32   ar
     7    34    33   ar
     8    32    33   ar
     9    32    24    1
    10    30    29    1
    11    30    31    1
    12    29    27    2
    13    31    28    2
    14    24     2    1
    15    27    25    1
    16    27    26    1
    17    25     2    1
    18    28    26    1
    19    26     1    2
    20     2     1    1
    21     2     3    1
    22    17    16    1
    23    16    18    1
    24    16    15    1
    25     3     4    2
    26     3     5   am
    27    12    11    2
    28     5     6    1
    29    15    14    1
    30    11    13   am
    31    11     6    1
    32    21    20   ar
    33    14    13    1
    34    14    19    1
    35     6     7    1
    36    20    22   ar
    37    20    19    1
    38     7    10    1
    39    19    23    1
    40    10     8    1
    41    10     9    1
