@<TRIPOS>MOLECULE
1w3f_NLC_A_1.pdb
 26 27 0 0 0
SMALL
GASTEIGER

@<TRIPOS>ATOM
      1  C1         4.7610   74.8330  121.6660 C.3   1320  NLC1320     0.2917
      2  O1         5.0910   73.7380  122.4710 O.3   1320  NLC1320    -0.1879
      3  C2         3.5520   74.5150  120.7060 C.3   1320  NLC1320     0.1870
      4  N          2.3770   74.1230  121.4810 N.am  1320  NLC1320    -0.1991
      5  C7         1.5140   75.0310  121.9810 C.2   1320  NLC1320     0.2420
      6  C8         0.3470   74.4430  122.7690 C.3   1320  NLC1320     0.0964
      7  O7         1.6440   76.2750  121.8220 O.2   1320  NLC1320    -0.2733
      8  C3         3.9970   73.3780  119.7800 C.3   1320  NLC1320     0.2063
      9  O3         2.9700   73.0240  118.8660 O.3   1320  NLC1320    -0.2184
     10  C4         5.2350   73.7910  118.9680 C.3   1320  NLC1320     0.1796
     11  O4         5.5960   72.6630  118.1660 O.3   1320  NLC1320    -0.3258
     12  C5         6.4160   74.2380  119.9390 C.3   1320  NLC1320     0.1803
     13  C6         7.5310   75.0890  119.3450 C.3   1320  NLC1320     0.2141
     14  O6         8.1870   74.4310  118.4320 O.3   1320  NLC1320    -0.2176
     15  O5         5.8850   75.1840  120.8720 O.3   1320  NLC1320    -0.3243
     16  C12        6.3410   71.2340  116.4430 C.3   1320  NLC1320     0.2406
     17  O12        7.6370   71.0520  117.0250 O.3   1320  NLC1320    -0.2149
     18  C13        6.4910   71.0080  114.9000 C.3   1320  NLC1320     0.2198
     19  O13        6.7250   69.6250  114.6430 O.3   1320  NLC1320    -0.2174
     20  C14        5.2440   71.4820  114.1340 C.3   1320  NLC1320     0.2144
     21  C15        4.8530   72.9340  114.5380 C.3   1320  NLC1320     0.1835
     22  C16        3.6190   73.4260  113.7840 C.3   1320  NLC1320     0.2142
     23  C10        5.6920   72.6240  116.8170 C.3   1320  NLC1320     0.2695
     24  O16        3.9390   73.7940  112.4670 O.3   1320  NLC1320    -0.2176
     25  O15        4.6050   73.0030  115.9540 O.3   1320  NLC1320    -0.3256
     26  O40        4.1700   70.6040  114.4220 O.3   1320  NLC1320    -0.2176
@<TRIPOS>BOND
     1    24    22    1
     2    22    21    1
     3    20    26    1
     4    20    21    1
     5    20    18    1
     6    21    25    1
     7    19    18    1
     8    18    16    1
     9    25    23    1
    10    16    23    1
    11    16    17    1
    12    23    11    1
    13    11    10    1
    14    14    13    1
    15     9     8    1
    16    10     8    1
    17    10    12    1
    18    13    12    1
    19     8     3    1
    20    12    15    1
    21     3     4    1
    22     3     1    1
    23    15     1    1
    24     4     5   am
    25     1     2    1
    26     7     5    2
    27     5     6    1
