@<TRIPOS>MOLECULE
1w3g_NLC_A_1.pdb
 26 27 0 0 0
SMALL
GASTEIGER

@<TRIPOS>ATOM
      1  C1        55.7080   13.1640  -25.2220 C.3   1319  NLC1319     0.2917
      2  O1        56.0710   14.2380  -26.0460 O.3   1319  NLC1319    -0.1879
      3  C2        54.4850   13.5320  -24.3190 C.3   1319  NLC1319     0.1870
      4  N         53.3490   13.9140  -25.1560 N.am  1319  NLC1319    -0.1991
      5  C7        52.4000   13.0320  -25.5220 C.2   1319  NLC1319     0.2420
      6  C8        51.2940   13.6060  -26.3990 C.3   1319  NLC1319     0.0964
      7  O7        52.4100   11.8200  -25.1770 O.2   1319  NLC1319    -0.2733
      8  C3        54.9240   14.6950  -23.4170 C.3   1319  NLC1319     0.2063
      9  O3        53.8840   15.0970  -22.5410 O.3   1319  NLC1319    -0.2184
     10  C4        56.1240   14.2970  -22.5530 C.3   1319  NLC1319     0.1796
     11  O4        56.4770   15.4500  -21.7770 O.3   1319  NLC1319    -0.3258
     12  C5        57.3260   13.7960  -23.4710 C.3   1319  NLC1319     0.1803
     13  C6        58.4120   12.9560  -22.8090 C.3   1319  NLC1319     0.2141
     14  O6        59.0510   13.6480  -21.9080 O.3   1319  NLC1319    -0.2176
     15  O5        56.8020   12.8200  -24.3810 O.3   1319  NLC1319    -0.3243
     16  C12       57.1960   16.9030  -20.0440 C.3   1319  NLC1319     0.2406
     17  O12       58.5000   17.1030  -20.6180 O.3   1319  NLC1319    -0.2149
     18  C13       57.3190   17.1170  -18.4890 C.3   1319  NLC1319     0.2198
     19  O13       57.5780   18.4910  -18.2030 O.3   1319  NLC1319    -0.2174
     20  C14       56.0450   16.6500  -17.7570 C.3   1319  NLC1319     0.2144
     21  C15       55.6750   15.1950  -18.1640 C.3   1319  NLC1319     0.1835
     22  C16       54.4220   14.6870  -17.4460 C.3   1319  NLC1319     0.2142
     23  C10       56.5580   15.5050  -20.4280 C.3   1319  NLC1319     0.2695
     24  O16       54.7010   14.3290  -16.1180 O.3   1319  NLC1319    -0.2176
     25  O15       55.4590   15.1270  -19.5850 O.3   1319  NLC1319    -0.3256
     26  O40       54.9740   17.5110  -18.0950 O.3   1319  NLC1319    -0.2176
@<TRIPOS>BOND
     1     6     5    1
     2     2     1    1
     3     5     7    2
     4     5     4   am
     5     1    15    1
     6     1     3    1
     7     4     3    1
     8    15    12    1
     9     3     8    1
    10    12    13    1
    11    12    10    1
    12     8    10    1
    13     8     9    1
    14    13    14    1
    15    10    11    1
    16    11    23    1
    17    17    16    1
    18    23    16    1
    19    23    25    1
    20    16    18    1
    21    25    21    1
    22    18    19    1
    23    18    20    1
    24    21    20    1
    25    21    22    1
    26    26    20    1
    27    22    24    1
