@<TRIPOS>MOLECULE
1w3j_OXZ_A_1.pdb
 10 10 0 0 0
SMALL
GASTEIGER

@<TRIPOS>ATOM
      1  C6        -3.1290    9.5980    8.7350 C.3   1447  OXZ1447     0.2163
      2  C5        -2.1270   10.7340    8.9770 C.3   1447  OXZ1447     0.2048
      3  C4        -0.9830   10.7330    7.9360 C.3   1447  OXZ1447     0.2152
      4  C3        -0.0710   11.9460    8.2280 C.3   1447  OXZ1447     0.2046
      5  C2         0.5250   11.8380    9.6390 C.3   1447  OXZ1447     0.1569
      6  O6        -2.5250    8.3170    8.9190 O.3   1447  OXZ1447    -0.2175
      7  O5        -1.5250   10.5350   10.2500 O.3   1447  OXZ1447    -0.2633
      8  O4        -1.4550   10.7730    6.6030 O.3   1447  OXZ1447    -0.2176
      9  O3         0.9780   12.1350    7.2910 O.3   1447  OXZ1447    -0.2187
     10  N1        -0.5220   11.5910   10.6400 N.4   1447  OXZ1447    -0.0808
@<TRIPOS>BOND
     1     8     3    1
     2     9     4    1
     3     3     4    1
     4     3     2    1
     5     4     5    1
     6     1     6    1
     7     1     2    1
     8     2     7    1
     9     5    10    1
    10     7    10    1
