@<TRIPOS>MOLECULE
1w3k_OXZ_A_1.pdb
 10 10 0 0 0
SMALL
GASTEIGER

@<TRIPOS>ATOM
      1  C6        63.3200   43.9820   37.3350 C.3   1305  OXZ1305     0.2163
      2  C5        62.6850   43.5230   36.0370 C.3   1305  OXZ1305     0.2048
      3  C4        61.2830   44.1120   35.8030 C.3   1305  OXZ1305     0.2152
      4  C3        60.6870   43.5210   34.5170 C.3   1305  OXZ1305     0.2046
      5  C2        60.6940   41.9790   34.5970 C.3   1305  OXZ1305     0.1569
      6  O6        62.4830   43.6730   38.4460 O.3   1305  OXZ1305    -0.2175
      7  O5        62.5750   42.1090   36.1740 O.3   1305  OXZ1305    -0.2633
      8  O4        61.3510   45.5240   35.6570 O.3   1305  OXZ1305    -0.2176
      9  O3        59.3770   43.9260   34.2980 O.3   1305  OXZ1305    -0.2187
     10  N1        62.0470   41.5380   34.9520 N.4   1305  OXZ1305    -0.0808
@<TRIPOS>BOND
     1     9     4    1
     2     4     5    1
     3     4     3    1
     4     5    10    1
     5    10     7    1
     6     8     3    1
     7     3     2    1
     8     2     7    1
     9     2     1    1
    10     1     6    1
