@<TRIPOS>MOLECULE
1w3k_BGC_A_1.pdb
 11 11 0 0 0
SMALL
GASTEIGER

@<TRIPOS>ATOM
      1  C2        61.3170   47.7350   36.3720 C.3   1304  BGC1304     0.2141
      2  C3        60.6690   48.6770   37.3990 C.3   1304  BGC1304     0.2173
      3  C4        59.1680   48.4110   37.5300 C.3   1304  BGC1304     0.2142
      4  C5        58.9480   46.9260   37.8160 C.3   1304  BGC1304     0.1810
      5  C6        57.4890   46.5200   37.9400 C.3   1304  BGC1304     0.2141
      6  C1        60.9700   46.2910   36.7050 C.3   1304  BGC1304     0.1777
      7  O2        62.7210   47.9140   36.3200 O.3   1304  BGC1304    -0.2176
      8  O3        60.8770   50.0310   37.0260 O.3   1304  BGC1304    -0.2175
      9  O4        58.6050   49.1900   38.5770 O.3   1304  BGC1304    -0.2176
     10  O5        59.5490   46.1750   36.7550 O.3   1304  BGC1304    -0.3481
     11  O6        56.8470   46.7590   36.6990 O.3   1304  BGC1304    -0.2176
@<TRIPOS>BOND
     1     7     1    1
     2     1     6    1
     3     1     2    1
     4    11     5    1
     5     6    10    1
     6    10     4    1
     7     8     2    1
     8     2     3    1
     9     3     4    1
    10     3     9    1
    11     4     5    1
