@<TRIPOS>MOLECULE
1w3l_OXZ_A_1.pdb
 10 10 0 0 0
SMALL
GASTEIGER

@<TRIPOS>ATOM
      1  C6        63.7750   43.9770   37.3560 C.3   1309  OXZ1309     0.2163
      2  C5        63.1240   43.5370   36.0590 C.3   1309  OXZ1309     0.2048
      3  C4        61.7440   44.1490   35.8230 C.3   1309  OXZ1309     0.2152
      4  C3        61.1750   43.5330   34.5440 C.3   1309  OXZ1309     0.2046
      5  C2        61.1970   42.0050   34.6670 C.3   1309  OXZ1309     0.1569
      6  O6        62.9190   43.7010   38.4670 O.3   1309  OXZ1309    -0.2175
      7  O5        63.0070   42.1210   36.1800 O.3   1309  OXZ1309    -0.2633
      8  O4        61.8560   45.5440   35.6470 O.3   1309  OXZ1309    -0.2176
      9  O3        59.8120   43.8900   34.3420 O.3   1309  OXZ1309    -0.2187
     10  N1        62.5530   41.5600   34.9400 N.4   1309  OXZ1309    -0.0808
@<TRIPOS>BOND
     1     9     4    1
     2     4     5    1
     3     4     3    1
     4     5    10    1
     5    10     7    1
     6     8     3    1
     7     3     2    1
     8     2     7    1
     9     2     1    1
    10     1     6    1
