@<TRIPOS>MOLECULE
1w3l_BGC_A_1.pdb
 11 11 0 0 0
SMALL
GASTEIGER

@<TRIPOS>ATOM
      1  C2        57.2280   50.5890   39.1650 C.3   1307  BGC1307     0.2141
      2  C3        56.0560   51.4800   38.7980 C.3   1307  BGC1307     0.2173
      3  C4        56.4420   52.5320   37.7770 C.3   1307  BGC1307     0.2142
      4  C5        57.1650   51.8770   36.6160 C.3   1307  BGC1307     0.1810
      5  C6        57.6590   52.8670   35.5900 C.3   1307  BGC1307     0.2141
      6  C1        57.8970   50.0560   37.9120 C.3   1307  BGC1307     0.1777
      7  O2        56.8190   49.5010   39.9810 O.3   1307  BGC1307    -0.2176
      8  O3        55.5610   52.0680   39.9820 O.3   1307  BGC1307    -0.2175
      9  O4        55.2880   53.1980   37.3160 O.3   1307  BGC1307    -0.2176
     10  O5        58.2780   51.1210   37.0700 O.3   1307  BGC1307    -0.3481
     11  O6        58.5850   53.7430   36.1960 O.3   1307  BGC1307    -0.2176
@<TRIPOS>BOND
     1     5    11    1
     2     5     4    1
     3     4    10    1
     4     4     3    1
     5    10     6    1
     6     9     3    1
     7     3     2    1
     8     6     1    1
     9     2     1    1
    10     2     8    1
    11     1     7    1
