@<TRIPOS>MOLECULE
1w3n_SSH_A_1.pdb
 11 10 0 0 0
SMALL
GASTEIGER

@<TRIPOS>ATOM
      1  O2       -14.0980   62.1030   12.5840 O.co2 1295  SSH1295    -0.2457
      2  C1       -14.3380   62.7500   13.6630 C.2   1295  SSH1295     0.3649
      3  O1       -14.6530   63.9750   13.7040 O.co2 1295  SSH1295    -0.2457
      4  C2       -14.2300   62.1180   15.0080 C.3   1295  SSH1295     0.1168
      5  C3       -13.6100   60.7200   15.0790 C.3   1295  SSH1295     0.0474
      6  C4       -12.0440   60.9320   15.2000 C.3   1295  SSH1295     0.1853
      7  O4       -11.8050   62.3520   15.2300 O.3   1295  SSH1295    -0.2203
      8  C5       -11.3080   60.3340   13.9840 C.3   1295  SSH1295     0.2148
      9  O5       -11.8120   58.9950   13.8400 O.3   1295  SSH1295    -0.2176
     10  C6        -9.7850   60.1520   14.1640 C.3   1295  SSH1295     0.2174
     11  O6        -9.2890   59.8540   12.8480 O.3   1295  SSH1295    -0.2175
@<TRIPOS>BOND
     1     1     2   ar
     2    11    10    1
     3     2     3   ar
     4     2     4    1
     5     9     8    1
     6     8    10    1
     7     8     6    1
     8     4     5    1
     9     5     6    1
    10     6     7    1
