@<TRIPOS>MOLECULE
1w3r_2MN_A_1.pdb
 12 12 0 0 0
SMALL
GASTEIGER

@<TRIPOS>ATOM
      1  OHD      -10.1970   14.9130    2.5730 O.3   1198  2MN1198    -0.2182
      2  CB6      -11.3310   15.4060    2.0770 C.3   1198  2MN1198     0.2065
      3  CB5      -11.5320   16.6480    2.0870 C.3   1198  2MN1198     0.1442
      4  NC1      -10.6130   17.4910    1.7560 N.ar  1198  2MN1198    -0.2937
      5  CC3      -10.0430   17.5970    0.5610 C.ar  1198  2MN1198     0.1221
      6  CA5      -10.1670   16.9500   -0.7610 C.3   1198  2MN1198     0.0719
      7  NC4       -9.1020   18.5690    0.5680 N.ar  1198  2MN1198    -0.2275
      8  CC5       -9.0840   19.0770    1.8190 C.ar  1198  2MN1198     0.1422
      9  CC2      -10.0400   18.3900    2.5600 C.ar  1198  2MN1198     0.2260
     10  NO       -10.2900   18.6440    3.8750 N.pl3 1198  2MN1198     0.0758
     11  OB       -11.1430   17.9920    4.4550 O.2   1198  2MN1198    -0.1246
     12  OA        -9.6580   19.5190    4.4630 O.2   1198  2MN1198    -0.1246
@<TRIPOS>BOND
     1     6     5    1
     2     5     7   ar
     3     5     4   ar
     4     7     8   ar
     5     4     3    1
     6     4     9   ar
     7     8     9   ar
     8     2     3    1
     9     2     1    1
    10     9    10    1
    11    10    11    2
    12    10    12    2
