@<TRIPOS>MOLECULE
1w3t_RSH_A_1.pdb
 11 10 0 0 0
SMALL
GASTEIGER

@<TRIPOS>ATOM
      1  O2       -14.0280   62.8160   12.5680 O.co2 1295  RSH1295    -0.2457
      2  C1       -13.9990   63.4260   13.6570 C.2   1295  RSH1295     0.3649
      3  O1       -13.8250   64.6770   13.7050 O.co2 1295  RSH1295    -0.2457
      4  C2       -14.1870   62.6620   14.9070 C.3   1295  RSH1295     0.1168
      5  C3       -13.0970   61.6870   15.3620 C.3   1295  RSH1295     0.0474
      6  C4       -11.6900   62.0340   14.7970 C.3   1295  RSH1295     0.1853
      7  O4       -10.9260   62.6590   15.8400 O.3   1295  RSH1295    -0.2203
      8  C5       -10.9530   60.7880   14.1470 C.3   1295  RSH1295     0.2148
      9  O5        -9.5490   60.6730   14.4680 O.3   1295  RSH1295    -0.2176
     10  C6       -10.9360   60.8510   12.6000 C.3   1295  RSH1295     0.2174
     11  O6       -11.3190   59.5960   11.9710 O.3   1295  RSH1295    -0.2175
@<TRIPOS>BOND
     1    11    10    1
     2     1     2   ar
     3    10     8    1
     4     2     3   ar
     5     2     4    1
     6     8     9    1
     7     8     6    1
     8     6     5    1
     9     6     7    1
    10     4     5    1
