@<TRIPOS>MOLECULE
1w3u_PLP_A_1.pdb
 15 15 0 0 0
SMALL
GASTEIGER

@<TRIPOS>ATOM
      1  N1        23.9190    4.9580   14.5630 N.ar  1363  PLP1363    -0.2452
      2  C2        23.0970    3.9080   14.2860 C.ar  1363  PLP1363     0.0978
      3  C2A       22.1700    3.9970   13.0730 C.3   1363  PLP1363     0.0555
      4  C3        23.1230    2.7990   15.1060 C.ar  1363  PLP1363     0.2049
      5  O3        22.2800    1.7730   14.7980 O.3   1363  PLP1363    -0.2857
      6  C4        23.9570    2.7590   16.1970 C.ar  1363  PLP1363     0.0182
      7  C4A       24.0510    1.5330   17.1320 C.3   1363  PLP1363     0.0342
      8  C5        24.7930    3.8350   16.4610 C.ar  1363  PLP1363     0.0261
      9  C6        24.7590    4.9210   15.6310 C.ar  1363  PLP1363     0.0965
     10  C5A       25.7500    3.8530   17.6380 C.3   1363  PLP1363     0.1815
     11  O4P       26.8840    3.0140   17.4640 O.3   1363  PLP1363    -0.2653
     12  P         27.9750    2.9240   18.5920 P.3   1363  PLP1363     0.5329
     13  O1P       29.1010    2.0810   18.0380 O.2   1363  PLP1363    -0.2224
     14  O2P       27.3450    2.2810   19.7960 O.3   1363  PLP1363    -0.1145
     15  O3P       28.4440    4.3300   18.8900 O.3   1363  PLP1363    -0.1145
@<TRIPOS>BOND
     1     3     2    1
     2     2     1   ar
     3     2     4   ar
     4     1     9   ar
     5     5     4    1
     6     4     6   ar
     7     9     8   ar
     8     6     8   ar
     9     6     7    1
    10     8    10    1
    11    11    10    1
    12    11    12    1
    13    13    12    2
    14    12    15    1
    15    12    14    1
