@<TRIPOS>MOLECULE
1w3v_MDZ_A_1.pdb
 25 24 0 0 0
SMALL
GASTEIGER

@<TRIPOS>ATOM
      1  O43        4.5840   36.5520    4.8960 O.co2 1333  MDZ1333    -0.2416
      2  C31        5.5050   37.3400    5.1260 C.2   1333  MDZ1333     0.4041
      3  O42        5.4200   38.1630    6.0490 O.co2 1333  MDZ1333    -0.2416
      4  C30        6.7390   37.2740    4.2660 C.3   1333  MDZ1333     0.2704
      5  O29        7.6120   38.3550    4.6780 O.3   1333  MDZ1333    -0.4393
      6  C13        8.9790   38.1060    4.6220 C.2   1333  MDZ1333     0.3383
      7  O18        9.3850   36.9850    4.4200 O.2   1333  MDZ1333    -0.2482
      8  C12        9.8170   39.2940    4.8540 C.3   1333  MDZ1333     0.2040
      9  C16        9.4410   40.3950    3.8410 C.3   1333  MDZ1333     0.0888
     10  S17        9.6910   39.8550    2.1440 S.3   1333  MDZ1333    -0.0807
     11  C25       10.2660   41.6510    4.1010 C.3   1333  MDZ1333     0.0149
     12  N11       11.2070   38.8670    4.7670 N.am  1333  MDZ1333    -0.1948
     13  C10       12.1330   39.2510    5.6140 C.2   1333  MDZ1333     0.2418
     14  O15       11.8150   39.7310    6.6870 O.2   1333  MDZ1333    -0.2733
     15  C7        13.5480   39.0280    5.1910 C.3   1333  MDZ1333     0.0869
     16  C4        14.0400   37.7420    5.8340 C.3   1333  MDZ1333     0.0117
     17  C3        15.5020   37.5210    5.4600 C.3   1333  MDZ1333     0.0311
     18  C2        16.0790   36.2830    6.1210 C.3   1333  MDZ1333     0.1943
     19  N14       16.0740   36.4520    7.5770 N.3   1333  MDZ1333    -0.1208
     20  C1        17.4730   36.1500    5.5920 C.2   1333  MDZ1333     0.3819
     21  O20       17.6700   35.8710    4.3980 O.co2 1333  MDZ1333    -0.2441
     22  O19       18.4240   36.2570    6.3930 O.co2 1333  MDZ1333    -0.2441
     23  C32        6.4460   37.1910    2.8470 C.3   1333  MDZ1333     0.0515
     24  C37        7.3090   36.9090    1.7360 C.3   1333  MDZ1333     0.0043
     25  C33        5.8860   38.4620    2.5250 C.3   1333  MDZ1333     0.0043
@<TRIPOS>BOND
     1    24    23    1
     2    10     9    1
     3    25    23    1
     4    23     4    1
     5     9    11    1
     6     9     8    1
     7     4     5    1
     8     4     2    1
     9    21    20   ar
    10     7     6    2
    11     6     5    1
    12     6     8    1
    13    12     8    1
    14    12    13   am
    15     1     2   ar
    16     2     3   ar
    17    15    13    1
    18    15    16    1
    19    17    16    1
    20    17    18    1
    21    20    18    1
    22    20    22   ar
    23    13    14    2
    24    18    19    1
