@<TRIPOS>MOLECULE
1w3x_W2X_A_1.pdb
 26 25 0 0 0
SMALL
GASTEIGER

@<TRIPOS>ATOM
      1  O43        5.3360   37.8100    6.1160 O.co2 1333  W2X1333    -0.2416
      2  C31        5.2730   36.9550    5.1880 C.2   1333  W2X1333     0.4042
      3  O42        4.3330   36.2070    4.9270 O.co2 1333  W2X1333    -0.2416
      4  C30        6.4820   36.8720    4.2640 C.3   1333  W2X1333     0.2730
      5  O29        7.3060   37.9940    4.6020 O.3   1333  W2X1333    -0.4392
      6  C13        8.6720   37.8770    4.7480 C.2   1333  W2X1333     0.3383
      7  O18        9.2340   36.7960    4.6280 O.2   1333  W2X1333    -0.2482
      8  C12        9.4470   39.1060    5.0930 C.3   1333  W2X1333     0.2040
      9  C16        9.3240   40.1810    4.0340 C.3   1333  W2X1333     0.0888
     10  S17        9.4610   39.7070    2.2520 S.3   1333  W2X1333    -0.0807
     11  C25        9.2950   41.5010    4.4870 C.3   1333  W2X1333     0.0149
     12  N11       10.8450   38.8220    4.8480 N.am  1333  W2X1333    -0.1948
     13  C10       11.7990   39.1180    5.7020 C.2   1333  W2X1333     0.2418
     14  O15       11.4190   39.5300    6.7960 O.2   1333  W2X1333    -0.2733
     15  C7        13.2300   38.8800    5.3350 C.3   1333  W2X1333     0.0869
     16  C4        13.6750   37.5340    5.8660 C.3   1333  W2X1333     0.0117
     17  C3        15.1360   37.3690    5.4390 C.3   1333  W2X1333     0.0311
     18  C2        15.7980   36.1350    6.0730 C.3   1333  W2X1333     0.1943
     19  N14       15.7280   36.2700    7.5520 N.3   1333  W2X1333    -0.1208
     20  C1        17.2230   35.9940    5.5460 C.2   1333  W2X1333     0.3819
     21  O20       17.3590   35.7140    4.3380 O.co2 1333  W2X1333    -0.2441
     22  O19       18.1390   36.1740    6.3940 O.co2 1333  W2X1333    -0.2441
     23  C32        6.1250   37.0250    2.7790 C.3   1333  W2X1333     0.0845
     24  C37        5.5050   38.4420    2.6460 C.3   1333  W2X1333     0.1862
     25  C33        7.3470   36.7050    1.8720 C.3   1333  W2X1333     0.0070
     26  O31        6.1400   39.4170    1.8200 O.3   1333  W2X1333    -0.2203
@<TRIPOS>BOND
     1    26    24    1
     2    25    23    1
     3    10     9    1
     4    24    23    1
     5    23     4    1
     6     9    11    1
     7     9     8    1
     8     4     5    1
     9     4     2    1
    10    21    20   ar
    11     5     6    1
    12     7     6    2
    13     6     8    1
    14    12     8    1
    15    12    13   am
    16     3     2   ar
    17     2     1   ar
    18    15    13    1
    19    15    16    1
    20    17    16    1
    21    17    18    1
    22    20    18    1
    23    20    22   ar
    24    13    14    2
    25    18    19    1
