@<TRIPOS>MOLECULE
1w3y_XYL_A_1.pdb
 10 9 0 0 0
SMALL
GASTEIGER

@<TRIPOS>ATOM
      1  C1        19.6140  -23.3000   44.2090 C.3   1892  XYL1892     0.2175
      2  C2        20.3030  -23.4300   42.8610 C.3   1892  XYL1892     0.2175
      3  C3        21.1620  -22.1750   42.5400 C.3   1892  XYL1892     0.2175
      4  C4        21.7760  -22.2000   41.1200 C.3   1892  XYL1892     0.2175
      5  C5        20.7760  -22.2910   39.9670 C.3   1892  XYL1892     0.2175
      6  O1        18.6560  -22.2470   44.0810 O.3   1892  XYL1892    -0.2175
      7  O2        21.1770  -24.5590   42.9180 O.3   1892  XYL1892    -0.2175
      8  O3        22.1710  -21.9100   43.5200 O.3   1892  XYL1892    -0.2175
      9  O4        22.6430  -21.0910   40.8460 O.3   1892  XYL1892    -0.2175
     10  O5        19.7260  -21.3200   39.9410 O.3   1892  XYL1892    -0.2175
@<TRIPOS>BOND
     1    10     5    1
     2     5     4    1
     3     9     4    1
     4     4     3    1
     5     3     2    1
     6     3     8    1
     7     2     7    1
     8     2     1    1
     9     6     1    1
