@<TRIPOS>MOLECULE
1w3y_PVC_A_1.pdb
 27 26 0 0 0
SMALL
GASTEIGER

@<TRIPOS>ATOM
      1  CP1       13.8570  -12.9160   33.6580 C.2   1891  PVC1891     0.3171
      2  OP        13.7920  -12.9650   34.9050 O.2   1891  PVC1891    -0.2501
      3  CP2       14.9980  -13.4890   32.8560 C.3   1891  PVC1891     0.1096
      4  CP3       16.2670  -13.6740   33.6510 C.3   1891  PVC1891     0.0116
      5  CP4       17.0810  -14.7560   33.0210 C.3   1891  PVC1891     0.0006
      6  CP5       16.3090  -16.0770   33.0300 C.3   1891  PVC1891     0.0000
      7  CP6       17.2610  -17.2520   32.8360 C.3   1891  PVC1891     0.0000
      8  CP7       16.5880  -18.4670   32.2080 C.3   1891  PVC1891     0.0000
      9  CP8       16.8040  -19.7070   33.0640 C.3   1891  PVC1891     0.0000
     10  CP9       16.1510  -19.5160   34.4170 C.3   1891  PVC1891     0.0000
     11  CPA       17.1860  -19.5200   35.5130 C.3   1891  PVC1891     0.0000
     12  CPB       16.7250  -18.7340   36.7200 C.3   1891  PVC1891     0.0000
     13  CPC       17.8560  -18.6380   37.7280 C.3   1891  PVC1891     0.0000
     14  CPD       17.5950  -17.5710   38.7740 C.3   1891  PVC1891     0.0000
     15  CC6       12.4800  -11.0450   33.1320 C.3   1891  PVC1891     0.2442
     16  CC5       11.7240  -10.4220   31.9580 C.3   1891  PVC1891     0.2332
     17  CC4       10.7900   -9.2970   32.4560 C.3   1891  PVC1891     0.2502
     18  CC3        9.2700   -9.4870   32.2190 C.2   1891  PVC1891     0.2511
     19  CC2        8.7590  -10.7410   31.9230 C.2   1891  PVC1891     0.3115
     20  CC1        9.7230  -11.9370   31.8450 C.2   1891  PVC1891     0.4291
     21  O2         7.5100  -11.0110   31.6820 O.2   1891  PVC1891    -0.2763
     22  O3         8.5740   -8.4030   32.3830 O.2   1891  PVC1891    -0.2849
     23  O4        11.2220   -8.0250   31.9080 O.3   1891  PVC1891    -0.2117
     24  O5        12.6350   -9.8770   30.9970 O.3   1891  PVC1891    -0.2159
     25  O6        12.8740  -12.3860   32.7820 O.3   1891  PVC1891    -0.4456
     26  OC1        9.7990  -12.6810   32.8210 O.co2 1891  PVC1891    -0.2368
     27  OC2       10.3430  -12.1760   30.7820 O.co2 1891  PVC1891    -0.2368
@<TRIPOS>BOND
     1    27    20   ar
     2    24    16    1
     3    21    19    1
     4    20    19    1
     5    20    26   ar
     6    23    17    1
     7    19    18    2
     8    16    17    1
     9    16    15    1
    10     8     7    1
    11     8     9    1
    12    18    22    1
    13    18    17    1
    14    25    15    1
    15    25     1    1
    16     7     6    1
    17     3     4    1
    18     3     1    1
    19     5     6    1
    20     5     4    1
    21     9    10    1
    22     1     2    2
    23    10    11    1
    24    11    12    1
    25    12    13    1
    26    13    14    1
