@<TRIPOS>MOLECULE
1w44_ADP_A_1.pdb
 27 29 0 0 0
SMALL
GASTEIGER

@<TRIPOS>ATOM
      1  PB        82.7510   51.3610    5.2170 P.3   700  ADP700      0.5373
      2  O1B       81.3890   50.8870    4.7890 O.2   700  ADP700     -0.2221
      3  O2B       82.8300   52.9390    5.4150 O.3   700  ADP700     -0.1143
      4  O3B       83.1370   50.7120    6.4820 O.3   700  ADP700     -0.1143
      5  PA        84.6810   49.7800    3.7450 P.3   700  ADP700      0.2231
      6  O1A       84.9020   49.7240    2.3260 O.2   700  ADP700     -0.5169
      7  O2A       84.0870   48.5220    4.2130 O.3   700  ADP700     -0.4370
      8  O3A       83.7710   51.0140    4.0720 O.3   700  ADP700     -0.2261
      9  O5'       85.9750   50.1060    4.5950 O.3   700  ADP700     -0.3111
     10  C5'       86.7230   51.2280    4.2430 C.3   700  ADP700      0.1813
     11  C4'       86.3990   52.5440    4.9300 C.3   700  ADP700      0.1821
     12  O4'       87.5600   53.1010    5.5880 O.3   700  ADP700     -0.3135
     13  C3'       85.9890   53.4700    3.8750 C.3   700  ADP700      0.2184
     14  O3'       84.9130   54.3250    4.2920 O.3   700  ADP700     -0.2174
     15  C2'       87.2640   54.2070    3.5350 C.3   700  ADP700      0.2570
     16  O2'       86.9830   55.3860    2.8040 O.3   700  ADP700     -0.2130
     17  C1'       87.8950   54.3720    4.9260 C.3   700  ADP700      0.3186
     18  N9        89.4200   54.4810    4.9140 N.pl3 700  ADP700     -0.1439
     19  C8        90.2800   53.4450    4.7580 C.3   700  ADP700      0.3377
     20  N7        91.5500   53.8760    4.8070 N.2   700  ADP700     -0.2095
     21  C5        91.5290   55.1490    4.9860 C.2   700  ADP700      0.2526
     22  C6        92.5000   56.1240    5.1220 C.2   700  ADP700      0.4393
     23  N6        93.7730   55.7920    5.0800 N.pl3 700  ADP700      0.2180
     24  N1        92.1460   57.4210    5.3040 N.2   700  ADP700      0.0021
     25  C2        90.8540   57.8160    5.3590 C.3   700  ADP700      0.5254
     26  N3        89.8750   56.8750    5.2340 N.2   700  ADP700     -0.0055
     27  C4        90.1590   55.5590    5.0520 C.2   700  ADP700      0.3518
@<TRIPOS>BOND
     1     6     5    2
     2    16    15    1
     3    15    13    1
     4    15    17    1
     5     5     8    1
     6     5     7    1
     7     5     9    1
     8    13    14    1
     9    13    11    1
    10     8     1    1
    11    10     9    1
    12    10    11    1
    13    19    20    1
    14    19    18    1
    15     2     1    2
    16    20    21    2
    17    18    17    1
    18    18    27    1
    19    17    12    1
    20    11    12    1
    21    21    27    1
    22    21    22    1
    23    27    26    2
    24    23    22    1
    25    22    24    2
    26     1     3    1
    27     1     4    1
    28    26    25    1
    29    24    25    1
