@<TRIPOS>MOLECULE
1w46_ADP_A_1.pdb
 27 29 0 0 0
SMALL
GASTEIGER

@<TRIPOS>ATOM
      1  PB        82.2050   49.8830    4.2830 P.3   700  ADP700      0.5373
      2  O1B       81.3730   48.6520    4.0560 O.3   700  ADP700     -0.1143
      3  O2B       81.4780   51.2280    3.8710 O.2   700  ADP700     -0.2221
      4  O3B       82.5780   49.9640    5.7040 O.3   700  ADP700     -0.1143
      5  PA        84.4670   48.6230    2.9960 P.3   700  ADP700      0.2231
      6  O1A       84.3940   48.3650    1.5810 O.2   700  ADP700     -0.5169
      7  O2A       84.1660   47.4220    3.7300 O.3   700  ADP700     -0.4370
      8  O3A       83.4670   49.7880    3.3480 O.3   700  ADP700     -0.2261
      9  O5'       85.8470   49.1670    3.5220 O.3   700  ADP700     -0.3111
     10  C5'       86.3700   50.2960    2.9250 C.3   700  ADP700      0.1813
     11  C4'       86.0090   51.6420    3.5300 C.3   700  ADP700      0.1821
     12  O4'       87.1270   52.2370    4.2290 O.3   700  ADP700     -0.3135
     13  C3'       85.6500   52.4920    2.4060 C.3   700  ADP700      0.2184
     14  O3'       84.5060   53.3150    2.6360 O.3   700  ADP700     -0.2174
     15  C2'       86.9170   53.2520    2.1140 C.3   700  ADP700      0.2570
     16  O2'       86.6170   54.3850    1.3120 O.3   700  ADP700     -0.2130
     17  C1'       87.4950   53.4730    3.5500 C.3   700  ADP700      0.3186
     18  N9        89.0390   53.5740    3.6370 N.pl3 700  ADP700     -0.1439
     19  C8        89.8880   52.5440    3.5110 C.3   700  ADP700      0.3377
     20  N7        91.1600   52.9580    3.6330 N.2   700  ADP700     -0.2095
     21  C5        91.1570   54.2240    3.8310 C.2   700  ADP700      0.2526
     22  C6        92.1420   55.1760    4.0270 C.2   700  ADP700      0.4393
     23  N6        93.4210   54.8190    4.0220 N.pl3 700  ADP700      0.2180
     24  N1        91.8070   56.4790    4.2180 N.2   700  ADP700      0.0021
     25  C2        90.5210   56.8940    4.2300 C.3   700  ADP700      0.5254
     26  N3        89.5330   55.9690    4.0390 N.2   700  ADP700     -0.0055
     27  C4        89.7980   54.6500    3.8430 C.2   700  ADP700      0.3518
@<TRIPOS>BOND
     1    16    15    1
     2     6     5    2
     3    15    13    1
     4    15    17    1
     5    13    14    1
     6    13    11    1
     7    10     9    1
     8    10    11    1
     9     5     8    1
    10     5     9    1
    11     5     7    1
    12     8     1    1
    13    19    20    1
    14    19    18    1
    15    11    12    1
    16    17    18    1
    17    17    12    1
    18    20    21    2
    19    18    27    1
    20    21    27    1
    21    21    22    1
    22    27    26    2
    23     3     1    2
    24    23    22    1
    25    22    24    2
    26    26    25    1
    27     2     1    1
    28    24    25    1
    29     1     4    1
