@<TRIPOS>MOLECULE
1w47_ADP_A_1.pdb
 27 29 0 0 0
SMALL
GASTEIGER

@<TRIPOS>ATOM
      1  PB        82.2490   49.9440    4.2300 P.3   700  ADP700      0.5373
      2  O1B       82.0660   48.5970    4.8630 O.3   700  ADP700     -0.1143
      3  O2B       81.1020   50.3200    3.1930 O.2   700  ADP700     -0.2221
      4  O3B       82.2820   50.9640    5.2850 O.3   700  ADP700     -0.1143
      5  PA        84.5580   48.7460    2.8750 P.3   700  ADP700      0.2231
      6  O1A       84.3160   48.5110    1.4770 O.2   700  ADP700     -0.5169
      7  O2A       84.3690   47.5220    3.6060 O.3   700  ADP700     -0.4370
      8  O3A       83.5850   49.9040    3.3730 O.3   700  ADP700     -0.2261
      9  O5'       85.9980   49.2850    3.2430 O.3   700  ADP700     -0.3111
     10  C5'       86.4490   50.4410    2.6270 C.3   700  ADP700      0.1813
     11  C4'       86.1200   51.7720    3.2900 C.3   700  ADP700      0.1821
     12  O4'       87.2520   52.3240    4.0120 O.3   700  ADP700     -0.3135
     13  C3'       85.7640   52.6790    2.1990 C.3   700  ADP700      0.2184
     14  O3'       84.6260   53.5120    2.4510 O.3   700  ADP700     -0.2174
     15  C2'       87.0380   53.4340    1.9350 C.3   700  ADP700      0.2570
     16  O2'       86.7470   54.6010    1.1760 O.3   700  ADP700     -0.2130
     17  C1'       87.6150   53.5950    3.3800 C.3   700  ADP700      0.3186
     18  N9        89.1630   53.7220    3.4620 N.pl3 700  ADP700     -0.1439
     19  C8        90.0320   52.7020    3.3870 C.3   700  ADP700      0.3377
     20  N7        91.3020   53.1460    3.4880 N.2   700  ADP700     -0.2095
     21  C5        91.2730   54.4230    3.6230 C.2   700  ADP700      0.2526
     22  C6        92.2410   55.4080    3.7700 C.2   700  ADP700      0.4393
     23  N6        93.5300   55.0790    3.7840 N.pl3 700  ADP700      0.2180
     24  N1        91.8760   56.7170    3.8960 N.2   700  ADP700      0.0021
     25  C2        90.5800   57.1080    3.8860 C.3   700  ADP700      0.5254
     26  N3        89.6090   56.1510    3.7430 N.2   700  ADP700     -0.0055
     27  C4        89.9020   54.8230    3.6130 C.2   700  ADP700      0.3518
@<TRIPOS>BOND
     1    16    15    1
     2     6     5    2
     3    15    13    1
     4    15    17    1
     5    13    14    1
     6    13    11    1
     7    10     9    1
     8    10    11    1
     9     5     9    1
    10     5     8    1
    11     5     7    1
    12     3     1    2
    13    11    12    1
    14     8     1    1
    15    17    18    1
    16    17    12    1
    17    19    18    1
    18    19    20    1
    19    18    27    1
    20    20    21    2
    21    27    21    1
    22    27    26    2
    23    21    22    1
    24    26    25    1
    25    22    23    1
    26    22    24    2
    27    25    24    1
    28     1     2    1
    29     1     4    1
