@<TRIPOS>MOLECULE
1w48_APC_A_1.pdb
 31 33 0 0 0
SMALL
GASTEIGER

@<TRIPOS>ATOM
      1  PG        80.3340   49.6400    2.2220 P.3   700  APC700      0.5389
      2  O1G       79.6040   49.8300    0.8000 O.2   700  APC700     -0.2220
      3  O2G       80.3450   48.0580    2.5210 O.3   700  APC700     -0.1143
      4  O3G       79.6620   50.4010    3.2990 O.3   700  APC700     -0.1143
      5  PB        82.9090   49.9860    3.2310 P.3   700  APC700      0.3895
      6  O1B       82.7640   48.6530    3.8580 O.3   700  APC700     -0.1388
      7  O2B       84.2480   50.3920    2.7450 O.2   700  APC700     -0.2544
      8  O3B       81.8710   50.0670    2.0030 O.3   700  APC700     -0.2026
      9  PA        83.5620   51.8290    5.4510 P.3   700  APC700      0.3820
     10  O1A       83.0820   53.0840    6.0700 O.2   700  APC700     -0.2548
     11  O2A       83.9640   50.7070    6.3290 O.3   700  APC700     -0.1392
     12  C3A       82.2490   51.2410    4.3560 C.3   700  APC700      0.2357
     13  O5'       84.7430   52.1370    4.3970 O.3   700  APC700     -0.2896
     14  C5'       86.0760   52.4360    4.8200 C.3   700  APC700      0.1836
     15  C4'       86.2290   53.9220    5.1580 C.3   700  APC700      0.1822
     16  O4'       87.5460   54.1220    5.6980 O.3   700  APC700     -0.3135
     17  C3'       86.1210   54.8200    3.9220 C.3   700  APC700      0.2184
     18  O3'       85.4570   56.0400    4.2620 O.3   700  APC700     -0.2174
     19  C2'       87.5890   55.1050    3.6100 C.3   700  APC700      0.2570
     20  O2'       87.6860   56.3600    2.9320 O.3   700  APC700     -0.2130
     21  C1'       88.1090   55.2670    5.0390 C.3   700  APC700      0.3186
     22  N9        89.5840   55.1710    5.1010 N.pl3 700  APC700     -0.1439
     23  C8        90.2820   54.0460    4.9560 C.3   700  APC700      0.3377
     24  N7        91.5780   54.3000    5.0910 N.2   700  APC700     -0.2095
     25  C5        91.7150   55.6050    5.3210 C.2   700  APC700      0.2526
     26  C6        92.8190   56.4220    5.5100 C.2   700  APC700      0.4393
     27  N6        94.0450   55.9050    5.4990 N.pl3 700  APC700      0.2180
     28  N1        92.6180   57.7950    5.7050 N.2   700  APC700      0.0021
     29  C2        91.3100   58.2980    5.7020 C.3   700  APC700      0.5254
     30  N3        90.2820   57.4820    5.5180 N.2   700  APC700     -0.0055
     31  C4        90.4430   56.1680    5.3290 C.2   700  APC700      0.3518
@<TRIPOS>BOND
     1     2     1    2
     2     8     1    1
     3     8     5    1
     4     1     3    1
     5     1     4    1
     6     7     5    2
     7    20    19    1
     8     5     6    1
     9     5    12    1
    10    19    17    1
    11    19    21    1
    12    17    18    1
    13    17    15    1
    14    12     9    1
    15    13    14    1
    16    13     9    1
    17    14    15    1
    18    23    24    1
    19    23    22    1
    20    21    22    1
    21    21    16    1
    22    24    25    2
    23    22    31    1
    24    15    16    1
    25    25    31    1
    26    25    26    1
    27    31    30    2
    28     9    10    2
    29     9    11    1
    30    27    26    1
    31    26    28    2
    32    30    29    1
    33    29    28    1
