@<TRIPOS>MOLECULE
1w49_APC_A_1.pdb
 31 33 0 0 0
SMALL
GASTEIGER

@<TRIPOS>ATOM
      1  PG        80.8310   49.1990    4.2840 P.3   700  APC700      0.5389
      2  O1G       79.5880   48.4060    4.9290 O.3   700  APC700     -0.1143
      3  O2G       80.1980   50.4490    3.4910 O.3   700  APC700     -0.1143
      4  O3G       81.6430   48.3310    3.4000 O.2   700  APC700     -0.2220
      5  PB        83.0770   50.5260    5.3580 P.3   700  APC700      0.3895
      6  O1B       82.9750   51.4850    4.2350 O.2   700  APC700     -0.2544
      7  O2B       83.4840   51.0490    6.6790 O.3   700  APC700     -0.1388
      8  O3B       81.6450   49.8100    5.5320 O.3   700  APC700     -0.2026
      9  PA        85.2290   49.5850    3.5000 P.3   700  APC700      0.3820
     10  O1A       85.8130   48.3230    2.9940 O.3   700  APC700     -0.1392
     11  O2A       84.4590   50.4170    2.5500 O.2   700  APC700     -0.2548
     12  C3A       84.1640   49.1520    4.8990 C.3   700  APC700      0.2357
     13  O5'       86.3980   50.4730    4.1700 O.3   700  APC700     -0.2896
     14  C5'       86.0610   51.3990    5.2080 C.3   700  APC700      0.1836
     15  C4'       86.7550   52.7560    5.0740 C.3   700  APC700      0.1822
     16  O4'       88.1600   52.7220    5.3630 O.3   700  APC700     -0.3135
     17  C3'       86.6180   53.4210    3.7020 C.3   700  APC700      0.2184
     18  O3'       85.7340   54.5400    3.8130 O.3   700  APC700     -0.2174
     19  C2'       88.0400   53.9190    3.4370 C.3   700  APC700      0.2570
     20  O2'       88.0000   55.2300    2.8680 O.3   700  APC700     -0.2130
     21  C1'       88.5830   53.9970    4.8630 C.3   700  APC700      0.3186
     22  N9        90.0600   54.1030    4.8690 N.pl3 700  APC700     -0.1439
     23  C8        90.9100   53.0930    4.6930 C.3   700  APC700      0.3377
     24  N7        92.1590   53.5440    4.7730 N.2   700  APC700     -0.2095
     25  C5        92.1030   54.8520    5.0020 C.2   700  APC700      0.2526
     26  C6        93.0750   55.8290    5.1780 C.2   700  APC700      0.4393
     27  N6        94.3640   55.5090    5.1360 N.pl3 700  APC700      0.2180
     28  N1        92.6660   57.1490    5.4060 N.2   700  APC700      0.0021
     29  C2        91.2970   57.4470    5.4540 C.3   700  APC700      0.5254
     30  N3        90.4020   56.4880    5.2850 N.2   700  APC700     -0.0055
     31  C4        90.7630   55.2140    5.0630 C.2   700  APC700      0.3518
@<TRIPOS>BOND
     1    11     9    2
     2    20    19    1
     3    10     9    1
     4     4     1    2
     5    19    17    1
     6    19    21    1
     7     3     1    1
     8     9    13    1
     9     9    12    1
    10    17    18    1
    11    17    15    1
    12    13    14    1
    13     6     5    2
    14     1     2    1
    15     1     8    1
    16    23    24    1
    17    23    22    1
    18    24    25    2
    19    21    22    1
    20    21    16    1
    21    22    31    1
    22    12     5    1
    23    25    31    1
    24    25    26    1
    25    31    30    2
    26    15    14    1
    27    15    16    1
    28    27    26    1
    29    26    28    2
    30    30    29    1
    31     5     8    1
    32     5     7    1
    33    28    29    1
