@<TRIPOS>MOLECULE
1w4a_APC_A_1.pdb
 31 33 0 0 0
SMALL
GASTEIGER

@<TRIPOS>ATOM
      1  PG        80.7920   49.1890    4.0610 P.3   700  APC700      0.5389
      2  O1G       79.4950   48.4030    4.5990 O.3   700  APC700     -0.1143
      3  O2G       80.2360   50.4590    3.2430 O.3   700  APC700     -0.1143
      4  O3G       81.6470   48.3140    3.2270 O.2   700  APC700     -0.2220
      5  PB        82.9710   50.4920    5.2850 P.3   700  APC700      0.3895
      6  O1B       82.9310   51.4640    4.1700 O.2   700  APC700     -0.2544
      7  O2B       83.3120   51.0000    6.6310 O.3   700  APC700     -0.1388
      8  O3B       81.5290   49.7780    5.3680 O.3   700  APC700     -0.2026
      9  PA        85.1080   49.4490    3.4360 P.3   700  APC700      0.3820
     10  O1A       85.5880   48.1460    2.9270 O.3   700  APC700     -0.1392
     11  O2A       84.3650   50.3230    2.5010 O.2   700  APC700     -0.2548
     12  C3A       84.0720   49.1110    4.8810 C.3   700  APC700      0.2357
     13  O5'       86.3410   50.2680    4.0750 O.3   700  APC700     -0.2896
     14  C5'       86.0640   51.2240    5.1030 C.3   700  APC700      0.1836
     15  C4'       86.7970   52.5550    4.9250 C.3   700  APC700      0.1822
     16  O4'       88.2060   52.4960    5.1750 O.3   700  APC700     -0.3135
     17  C3'       86.6680   53.2050    3.5460 C.3   700  APC700      0.2184
     18  O3'       85.6050   54.1610    3.5770 O.3   700  APC700     -0.2174
     19  C2'       88.0080   53.9300    3.3960 C.3   700  APC700      0.2570
     20  O2'       87.7800   55.3030    3.0730 O.3   700  APC700     -0.2130
     21  C1'       88.5850   53.8290    4.8090 C.3   700  APC700      0.3186
     22  N9        90.0580   53.9640    4.8130 N.pl3 700  APC700     -0.1439
     23  C8        90.9200   52.9680    4.6280 C.3   700  APC700      0.3377
     24  N7        92.1620   53.4360    4.7250 N.2   700  APC700     -0.2095
     25  C5        92.0900   54.7400    4.9730 C.2   700  APC700      0.2526
     26  C6        93.0450   55.7280    5.1670 C.2   700  APC700      0.4393
     27  N6        94.3410   55.4350    5.1060 N.pl3 700  APC700      0.2180
     28  N1        92.6170   57.0380    5.4130 N.2   700  APC700      0.0021
     29  C2        91.2440   57.3160    5.4540 C.3   700  APC700      0.5254
     30  N3        90.3650   56.3470    5.2640 N.2   700  APC700     -0.0055
     31  C4        90.7440   55.0820    5.0280 C.2   700  APC700      0.3518
@<TRIPOS>BOND
     1    11     9    2
     2    10     9    1
     3    20    19    1
     4     4     1    2
     5     3     1    1
     6    19    17    1
     7    19    21    1
     8     9    13    1
     9     9    12    1
    10    17    18    1
    11    17    15    1
    12     1     2    1
    13     1     8    1
    14    13    14    1
    15     6     5    2
    16    23    24    1
    17    23    22    1
    18    24    25    2
    19    21    22    1
    20    21    16    1
    21    22    31    1
    22    12     5    1
    23    15    14    1
    24    15    16    1
    25    25    31    1
    26    25    26    1
    27    31    30    2
    28    27    26    1
    29    26    28    2
    30    30    29    1
    31     5     8    1
    32     5     7    1
    33    28    29    1
