@<TRIPOS>MOLECULE
1w4b_ADP_A_1.pdb
 27 29 0 0 0
SMALL
GASTEIGER

@<TRIPOS>ATOM
      1  PB        82.0880   50.2050    4.1830 P.3   700  ADP700      0.5373
      2  O1B       81.4870   51.4580    3.6020 O.2   700  ADP700     -0.2221
      3  O2B       82.3430   50.2930    5.7550 O.3   700  ADP700     -0.1143
      4  O3B       81.1940   49.0480    3.9180 O.3   700  ADP700     -0.1143
      5  PA        84.3970   48.7410    3.0890 P.3   700  ADP700      0.2231
      6  O1A       84.2280   48.5320    1.6720 O.2   700  ADP700     -0.5169
      7  O2A       84.0030   47.5470    3.8030 O.3   700  ADP700     -0.4370
      8  O3A       83.5240   50.0120    3.5320 O.3   700  ADP700     -0.2261
      9  O5'       85.8670   49.1200    3.5560 O.3   700  ADP700     -0.3111
     10  C5'       86.5010   50.2050    2.9700 C.3   700  ADP700      0.1813
     11  C4'       86.1790   51.5910    3.5150 C.3   700  ADP700      0.1821
     12  O4'       87.2970   52.1780    4.2480 O.3   700  ADP700     -0.3135
     13  C3'       85.8850   52.4270    2.3420 C.3   700  ADP700      0.2184
     14  O3'       84.7570   53.3050    2.4940 O.3   700  ADP700     -0.2174
     15  C2'       87.2000   53.1270    2.0780 C.3   700  ADP700      0.2570
     16  O2'       87.0070   54.2310    1.1900 O.3   700  ADP700     -0.2130
     17  C1'       87.7060   53.4030    3.5380 C.3   700  ADP700      0.3186
     18  N9        89.2560   53.5420    3.6960 N.pl3 700  ADP700     -0.1439
     19  C8        90.1300   52.5310    3.6530 C.3   700  ADP700      0.3377
     20  N7        91.3990   52.9800    3.8200 N.2   700  ADP700     -0.2095
     21  C5        91.3640   54.2570    3.9680 C.2   700  ADP700      0.2526
     22  C6        92.3250   55.2430    4.1750 C.2   700  ADP700      0.4393
     23  N6        93.6110   54.9200    4.2520 N.pl3 700  ADP700      0.2180
     24  N1        91.9520   56.5550    4.2980 N.2   700  ADP700      0.0021
     25  C2        90.6520   56.9450    4.2270 C.3   700  ADP700      0.5254
     26  N3        89.6860   55.9870    4.0250 N.2   700  ADP700     -0.0055
     27  C4        89.9900   54.6560    3.8950 C.2   700  ADP700      0.3518
@<TRIPOS>BOND
     1    16    15    1
     2     6     5    2
     3    15    13    1
     4    15    17    1
     5    13    14    1
     6    13    11    1
     7    10    11    1
     8    10     9    1
     9     5     8    1
    10     5     9    1
    11     5     7    1
    12    11    12    1
    13     8     1    1
    14    17    18    1
    15    17    12    1
    16     2     1    2
    17    19    18    1
    18    19    20    1
    19    18    27    1
    20    20    21    2
    21    27    21    1
    22    27    26    2
    23     4     1    1
    24    21    22    1
    25    26    25    1
    26    22    23    1
    27    22    24    2
    28     1     3    1
    29    25    24    1
