@<TRIPOS>MOLECULE
1w4l_GL8_A_1.pdb
 39 44 0 0 0
SMALL
GASTEIGER

@<TRIPOS>ATOM
      1  C1         2.5360   67.5520   63.2280 C.2   1540  GL81540    -0.0211
      2  C2         2.7100   68.0920   62.0010 C.2   1540  GL81540     0.0021
      3  C3         4.1320   68.3020   61.4100 C.3   1540  GL81540     0.1773
      4  C4         5.2970   68.3180   62.5910 C.3   1540  GL81540     0.0816
      5  C5         5.0440   67.0660   63.5100 C.3   1540  GL81540     0.1762
      6  C6         3.6920   67.1980   64.2430 C.3   1540  GL81540     0.0780
      7  C7         4.4880   63.6460   63.6910 C.ar  1540  GL81540     0.1721
      8  C8         3.6700   62.9440   64.6380 C.ar  1540  GL81540     0.0397
      9  C9         2.8550   63.6770   65.5220 C.ar  1540  GL81540     0.0001
     10  C10        1.9870   65.7690   66.5040 C.3   1540  GL81540     0.0989
     11  C11        2.2390   68.2480   66.1490 C.3   1540  GL81540     0.0732
     12  C12        3.6250   68.2300   65.4320 C.3   1540  GL81540     0.0290
     13  C13        4.4060   65.0350   63.6680 C.ar  1540  GL81540     0.1682
     14  C14        3.5790   65.7690   64.5550 C.ar  1540  GL81540     0.0187
     15  C15        2.8100   65.1200   65.4940 C.ar  1540  GL81540    -0.0066
     16  C16        5.7100   61.6650   63.0940 C.3   1540  GL81540     0.2526
     17  C17        1.0430   67.1130   68.1070 C.3   1540  GL81540     0.0724
     18  C18        2.0370   67.4500   69.2870 C.3   1540  GL81540     0.0173
     19  C19        3.3170   66.5040   69.3880 C.3   1540  GL81540     0.0014
     20  C20        2.8790   65.0570   69.6490 C.3   1540  GL81540     0.0000
     21  C21        4.1040   64.1260   69.7210 C.3   1540  GL81540     0.0001
     22  C22        3.6160   62.6360   69.6090 C.3   1540  GL81540     0.0018
     23  C23        3.0940   62.1600   71.0020 C.3   1540  GL81540     0.0220
     24  C24        1.7820   61.6910   70.6310 C.3   1540  GL81540     0.1015
     25  C25       -0.1760   61.7490   72.0520 C.2   1540  GL81540     0.2551
     26  C26       -0.9030   60.8300   72.7950 C.ar  1540  GL81540     0.0584
     27  C27       -2.1520   60.9480   73.4290 C.ar  1540  GL81540     0.0047
     28  C28       -2.6640   59.7760   74.0900 C.ar  1540  GL81540     0.0001
     29  C29       -1.9120   58.5710   74.0890 C.ar  1540  GL81540     0.0001
     30  C30       -0.6410   58.4900   73.4420 C.ar  1540  GL81540     0.0047
     31  C31       -0.1780   59.6540   72.7990 C.ar  1540  GL81540     0.0584
     32  C32        0.9650   59.8740   72.0410 C.2   1540  GL81540     0.2551
     33  O1         5.1150   65.8430   62.7910 O.3   1540  GL81540    -0.4757
     34  O2         5.4730   63.0580   62.8690 O.3   1540  GL81540    -0.4684
     35  O3         4.1590   67.1110   60.5120 O.3   1540  GL81540    -0.2182
     36  O25       -0.4610   62.9940   71.8990 O.2   1540  GL81540    -0.2695
     37  O32        1.9030   59.0260   71.8380 O.2   1540  GL81540    -0.2695
     38  N1         1.7570   66.9850   66.8270 N.3   1540  GL81540    -0.2689
     39  N2         0.9000   61.1240   71.6040 N.am  1540  GL81540    -0.2229
@<TRIPOS>BOND
     1    35     3    1
     2     3     2    1
     3     3     4    1
     4     2     1    2
     5     4     5    1
     6    33     5    1
     7    33    13    1
     8    34    16    1
     9    34     7    1
    10     1     6    1
    11     5     6    1
    12    13     7   ar
    13    13    14   ar
    14     7     8   ar
    15     6    14    1
    16     6    12    1
    17    14    15   ar
    18     8     9   ar
    19    12    11    1
    20    15     9   ar
    21    15    10    1
    22    11    38    1
    23    10    38    1
    24    38    17    1
    25    17    18    1
    26    18    19    1
    27    19    20    1
    28    22    21    1
    29    22    23    1
    30    20    21    1
    31    24    23    1
    32    24    39    1
    33    39    32   am
    34    39    25   am
    35    37    32    2
    36    36    25    2
    37    32    31    1
    38    25    26    1
    39    26    31   ar
    40    26    27   ar
    41    31    30   ar
    42    27    28   ar
    43    30    29   ar
    44    29    28   ar
