@<TRIPOS>MOLECULE
1w4o_UA3_A_1.pdb
 21 22 0 0 0
SMALL
GASTEIGER

@<TRIPOS>ATOM
      1  N1        36.5030   -2.0840   11.7110 N.am  1125  UA31125    -0.1766
      2  C2        35.2100   -2.1570   11.1150 C.1   1125  UA31125     0.2845
      3  O2        34.7380   -1.2530   10.5240 O.2   1125  UA31125    -0.1918
      4  N3        34.5840   -3.3970   11.3050 N.2   1125  UA31125    -0.2452
      5  C4        35.0790   -4.5240   11.9990 C.1   1125  UA31125     0.2182
      6  O4        34.3810   -5.5120   12.0540 O.2   1125  UA31125    -0.2085
      7  C5        36.4010   -4.3530   12.5790 C.2   1125  UA31125     0.1242
      8  C6        37.0560   -3.1880   12.4290 C.2   1125  UA31125     0.0929
      9  O5'       40.7770    0.3360   13.9640 O.3   1125  UA31125    -0.2176
     10  C5'       40.2230    0.5960   12.5170 C.3   1125  UA31125     0.2141
     11  C4'       38.9370    0.3200   12.2850 C.3   1125  UA31125     0.1802
     12  O4'       38.7340   -0.9590   11.6930 O.3   1125  UA31125    -0.3319
     13  C3'       38.0330    1.1710   12.8790 C.3   1125  UA31125     0.1903
     14  O3'       37.3130    2.4500   12.4140 O.3   1125  UA31125    -0.2674
     15  C2'       36.8820   -0.1270   13.0650 C.3   1125  UA31125     0.2293
     16  O2'       37.0630   -0.8150   14.5460 O.3   1125  UA31125    -0.2158
     17  C1'       37.1810   -0.8620   11.5770 C.3   1125  UA31125     0.2400
     18  O3P       35.1240    3.1800   13.3130 O.3   1125  UA31125    -0.1145
     19  P         36.6740    3.5710   13.1930 P.3   1125  UA31125     0.5327
     20  O1P       36.9060    4.8640   12.4680 O.2   1125  UA31125    -0.2224
     21  O2P       37.2690    3.6140   14.5750 O.3   1125  UA31125    -0.1145
@<TRIPOS>BOND
     1     3     2    2
     2     2     4    2
     3     2     1   am
     4     4     5    2
     5    17    12    1
     6    17     1    1
     7    17    15    1
     8    12    11    1
     9     1     8    1
    10     5     6    2
    11     5     7    1
    12    11    10    1
    13    11    13    1
    14    14    13    1
    15    14    19    1
    16     8     7    2
    17    20    19    2
    18    10     9    1
    19    13    15    1
    20    15    16    1
    21    19    18    1
    22    19    21    1
