@<TRIPOS>MOLECULE
1w4p_UM3_A_1.pdb
 20 21 0 0 0
SMALL
GASTEIGER

@<TRIPOS>ATOM
      1  N1        36.5800   -2.2380   12.2000 N.am  1125  UM31125    -0.1790
      2  C2        35.3910   -2.3580   11.4360 C.1   1125  UM31125     0.2844
      3  N3        34.7510   -3.5840   11.5860 N.2   1125  UM31125    -0.2452
      4  C4        35.1590   -4.6690   12.3960 C.1   1125  UM31125     0.2182
      5  C5        36.3730   -4.4580   13.1370 C.2   1125  UM31125     0.1242
      6  C6        37.0280   -3.2780   13.0180 C.2   1125  UM31125     0.0928
      7  O2        34.9440   -1.4770   10.6980 O.2   1125  UM31125    -0.1918
      8  O4        34.4870   -5.6900   12.4210 O.2   1125  UM31125    -0.2085
      9  C1'       37.5040   -1.1350   12.2520 C.3   1125  UM31125     0.2089
     10  C2'       37.3060   -0.1840   13.5540 C.3   1125  UM31125     0.0847
     11  C3'       38.3580    0.9850   13.1620 C.3   1125  UM31125     0.1601
     12  C4'       39.5670    0.2220   12.6020 C.3   1125  UM31125     0.1775
     13  O3'       38.0600    1.9500   12.5300 O.3   1125  UM31125    -0.2700
     14  O4'       38.8610   -0.7360   11.8130 O.3   1125  UM31125    -0.3339
     15  C5'       40.6790    0.0750   13.6260 C.3   1125  UM31125     0.2140
     16  O5'       40.1430   -1.1760   14.2560 O.3   1125  UM31125    -0.2176
     17  P         37.4770    3.1040   13.3640 P.3   1125  UM31125     0.5326
     18  O1P       37.4390    4.5680   12.8650 O.2   1125  UM31125    -0.2224
     19  O2P       35.9130    3.1080   13.5100 O.3   1125  UM31125    -0.1145
     20  O3P       37.7140    3.7810   15.0500 O.3   1125  UM31125    -0.1145
@<TRIPOS>BOND
     1     7     2    2
     2     2     3    2
     3     2     1   am
     4     3     4    2
     5    14     9    1
     6    14    12    1
     7     1     9    1
     8     1     6    1
     9     9    10    1
    10     4     8    2
    11     4     5    1
    12    13    11    1
    13    13    17    1
    14    12    11    1
    15    12    15    1
    16    18    17    2
    17     6     5    2
    18    11    10    1
    19    17    19    1
    20    17    20    1
    21    15    16    1
