@<TRIPOS>MOLECULE
1w4q_UMF_A_1.pdb
 21 22 0 0 0
SMALL
GASTEIGER

@<TRIPOS>ATOM
      1  N1        36.2250   -2.3660   12.1580 N.am  1125  UMF1125    -0.1765
      2  C2        35.0290   -2.5550   11.4210 C.1   1125  UMF1125     0.2845
      3  O2        34.7000   -1.7980   10.5870 O.2   1125  UMF1125    -0.1918
      4  N3        34.3270   -3.7120   11.7940 N.2   1125  UMF1125    -0.2452
      5  C4        34.6750   -4.6670   12.7960 C.1   1125  UMF1125     0.2182
      6  O4        33.9250   -5.6050   12.9580 O.2   1125  UMF1125    -0.2085
      7  C5        35.9240   -4.3900   13.5180 C.2   1125  UMF1125     0.1242
      8  C6        36.6450   -3.2830   13.1940 C.2   1125  UMF1125     0.0929
      9  O5'       39.2530   -0.4990   15.5460 O.3   1125  UMF1125    -0.2176
     10  C5'       40.0020   -0.1650   14.2100 C.3   1125  UMF1125     0.2141
     11  C4'       38.7750    0.1200   13.3080 C.3   1125  UMF1125     0.1804
     12  O4'       38.4020   -1.1420   12.9600 O.3   1125  UMF1125    -0.3318
     13  C3'       37.6410    1.0610   13.2010 C.3   1125  UMF1125     0.1925
     14  O3'       37.5420    2.5320   12.9110 O.3   1125  UMF1125    -0.2672
     15  C2'       36.5030    0.3120   12.3010 C.3   1125  UMF1125     0.2382
     16  F2'       36.2460    1.3130   11.5430 F     1125  UMF1125    -0.2300
     17  C1'       37.1740   -1.1150   11.8700 C.3   1125  UMF1125     0.2422
     18  O3P       35.4680    3.1250   13.5200 O.3   1125  UMF1125    -0.1145
     19  P         37.0160    3.5030   13.6300 P.3   1125  UMF1125     0.5327
     20  O1P       37.3410    3.6810   15.0910 O.3   1125  UMF1125    -0.1145
     21  O2P       37.4710    4.6660   12.8340 O.2   1125  UMF1125    -0.2224
@<TRIPOS>BOND
     1     3     2    2
     2     2     4    2
     3     2     1   am
     4    16    15    1
     5     4     5    2
     6    17     1    1
     7    17    15    1
     8    17    12    1
     9     1     8    1
    10    15    13    1
    11     5     6    2
    12     5     7    1
    13    21    19    2
    14    14    13    1
    15    14    19    1
    16    12    11    1
    17     8     7    2
    18    13    11    1
    19    11    10    1
    20    18    19    1
    21    19    20    1
    22    10     9    1
