@<TRIPOS>MOLECULE
1w4r_TTP_A_1.pdb
 29 30 0 0 0
SMALL
GASTEIGER

@<TRIPOS>ATOM
      1  PA        53.2070   73.8660    2.8250 P.3   300  TTP300      0.2189
      2  O1A       52.9330   75.0930    2.0510 O.2   300  TTP300     -0.5170
      3  O2A       52.5620   72.5820    2.5080 O.3   300  TTP300     -0.4371
      4  O3A       53.0630   74.1400    4.3850 O.3   300  TTP300     -0.2700
      5  PB        52.1520   73.4070    5.4580 P.3   300  TTP300      0.2277
      6  O1B       52.1580   74.2470    6.6790 O.3   300  TTP300     -0.4368
      7  O2B       52.5930   72.0280    5.4420 O.2   300  TTP300     -0.5168
      8  O3B       50.8760   73.7100    4.5520 O.3   300  TTP300     -0.2258
      9  PG        49.3390   73.4090    4.7300 P.3   300  TTP300      0.5373
     10  O1G       49.0000   72.1540    4.0690 O.3   300  TTP300     -0.1143
     11  O2G       48.9320   73.3830    6.1900 O.3   300  TTP300     -0.1143
     12  O3G       48.7910   74.5340    3.9450 O.2   300  TTP300     -0.2221
     13  O5'       54.8310   73.6300    2.7930 O.3   300  TTP300     -0.3112
     14  C5'       55.7540   74.6910    2.5270 C.3   300  TTP300      0.1812
     15  C4'       57.1190   74.3020    2.2960 C.3   300  TTP300      0.1773
     16  O4'       57.7740   75.3650    1.6200 O.3   300  TTP300     -0.3339
     17  C3'       57.8670   74.1620    3.5190 C.3   300  TTP300      0.1857
     18  O3'       58.8360   73.0970    3.4380 O.3   300  TTP300     -0.2203
     19  C2'       58.5180   75.4050    3.7060 C.3   300  TTP300      0.0874
     20  C1'       58.8270   75.9000    2.4030 C.3   300  TTP300      0.2090
     21  N1        58.9100   77.2700    2.2330 N.am  300  TTP300     -0.1794
     22  C2        59.9940   77.8740    1.5960 C.1   300  TTP300      0.2844
     23  O2        60.9450   77.2230    1.1200 O.2   300  TTP300     -0.1918
     24  N3        60.0570   79.2390    1.4120 N.2   300  TTP300     -0.2455
     25  C4        59.1010   80.0660    1.9030 C.1   300  TTP300      0.2134
     26  O4        59.2220   81.2800    1.7700 O.2   300  TTP300     -0.2088
     27  C5        58.0100   79.5170    2.5440 C.2   300  TTP300      0.0891
     28  C5M       56.9200   80.4300    3.0590 C.3   300  TTP300      0.0462
     29  C6        57.9350   78.1300    2.7100 C.2   300  TTP300      0.0877
@<TRIPOS>BOND
     1    23    22    2
     2    24    22    2
     3    24    25    2
     4    22    21   am
     5    16    15    1
     6    16    20    1
     7    26    25    2
     8    25    27    1
     9     2     1    2
    10    21    20    1
    11    21    29    1
    12    15    14    1
    13    15    17    1
    14    20    19    1
    15     3     1    1
    16    14    13    1
    17    27    29    2
    18    27    28    1
    19    13     1    1
    20     1     4    1
    21    18    17    1
    22    17    19    1
    23    12     9    2
    24    10     9    1
    25     4     5    1
    26     8     9    1
    27     8     5    1
    28     9    11    1
    29     7     5    2
    30     5     6    1
