@<TRIPOS>MOLECULE
1w4w_HEM_A_1.pdb
 43 50 0 0 0
SMALL
GASTEIGER

@<TRIPOS>ATOM
      1 FE          3.0820    1.8720   11.4820 Fe    1307  HEM1307     0.0000
      2  CHA       -0.0930    3.1050   11.6490 C.2   1307  HEM1307     0.0000
      3  CHB        2.2970    0.2050    8.6000 C.2   1307  HEM1307     0.0000
      4  CHC        6.3720    0.9110   11.1120 C.2   1307  HEM1307     0.0000
      5  CHD        3.9460    3.7260   14.2060 C.2   1307  HEM1307     0.0000
      6  NA         1.4330    1.7140   10.3380 N.ar  1307  HEM1307     0.0000
      7  C1A        0.2030    2.3210   10.5360 C.ar  1307  HEM1307     0.0000
      8  C2A       -0.7440    1.8790    9.5390 C.ar  1307  HEM1307     0.0000
      9  C3A       -0.0820    1.0330    8.7130 C.ar  1307  HEM1307     0.0000
     10  C4A        1.2750    0.9340    9.2100 C.ar  1307  HEM1307     0.0000
     11  CMA       -0.6810    0.2960    7.5200 C.3   1307  HEM1307     0.0000
     12  CAA       -2.2250    2.2220    9.4390 C.3   1307  HEM1307     0.0000
     13  CBA       -2.4090    3.5580    8.7410 C.3   1307  HEM1307     0.0000
     14  CGA       -3.8700    3.9300    8.5570 C.2   1307  HEM1307     0.0000
     15  O1A       -4.1410    5.0670    8.1170 O.co2 1307  HEM1307     0.0000
     16  O2A       -4.7480    3.0880    8.8440 O.co2 1307  HEM1307     0.0000
     17  NB         4.1240    0.7480   10.1460 N.2   1307  HEM1307     0.0000
     18  C1B        3.6180    0.0900    9.0280 C.2   1307  HEM1307     0.0000
     19  C2B        4.6370   -0.7100    8.3930 C.2   1307  HEM1307     0.0000
     20  C3B        5.7710   -0.5780    9.1270 C.2   1307  HEM1307     0.0000
     21  C4B        5.4630    0.3820   10.1910 C.2   1307  HEM1307     0.0000
     22  CMB        4.4250   -1.4930    7.1070 C.3   1307  HEM1307     0.0000
     23  CAB        6.9700   -1.2240    8.8730 C.3   1307  HEM1307     0.0000
     24  CBB        7.8210   -1.8660    9.8610 C.3   1307  HEM1307     0.0000
     25  NC         4.8320    2.3180   12.4260 N.ar  1307  HEM1307     0.0000
     26  C1C        6.0980    1.8370   12.1390 C.ar  1307  HEM1307     0.0000
     27  C2C        7.0870    2.4580   13.0070 C.ar  1307  HEM1307     0.0000
     28  C3C        6.4040    3.2840   13.8610 C.ar  1307  HEM1307     0.0000
     29  C4C        5.0090    3.1490   13.5120 C.ar  1307  HEM1307     0.0000
     30  CMC        8.5950    2.2680   12.8680 C.3   1307  HEM1307     0.0000
     31  CAC        6.9090    4.1380   14.8500 C.3   1307  HEM1307     0.0000
     32  CBC        7.9940    3.8160   15.7320 C.3   1307  HEM1307     0.0000
     33  ND         2.1220    3.1370   12.6980 N.2   1307  HEM1307     0.0000
     34  C1D        2.6080    3.6860   13.8610 C.2   1307  HEM1307     0.0000
     35  C2D        1.5280    4.1910   14.6720 C.2   1307  HEM1307     0.0000
     36  C3D        0.3840    4.0740   13.9450 C.2   1307  HEM1307     0.0000
     37  C4D        0.7660    3.4370   12.6940 C.2   1307  HEM1307     0.0000
     38  CMD        1.6670    4.7270   16.0870 C.3   1307  HEM1307     0.0000
     39  CAD       -1.0040    4.5580   14.3590 C.3   1307  HEM1307     0.0000
     40  CBD       -1.1390    6.0310   14.0190 C.3   1307  HEM1307     0.0000
     41  CGD       -2.5210    6.5900   14.2990 C.2   1307  HEM1307     0.0000
     42  O1D       -2.7470    7.7690   13.9690 O.co2 1307  HEM1307     0.0000
     43  O2D       -3.3760    5.8630   14.8450 O.co2 1307  HEM1307     0.0000
@<TRIPOS>BOND
     1    22    19    1
     2    11     9    1
     3    15    14   ar
     4    19    18    1
     5    19    20    2
     6    14    13    1
     7    14    16   ar
     8     3    18    1
     9     3    10    2
    10     9    10   ar
    11     9     8   ar
    12    13    12    1
    13    23    20    1
    14    23    24    1
    15    18    17    2
    16    20    21    1
    17    10     6   ar
    18    12     8    1
    19     8     7   ar
    20    17    21    1
    21    17     1    1
    22    21     4    2
    23     6     7   ar
    24     6     1    1
    25     7     2    2
    26     4    26    1
    27     1    25    1
    28     1    33    1
    29     2    37    1
    30    26    25   ar
    31    26    27   ar
    32    25    29   ar
    33    37    33    2
    34    37    36    1
    35    33    34    1
    36    30    27    1
    37    27    28   ar
    38    29    28   ar
    39    29     5    1
    40    34     5    2
    41    34    35    1
    42    28    31    1
    43    36    39    1
    44    36    35    2
    45    42    41   ar
    46    40    41    1
    47    40    39    1
    48    41    43   ar
    49    35    38    1
    50    31    32    1
