@<TRIPOS>MOLECULE
1w4y_HEM_A_1.pdb
 43 50 0 0 0
SMALL
GASTEIGER

@<TRIPOS>ATOM
      1 FE          3.1560    2.1650   11.5690 Fe    1307  HEM1307     0.0000
      2  CHA       -0.0720    3.2850   11.8370 C.2   1307  HEM1307     0.0000
      3  CHB        2.3850    0.6390    8.6320 C.2   1307  HEM1307     0.0000
      4  CHC        6.3460    1.0270   11.3400 C.2   1307  HEM1307     0.0000
      5  CHD        3.9680    3.9240   14.3920 C.2   1307  HEM1307     0.0000
      6  NA         1.4800    2.0070   10.4440 N.ar  1307  HEM1307     0.0000
      7  C1A        0.2390    2.5500   10.6890 C.ar  1307  HEM1307     0.0000
      8  C2A       -0.6960    2.1660    9.6410 C.ar  1307  HEM1307     0.0000
      9  C3A       -0.0080    1.4210    8.7460 C.ar  1307  HEM1307     0.0000
     10  C4A        1.3490    1.3390    9.2410 C.ar  1307  HEM1307     0.0000
     11  CMA       -0.6130    0.6860    7.5540 C.3   1307  HEM1307     0.0000
     12  CAA       -2.1920    2.4550    9.5550 C.3   1307  HEM1307     0.0000
     13  CBA       -2.4480    3.8310    8.9790 C.3   1307  HEM1307     0.0000
     14  CGA       -3.9240    4.1270    8.8130 C.2   1307  HEM1307     0.0000
     15  O1A       -4.2960    5.3200    8.8260 O.co2 1307  HEM1307     0.0000
     16  O2A       -4.7090    3.1700    8.6620 O.co2 1307  HEM1307     0.0000
     17  NB         4.1650    1.0040   10.2630 N.2   1307  HEM1307     0.0000
     18  C1B        3.6770    0.4470    9.1020 C.2   1307  HEM1307     0.0000
     19  C2B        4.6690   -0.3940    8.4860 C.2   1307  HEM1307     0.0000
     20  C3B        5.7690   -0.3750    9.2790 C.2   1307  HEM1307     0.0000
     21  C4B        5.4720    0.5630   10.3610 C.2   1307  HEM1307     0.0000
     22  CMB        4.5130   -1.1100    7.1480 C.3   1307  HEM1307     0.0000
     23  CAB        6.9280   -1.1080    9.0180 C.3   1307  HEM1307     0.0000
     24  CBB        7.8220   -1.6840   10.0050 C.3   1307  HEM1307     0.0000
     25  NC         4.8460    2.4550   12.6450 N.ar  1307  HEM1307     0.0000
     26  C1C        6.0900    1.9320   12.3770 C.ar  1307  HEM1307     0.0000
     27  C2C        7.1040    2.5340   13.2360 C.ar  1307  HEM1307     0.0000
     28  C3C        6.4300    3.3750   14.0990 C.ar  1307  HEM1307     0.0000
     29  C4C        5.0310    3.2900   13.7330 C.ar  1307  HEM1307     0.0000
     30  CMC        8.6140    2.3570   13.0500 C.3   1307  HEM1307     0.0000
     31  CAC        6.9480    4.2350   15.0850 C.3   1307  HEM1307     0.0000
     32  CBC        8.0780    3.9340   15.9130 C.3   1307  HEM1307     0.0000
     33  ND         2.1440    3.3170   12.8910 N.2   1307  HEM1307     0.0000
     34  C1D        2.6250    3.8790   14.0480 C.2   1307  HEM1307     0.0000
     35  C2D        1.5320    4.3820   14.8510 C.2   1307  HEM1307     0.0000
     36  C3D        0.3910    4.2300   14.1240 C.2   1307  HEM1307     0.0000
     37  C4D        0.7750    3.6010   12.8930 C.2   1307  HEM1307     0.0000
     38  CMD        1.6370    4.9140   16.2680 C.3   1307  HEM1307     0.0000
     39  CAD       -1.0030    4.6950   14.5330 C.3   1307  HEM1307     0.0000
     40  CBD       -1.1770    6.1680   14.2200 C.3   1307  HEM1307     0.0000
     41  CGD       -2.5750    6.6740   14.5130 C.2   1307  HEM1307     0.0000
     42  O1D       -2.8270    7.8670   14.2520 O.co2 1307  HEM1307     0.0000
     43  O2D       -3.4200    5.8870   15.0010 O.co2 1307  HEM1307     0.0000
@<TRIPOS>BOND
     1    22    19    1
     2    11     9    1
     3    19    18    1
     4    19    20    2
     5     3    18    1
     6     3    10    2
     7    16    14   ar
     8     9    10   ar
     9     9     8   ar
    10    14    15   ar
    11    14    13    1
    12    13    12    1
    13    23    20    1
    14    23    24    1
    15    18    17    2
    16    10     6   ar
    17    20    21    1
    18    12     8    1
    19     8     7   ar
    20    17    21    1
    21    17     1    1
    22    21     4    2
    23     6     7   ar
    24     6     1    1
    25     7     2    2
    26     4    26    1
    27     1    25    1
    28     1    33    1
    29     2    37    1
    30    26    25   ar
    31    26    27   ar
    32    25    29   ar
    33    33    37    2
    34    33    34    1
    35    37    36    1
    36    30    27    1
    37    27    28   ar
    38    29    28   ar
    39    29     5    1
    40    34     5    2
    41    34    35    1
    42    28    31    1
    43    36    39    1
    44    36    35    2
    45    40    41    1
    46    40    39    1
    47    42    41   ar
    48    41    43   ar
    49    35    38    1
    50    31    32    1
