@<TRIPOS>MOLECULE
1w51_L01_A_1.pdb
 39 41 0 0 0
SMALL
GASTEIGER

@<TRIPOS>ATOM
      1  C1        72.3560   46.9920    3.5200 C.3   1506  L011506     0.0018
      2  C2        73.5900   46.1720    3.1170 C.3   1506  L011506     0.0215
      3  C3        73.8500   44.9180    3.9660 C.3   1506  L011506     0.0937
      4  N4        73.1400   44.9030    5.2580 N.am  1506  L011506    -0.2761
      5  C5        73.6150   45.7090    6.3930 C.3   1506  L011506     0.0937
      6  C6        74.8110   44.9960    7.0480 C.3   1506  L011506     0.0215
      7  C7        74.3920   44.4000    8.3940 C.3   1506  L011506     0.0018
      8  C8        72.0920   44.0820    5.3510 C.2   1506  L011506     0.2490
      9  O9        72.0000   43.2020    4.5120 O.2   1506  L011506    -0.2699
     10  C10       71.0710   44.1850    6.4150 C.ar  1506  L011506     0.0537
     11  C11       70.7120   43.0090    7.0590 C.ar  1506  L011506     0.0045
     12  C12       69.7650   43.0180    8.0580 C.ar  1506  L011506     0.0003
     13  C13       69.1430   44.1900    8.4100 C.ar  1506  L011506     0.0046
     14  C14       69.4930   45.3780    7.7700 C.ar  1506  L011506     0.0552
     15  C15       70.4440   45.3830    6.7560 C.ar  1506  L011506     0.0091
     16  C16       68.8040   46.5900    8.1880 C.2   1506  L011506     0.2648
     17  O17       68.4820   46.7120    9.3610 O.2   1506  L011506    -0.2684
     18  N18       68.5230   47.5140    7.2450 N.am  1506  L011506    -0.2004
     19  C19       68.0950   48.8620    7.5410 C.3   1506  L011506     0.1316
     20  C21       68.9470   49.8150    6.7290 C.3   1506  L011506     0.0507
     21  C22       70.4250   49.6920    7.0380 C.ar  1506  L011506    -0.0204
     22  C23       70.9080   49.8850    8.3150 C.ar  1506  L011506    -0.0042
     23  C24       72.2740   49.8120    8.5500 C.ar  1506  L011506    -0.0003
     24  C25       73.1720   49.5390    7.5460 C.ar  1506  L011506    -0.0000
     25  C26       72.7020   49.3430    6.2760 C.ar  1506  L011506    -0.0003
     26  C27       71.3350   49.4410    6.0270 C.ar  1506  L011506    -0.0042
     27  C28       66.6480   48.9840    7.1130 C.3   1506  L011506     0.1894
     28  O30       66.2790   50.3180    7.4100 O.3   1506  L011506    -0.2197
     29  C31       65.7770   47.9490    7.8560 C.3   1506  L011506     0.1237
     30  N32       64.3220   48.1080    7.6170 N.3   1506  L011506    -0.2105
     31  C35       63.4920   47.7250    8.7910 C.3   1506  L011506     0.1152
     32  C36       63.4630   48.7380    9.9420 C.ar  1506  L011506    -0.0018
     33  C37       63.6040   48.3050   11.2600 C.ar  1506  L011506    -0.0027
     34  C38       63.5950   49.2070   12.3280 C.ar  1506  L011506     0.0028
     35  C39       63.4300   50.5760   12.1090 C.ar  1506  L011506     0.0369
     36  C40       63.2720   51.0350   10.7950 C.ar  1506  L011506     0.1385
     37  O41       63.0860   52.3420   10.4320 O.3   1506  L011506    -0.4714
     38  C42       63.1810   53.2840   11.5090 C.3   1506  L011506     0.2525
     39  C43       63.2940   50.1070    9.7430 C.ar  1506  L011506     0.0340
@<TRIPOS>BOND
     1     2     1    1
     2     2     3    1
     3     3     4    1
     4     9     8    2
     5     4     8   am
     6     4     5    1
     7     8    10    1
     8    26    25   ar
     9    26    21   ar
    10    25    24   ar
    11     5     6    1
    12    10    15   ar
    13    10    11   ar
    14    20    21    1
    15    20    19    1
    16    15    14   ar
    17    21    22   ar
    18     6     7    1
    19    11    12   ar
    20    27    28    1
    21    27    19    1
    22    27    29    1
    23    18    19    1
    24    18    16   am
    25    24    23   ar
    26    30    29    1
    27    30    31    1
    28    14    16    1
    29    14    13   ar
    30    12    13   ar
    31    16    17    2
    32    22    23   ar
    33    31    32    1
    34    39    32   ar
    35    39    36   ar
    36    32    33   ar
    37    37    36    1
    38    37    38    1
    39    36    35   ar
    40    33    34   ar
    41    35    34   ar
