@<TRIPOS>MOLECULE
1w52_DDQ_X_1.pdb
 14 13 0 0 0
SMALL
GASTEIGER

@<TRIPOS>ATOM
      1  N1        11.0000  114.8260   15.8530 N.4   501  DDQ501      0.4277
      2  O1        11.0080  116.1070   15.9380 O.3   501  DDQ501     -0.2898
      3  CM1        9.8470  114.3020   15.0220 C.3   501  DDQ501     -0.0454
      4  CM2       12.3540  114.3340   15.3090 C.3   501  DDQ501     -0.0454
      5  C1        10.6970  114.5030   17.2870 C.3   501  DDQ501     -0.0278
      6  C2         9.3790  115.1570   17.7420 C.3   501  DDQ501     -0.0173
      7  C3         9.6210  116.1910   18.8220 C.3   501  DDQ501     -0.0020
      8  C4         8.6320  116.0610   19.9820 C.3   501  DDQ501     -0.0001
      9  C5         9.3250  116.3760   21.2840 C.3   501  DDQ501     -0.0000
     10  C6         8.2840  116.6280   22.3410 C.3   501  DDQ501     -0.0000
     11  C7         8.9370  116.5630   23.7180 C.3   501  DDQ501      0.0000
     12  C8         7.9090  116.7280   24.8450 C.3   501  DDQ501      0.0000
     13  C9         7.8550  118.1680   25.3840 C.3   501  DDQ501      0.0000
     14  C10        7.0040  119.1740   24.5680 C.3   501  DDQ501      0.0000
@<TRIPOS>BOND
     1     3     1    1
     2     4     1    1
     3     1     2    1
     4     1     5    1
     5     5     6    1
     6     6     7    1
     7     7     8    1
     8     8     9    1
     9     9    10    1
    10    10    11    1
    11    11    12    1
    12    14    13    1
    13    12    13    1
