@<TRIPOS>MOLECULE
1w55_C_A_1.pdb
 21 22 0 0 0
SMALL
GASTEIGER

@<TRIPOS>ATOM
      1  OP3       67.5640   38.2590   10.8900 O.2   1372  C1372      -0.2224
      2  P         68.3940   37.6400   11.9740 P.3   1372  C1372       0.5327
      3  OP1       67.6710   36.5890   12.7540 O.3   1372  C1372      -0.1145
      4  OP2       69.0440   38.6810   12.8390 O.3   1372  C1372      -0.1145
      5  O5'       69.5710   36.8700   11.2080 O.3   1372  C1372      -0.2675
      6  C5'       70.5460   37.5650   10.4430 C.3   1372  C1372       0.1859
      7  C4'       71.1420   36.6330    9.3900 C.3   1372  C1372       0.1801
      8  O4'       71.7520   35.4740    9.9800 O.3   1372  C1372      -0.3320
      9  C3'       70.1330   36.0640    8.3930 C.3   1372  C1372       0.2158
     10  O3'       69.8940   36.9470    7.3000 O.3   1372  C1372      -0.2175
     11  C2'       70.7960   34.7760    7.9360 C.3   1372  C1372       0.2319
     12  O2'       71.7810   35.0770    6.9510 O.3   1372  C1372      -0.2157
     13  C1'       71.5960   34.3200    9.1360 C.3   1372  C1372       0.2400
     14  N1        71.0430   33.1930    9.9270 N.am  1372  C1372      -0.1778
     15  C2        71.5510   31.8870    9.7590 C.1   1372  C1372       0.2756
     16  O2        72.4360   31.6720    8.9030 O.2   1372  C1372      -0.1925
     17  N3        71.0850   30.8540   10.5090 N.2   1372  C1372      -0.3024
     18  C4        70.1160   31.0590   11.4330 C.2   1372  C1372       0.2346
     19  N4        69.6430   30.0300   12.1890 N.pl3 1372  C1372      -0.0921
     20  C5        69.5930   32.3340   11.6040 C.2   1372  C1372       0.0687
     21  C6        70.0810   33.3980   10.8450 C.2   1372  C1372       0.0836
@<TRIPOS>BOND
     1    12    11    1
     2    10     9    1
     3    11     9    1
     4    11    13    1
     5     9     7    1
     6    16    15    2
     7    13    14    1
     8    13     8    1
     9     7     8    1
    10     7     6    1
    11    15    14   am
    12    15    17    2
    13    14    21    1
    14     6     5    1
    15    17    18    2
    16    21    20    2
    17     1     2    2
    18     5     2    1
    19    18    20    1
    20    18    19    1
    21     2     3    1
    22     2     4    1
