@<TRIPOS>MOLECULE
1w55_GPP_A_1.pdb
 19 18 0 0 0
SMALL
GASTEIGER

@<TRIPOS>ATOM
      1  C1        55.3440   31.7680   16.9710 C.3   1374  GPP1374     0.1747
      2  O1        55.3370   31.0490   18.2040 O.3   1374  GPP1374    -0.3089
      3  C2        55.3730   30.8690   15.7540 C.2   1374  GPP1374    -0.0024
      4  C3        55.5230   31.3610   14.5060 C.2   1374  GPP1374    -0.0454
      5  C4        55.6800   32.8400   14.2740 C.3   1374  GPP1374     0.0261
      6  C5        55.5440   30.4140   13.3180 C.3   1374  GPP1374     0.0264
      7  C6        54.1770   30.3350   12.6310 C.3   1374  GPP1374     0.0297
      8  C7        54.3450   30.2460   11.1270 C.2   1374  GPP1374    -0.0342
      9  C8        54.2120   31.2970   10.2940 C.2   1374  GPP1374    -0.0478
     10  C9        54.4010   31.1190    8.8130 C.3   1374  GPP1374     0.0260
     11  C10       53.8780   32.6600   10.8210 C.3   1374  GPP1374     0.0260
     12  PA        54.3520   31.5200   19.3960 P.3   1374  GPP1374     0.2233
     13  O1A       53.7760   32.9620   19.0550 O.2   1374  GPP1374    -0.5169
     14  O2A       53.1560   30.4940   19.5610 O.3   1374  GPP1374    -0.4370
     15  O3A       55.2740   31.5260   20.7200 O.3   1374  GPP1374    -0.2261
     16  PB        54.6930   31.7410   22.2130 P.3   1374  GPP1374     0.5373
     17  O1B       54.9650   30.4450   23.0870 O.3   1374  GPP1374    -0.1143
     18  O2B       55.4070   32.9820   22.8970 O.3   1374  GPP1374    -0.1143
     19  O3B       53.1360   32.0370   22.1780 O.2   1374  GPP1374    -0.2221
@<TRIPOS>BOND
     1    10     9    1
     2     9    11    1
     3     9     8    2
     4     8     7    1
     5     7     6    1
     6     6     4    1
     7     5     4    1
     8     4     3    2
     9     3     1    1
    10     1     2    1
    11     2    12    1
    12    13    12    2
    13    12    14    1
    14    12    15    1
    15    15    16    1
    16    19    16    2
    17    16    18    1
    18    16    17    1
