@<TRIPOS>MOLECULE
1w57_C5P_A_1.pdb
 21 22 0 0 0
SMALL
GASTEIGER

@<TRIPOS>ATOM
      1  O3P       67.1510   38.0230   11.0230 O.2   1372  C5P1372    -0.2224
      2  P         67.7730   36.9660   11.9200 P.3   1372  C5P1372     0.5327
      3  O1P       66.8030   35.8610   12.2880 O.3   1372  C5P1372    -0.1145
      4  O2P       68.5900   37.5060   13.0810 O.3   1372  C5P1372    -0.1145
      5  O5'       68.8690   36.2640   10.9680 O.3   1372  C5P1372    -0.2675
      6  C5'       69.8470   36.9760   10.2310 C.3   1372  C5P1372     0.1859
      7  C4'       70.5470   35.9750    9.3100 C.3   1372  C5P1372     0.1801
      8  O4'       71.1860   34.9000   10.0270 O.3   1372  C5P1372    -0.3320
      9  C3'       69.6280   35.2920    8.2950 C.3   1372  C5P1372     0.2158
     10  O3'       69.4520   36.0340    7.0930 O.3   1372  C5P1372    -0.2175
     11  C2'       70.3040   33.9570    8.0280 C.3   1372  C5P1372     0.2319
     12  O2'       71.2480   34.0930    6.9830 O.3   1372  C5P1372    -0.2157
     13  C1'       71.1060   33.6720    9.2770 C.3   1372  C5P1372     0.2400
     14  N1        70.5490   32.5640   10.0760 N.am  1372  C5P1372    -0.1778
     15  C2        71.1040   31.2660    9.9900 C.1   1372  C5P1372     0.2756
     16  N3        70.6190   30.2490   10.7500 N.2   1372  C5P1372    -0.3024
     17  C4        69.5850   30.4580   11.6030 C.2   1372  C5P1372     0.2346
     18  C5        69.0210   31.7210   11.7100 C.2   1372  C5P1372     0.0687
     19  C6        69.5320   32.7640   10.9300 C.2   1372  C5P1372     0.0836
     20  O2        72.0510   31.0510    9.2060 O.2   1372  C5P1372    -0.1925
     21  N4        69.0860   29.4510   12.3550 N.pl3 1372  C5P1372    -0.0921
@<TRIPOS>BOND
     1    12    11    1
     2    10     9    1
     3    11     9    1
     4    11    13    1
     5     9     7    1
     6    20    15    2
     7    13     8    1
     8    13    14    1
     9     7     8    1
    10     7     6    1
    11    15    14   am
    12    15    16    2
    13    14    19    1
    14     6     5    1
    15    16    17    2
    16    19    18    2
    17     5     2    1
    18     1     2    2
    19    17    18    1
    20    17    21    1
    21     2     3    1
    22     2     4    1
