@<TRIPOS>MOLECULE
1w57_GPP_A_1.pdb
 19 18 0 0 0
SMALL
GASTEIGER

@<TRIPOS>ATOM
      1  C1        54.9930   31.2330   16.8210 C.3   1374  GPP1374     0.1747
      2  O1        54.7640   30.4580   17.9950 O.3   1374  GPP1374    -0.3089
      3  C2        54.7790   30.4040   15.5760 C.2   1374  GPP1374    -0.0024
      4  C3        55.4840   30.5970   14.4450 C.2   1374  GPP1374    -0.0454
      5  C4        56.5510   31.6540   14.3530 C.3   1374  GPP1374     0.0261
      6  C5        55.1930   29.7280   13.2430 C.3   1374  GPP1374     0.0264
      7  C6        54.3980   30.5020   12.1900 C.3   1374  GPP1374     0.0297
      8  C7        55.1290   30.4770   10.8610 C.2   1374  GPP1374    -0.0342
      9  C8        54.7750   31.1970    9.7750 C.2   1374  GPP1374    -0.0478
     10  C9        55.5810   31.0870    8.5120 C.3   1374  GPP1374     0.0260
     11  C10       53.5830   32.1130    9.7810 C.3   1374  GPP1374     0.0260
     12  PA        53.8250   31.0240   19.1760 P.3   1374  GPP1374     0.2233
     13  O1A       53.5600   32.5760   18.9830 O.2   1374  GPP1374    -0.5169
     14  O2A       52.4560   30.2280   19.1730 O.3   1374  GPP1374    -0.4370
     15  O3A       54.6180   30.7530   20.5540 O.3   1374  GPP1374    -0.2261
     16  PB        54.1040   31.3670   21.9600 P.3   1374  GPP1374     0.5373
     17  O1B       54.1920   30.3020   23.1390 O.3   1374  GPP1374    -0.1143
     18  O2B       54.9940   32.6200   22.3710 O.3   1374  GPP1374    -0.1143
     19  O3B       52.5900   31.8250   21.8280 O.2   1374  GPP1374    -0.2221
@<TRIPOS>BOND
     1    10     9    1
     2     9    11    1
     3     9     8    2
     4     8     7    1
     5     7     6    1
     6     6     4    1
     7     5     4    1
     8     4     3    2
     9     3     1    1
    10     1     2    1
    11     2    12    1
    12    13    12    2
    13    14    12    1
    14    12    15    1
    15    15    16    1
    16    19    16    2
    17    16    18    1
    18    16    17    1
