@<TRIPOS>MOLECULE
1w58_G2P_1_1.pdb
 32 34 0 0 0
SMALL
GASTEIGER

@<TRIPOS>ATOM
      1  PG         4.7550   36.8710    1.2930 P.3   1362  G2P1362     0.5389
      2  O1G        4.7150   37.4520    2.6330 O.3   1362  G2P1362    -0.1143
      3  O2G        3.9220   37.6460    0.3820 O.2   1362  G2P1362    -0.2220
      4  O3G        4.0770   35.4790    1.2930 O.3   1362  G2P1362    -0.1143
      5  O3B        6.3260   36.7080    0.8450 O.3   1362  G2P1362    -0.2026
      6  PB         6.9230   36.1500   -0.5990 P.3   1362  G2P1362     0.3895
      7  O1B        8.1230   35.3420   -0.3640 O.3   1362  G2P1362    -0.1388
      8  O2B        6.0210   35.4750   -1.4950 O.2   1362  G2P1362    -0.2544
      9  C3A        7.5270   37.6310   -1.3700 C.3   1362  G2P1362     0.2357
     10  PA         7.4310   37.6520   -3.1590 P.3   1362  G2P1362     0.3820
     11  O1A        7.7410   36.3550   -3.7930 O.2   1362  G2P1362    -0.2548
     12  O2A        6.2560   38.3660   -3.6710 O.3   1362  G2P1362    -0.1392
     13  O5'        8.7650   38.4860   -3.3220 O.3   1362  G2P1362    -0.2896
     14  C5'        8.9930   39.7760   -2.8310 C.3   1362  G2P1362     0.1836
     15  C4'       10.3730   40.2520   -3.3520 C.3   1362  G2P1362     0.1800
     16  O4'       10.8160   39.4380   -4.5010 O.3   1362  G2P1362    -0.3326
     17  C3'       10.2660   41.7110   -3.8080 C.3   1362  G2P1362     0.2158
     18  O3'       10.8680   42.5210   -2.7900 O.3   1362  G2P1362    -0.2175
     19  C2'       10.9650   41.7270   -5.1740 C.3   1362  G2P1362     0.2310
     20  O2'       12.2900   42.2000   -5.0870 O.3   1362  G2P1362    -0.2158
     21  C1'       10.9760   40.2820   -5.6760 C.3   1362  G2P1362     0.2293
     22  N9         9.8550   40.0150   -6.6370 N.pl3 1362  G2P1362    -0.2354
     23  C8         8.4830   40.1720   -6.4630 C.3   1362  G2P1362     0.2246
     24  N7         7.7480   39.8500   -7.4750 N.2   1362  G2P1362    -0.2322
     25  C5         8.6710   39.4340   -8.4450 C.2   1362  G2P1362     0.2182
     26  C6         8.4780   38.9450   -9.8080 C.1   1362  G2P1362     0.2372
     27  O6         7.4170   38.7840  -10.4370 O.2   1362  G2P1362    -0.2069
     28  N1         9.6990   38.6350  -10.4370 N.2   1362  G2P1362    -0.2485
     29  C2        10.9600   38.7620   -9.8600 C.1   1362  G2P1362     0.2531
     30  N2        12.0300   38.4200  -10.6020 N.pl3 1362  G2P1362    -0.0226
     31  N3        11.1350   39.2120   -8.5950 N.2   1362  G2P1362    -0.3074
     32  C4         9.9740   39.5310   -7.9410 C.2   1362  G2P1362     0.2300
@<TRIPOS>BOND
     1    30    29    1
     2    28    29    2
     3    28    26    2
     4    27    26    2
     5    29    31    2
     6    26    25    1
     7    31    32    2
     8    25    32    1
     9    25    24    2
    10    32    22    1
    11    24    23    1
    12    22    23    1
    13    22    21    1
    14    21    19    1
    15    21    16    1
    16    19    20    1
    17    19    17    1
    18    16    15    1
    19    17    15    1
    20    17    18    1
    21    11    10    2
    22    12    10    1
    23    15    14    1
    24    13    10    1
    25    13    14    1
    26    10     9    1
    27     8     6    2
    28     9     6    1
    29     6     7    1
    30     6     5    1
    31     3     1    2
    32     5     1    1
    33     1     4    1
    34     1     2    1
