@<TRIPOS>MOLECULE
1w5a_GTP_A_1.pdb
 32 34 0 0 0
SMALL
GASTEIGER

@<TRIPOS>ATOM
      1  PG        53.7550   12.4480   41.8840 P.3   500  GTP500      0.5373
      2  O1G       55.0530   11.9330   42.5500 O.3   500  GTP500     -0.1143
      3  O2G       53.2130   13.6850   42.6340 O.3   500  GTP500     -0.1143
      4  O3G       52.6560   11.3800   41.9430 O.2   500  GTP500     -0.2221
      5  O3B       54.1250   12.7780   40.2880 O.3   500  GTP500     -0.2258
      6  PB        53.6080   13.9890   39.2990 P.3   500  GTP500      0.2277
      7  O1B       52.2280   14.4020   39.5900 O.3   500  GTP500     -0.4368
      8  O2B       53.9000   13.4840   37.8970 O.2   500  GTP500     -0.5168
      9  O3A       54.5360   15.2110   39.5620 O.3   500  GTP500     -0.2700
     10  PA        54.4640   16.7010   39.1190 P.3   500  GTP500      0.2189
     11  O1A       53.8980   17.5230   40.2320 O.3   500  GTP500     -0.4371
     12  O2A       53.8860   16.8240   37.7890 O.2   500  GTP500     -0.5170
     13  O5'       56.0600   17.0740   39.1350 O.3   500  GTP500     -0.3112
     14  C5'       56.9690   16.6860   38.1110 C.3   500  GTP500      0.1813
     15  C4'       57.8630   17.8540   37.7280 C.3   500  GTP500      0.1799
     16  O4'       57.0720   18.8440   37.0470 O.3   500  GTP500     -0.3326
     17  C3'       58.4950   18.5870   38.9210 C.3   500  GTP500      0.2158
     18  O3'       59.7530   18.0080   39.2300 O.3   500  GTP500     -0.2175
     19  C2'       58.7060   20.0000   38.3640 C.3   500  GTP500      0.2310
     20  O2'       59.8640   20.0210   37.5310 O.3   500  GTP500     -0.2158
     21  C1'       57.5140   20.1400   37.4140 C.3   500  GTP500      0.2293
     22  N9        56.3840   20.9160   37.9280 N.pl3 500  GTP500     -0.2354
     23  C8        55.6160   20.6520   39.0600 C.3   500  GTP500      0.2246
     24  N7        54.6970   21.5650   39.2700 N.2   500  GTP500     -0.2322
     25  C5        54.6230   22.2260   38.0590 C.2   500  GTP500      0.2182
     26  C6        53.6760   23.1310   37.5350 C.1   500  GTP500      0.2372
     27  O6        52.6430   23.5320   38.0690 O.2   500  GTP500     -0.2069
     28  N1        53.9880   23.5450   36.2260 N.2   500  GTP500     -0.2485
     29  C2        55.0540   23.0640   35.4650 C.1   500  GTP500      0.2531
     30  N2        55.2110   23.5580   34.2590 N.pl3 500  GTP500     -0.0226
     31  N3        55.9650   22.2520   35.9530 N.2   500  GTP500     -0.3074
     32  C4        55.6620   21.8010   37.2020 C.2   500  GTP500      0.2300
@<TRIPOS>BOND
     1    30    29    1
     2    29    31    2
     3    29    28    2
     4    31    32    2
     5    28    26    2
     6    16    21    1
     7    16    15    1
     8    32    22    1
     9    32    25    1
    10    21    22    1
    11    21    19    1
    12    20    19    1
    13    26    25    1
    14    26    27    2
    15    15    14    1
    16    15    17    1
    17    12    10    2
    18     8     6    2
    19    22    23    1
    20    25    24    2
    21    14    13    1
    22    19    17    1
    23    17    18    1
    24    23    24    1
    25    10    13    1
    26    10     9    1
    27    10    11    1
    28     6     9    1
    29     6     7    1
    30     6     5    1
    31     5     1    1
    32     1     4    2
    33     1     2    1
    34     1     3    1
