@<TRIPOS>MOLECULE
1w5b_GTP_A_1.pdb
 32 34 0 0 0
SMALL
GASTEIGER

@<TRIPOS>ATOM
      1  PG        53.7030   12.4460   41.8820 P.3   500  GTP500      0.5373
      2  O1G       54.9380   11.8890   42.6140 O.3   500  GTP500     -0.1143
      3  O2G       53.1040   13.6640   42.6250 O.3   500  GTP500     -0.1143
      4  O3G       52.5880   11.3890   41.7970 O.2   500  GTP500     -0.2221
      5  O3B       54.2050   12.8250   40.3450 O.3   500  GTP500     -0.2258
      6  PB        53.6770   13.9580   39.2850 P.3   500  GTP500      0.2277
      7  O1B       52.2860   14.3560   39.4920 O.3   500  GTP500     -0.4368
      8  O2B       54.0600   13.4070   37.9150 O.2   500  GTP500     -0.5168
      9  O3A       54.5400   15.2200   39.5290 O.3   500  GTP500     -0.2700
     10  PA        54.3740   16.6810   39.0650 P.3   500  GTP500      0.2189
     11  O1A       53.7340   17.4920   40.1410 O.3   500  GTP500     -0.4371
     12  O2A       53.8080   16.7430   37.7170 O.2   500  GTP500     -0.5170
     13  O5'       55.9410   17.1150   39.1030 O.3   500  GTP500     -0.3112
     14  C5'       56.8990   16.6210   38.1600 C.3   500  GTP500      0.1813
     15  C4'       57.8050   17.7550   37.7230 C.3   500  GTP500      0.1799
     16  O4'       57.0120   18.7470   37.0390 O.3   500  GTP500     -0.3326
     17  C3'       58.4470   18.4930   38.9050 C.3   500  GTP500      0.2158
     18  O3'       59.6820   17.8840   39.2360 O.3   500  GTP500     -0.2175
     19  C2'       58.6800   19.8960   38.3380 C.3   500  GTP500      0.2310
     20  O2'       59.8570   19.8970   37.5410 O.3   500  GTP500     -0.2158
     21  C1'       57.4910   20.0490   37.3710 C.3   500  GTP500      0.2293
     22  N9        56.3760   20.8580   37.8820 N.pl3 500  GTP500     -0.2354
     23  C8        55.6990   20.6910   39.0940 C.3   500  GTP500      0.2246
     24  N7        54.5870   21.3910   39.1780 N.2   500  GTP500     -0.2322
     25  C5        54.5660   22.1210   38.0060 C.2   500  GTP500      0.2182
     26  C6        53.6160   23.0380   37.4910 C.1   500  GTP500      0.2372
     27  O6        52.6880   23.5650   38.0940 O.2   500  GTP500     -0.2069
     28  N1        53.9510   23.5010   36.2040 N.2   500  GTP500     -0.2485
     29  C2        55.0830   23.1260   35.4910 C.1   500  GTP500      0.2531
     30  N2        55.3280   23.7630   34.3800 N.pl3 500  GTP500     -0.0226
     31  N3        55.9250   22.2000   35.9110 N.2   500  GTP500     -0.3074
     32  C4        55.6080   21.7010   37.1390 C.2   500  GTP500      0.2300
@<TRIPOS>BOND
     1    30    29    1
     2    29    31    2
     3    29    28    2
     4    31    32    2
     5    28    26    2
     6    16    21    1
     7    16    15    1
     8    32    22    1
     9    32    25    1
    10    21    22    1
    11    21    19    1
    12    26    25    1
    13    26    27    2
    14    20    19    1
    15    12    10    2
    16    15    14    1
    17    15    17    1
    18    22    23    1
    19     8     6    2
    20    25    24    2
    21    14    13    1
    22    19    17    1
    23    17    18    1
    24    10    13    1
    25    10     9    1
    26    10    11    1
    27    23    24    1
    28     6     7    1
    29     6     9    1
    30     6     5    1
    31     5     1    1
    32     4     1    2
    33     1     2    1
    34     1     3    1
