@<TRIPOS>MOLECULE
1w5c_HEC_T_1.pdb
 43 50 0 0 0
SMALL
GASTEIGER

@<TRIPOS>ATOM
      1 FE         -5.8650  -46.2900   16.1940 Fe    1138  HEC1138     0.0000
      2  CHA       -6.3040  -46.3890   19.6790 C.2   1138  HEC1138     0.0000
      3  CHB       -3.9220  -49.0270   16.2140 C.2   1138  HEC1138     0.0000
      4  CHC       -5.5710  -46.2080   12.7800 C.2   1138  HEC1138     0.0000
      5  CHD       -7.9100  -43.5580   16.0400 C.2   1138  HEC1138     0.0000
      6  NA        -5.2000  -47.5050   17.6870 N.2   1138  HEC1138     0.0000
      7  C1A       -5.4870  -47.3670   19.0950 C.2   1138  HEC1138     0.0000
      8  C2A       -4.7050  -48.4330   19.7630 C.2   1138  HEC1138     0.0000
      9  C3A       -4.1210  -49.2180   18.7120 C.2   1138  HEC1138     0.0000
     10  C4A       -4.3890  -48.5820   17.4540 C.2   1138  HEC1138     0.0000
     11  CMA       -3.1880  -50.4510   18.9120 C.3   1138  HEC1138     0.0000
     12  CAA       -4.6450  -48.8260   21.2850 C.3   1138  HEC1138     0.0000
     13  CBA       -3.4220  -48.4790   21.9880 C.3   1138  HEC1138     0.0000
     14  CGA       -3.4650  -48.8970   23.3550 C.2   1138  HEC1138     0.0000
     15  O1A       -3.0720  -48.1400   24.2080 O.co2 1138  HEC1138     0.0000
     16  O2A       -3.9160  -50.0960   23.6730 O.co2 1138  HEC1138     0.0000
     17  NB        -4.9120  -47.4140   14.7820 N.ar  1138  HEC1138     0.0000
     18  C1B       -4.1540  -48.5250   15.0240 C.ar  1138  HEC1138     0.0000
     19  C2B       -3.6510  -49.0850   13.7500 C.ar  1138  HEC1138     0.0000
     20  C3B       -4.1490  -48.2730   12.7570 C.ar  1138  HEC1138     0.0000
     21  C4B       -4.9230  -47.2170   13.4240 C.ar  1138  HEC1138     0.0000
     22  CMB       -2.7600  -50.3430   13.5850 C.3   1138  HEC1138     0.0000
     23  CAB       -3.8370  -48.5980   11.3490 C.2   1138  HEC1138     0.0000
     24  CBB       -4.6640  -49.0430   10.5030 C.2   1138  HEC1138     0.0000
     25  NC        -6.5980  -45.0960   14.6740 N.2   1138  HEC1138     0.0000
     26  C1C       -6.3460  -45.2170   13.3530 C.2   1138  HEC1138     0.0000
     27  C2C       -6.9950  -44.1120   12.6030 C.2   1138  HEC1138     0.0000
     28  C3C       -7.6700  -43.3490   13.5230 C.2   1138  HEC1138     0.0000
     29  C4C       -7.4180  -43.9870   14.8360 C.2   1138  HEC1138     0.0000
     30  CMC       -6.9090  -43.8930   11.0900 C.3   1138  HEC1138     0.0000
     31  CAC       -8.4950  -42.1220   13.2890 C.3   1138  HEC1138     0.0000
     32  CBC       -9.8290  -42.4810   12.6340 C.3   1138  HEC1138     0.0000
     33  ND        -6.9090  -45.1690   17.5480 N.ar  1138  HEC1138     0.0000
     34  C1D       -7.6950  -44.1000   17.3050 C.ar  1138  HEC1138     0.0000
     35  C2D       -8.2860  -43.5950   18.4690 C.ar  1138  HEC1138     0.0000
     36  C3D       -7.8410  -44.4100   19.5290 C.ar  1138  HEC1138     0.0000
     37  C4D       -6.9500  -45.3920   18.8910 C.ar  1138  HEC1138     0.0000
     38  CMD       -9.2520  -42.4050   18.5640 C.3   1138  HEC1138     0.0000
     39  CAD       -7.9790  -44.6000   20.9770 C.3   1138  HEC1138     0.0000
     40  CBD       -9.5620  -44.9070   21.0940 C.3   1138  HEC1138     0.0000
     41  CGD      -10.1770  -45.1840   22.4630 C.2   1138  HEC1138     0.0000
     42  O1D       -9.7560  -46.0100   23.2180 O.co2 1138  HEC1138     0.0000
     43  O2D      -11.2490  -44.4640   22.7280 O.co2 1138  HEC1138     0.0000
@<TRIPOS>BOND
     1    24    23    2
     2    30    27    1
     3    23    20    1
     4    27    26    1
     5    27    28    2
     6    32    31    1
     7    20    21   ar
     8    20    19   ar
     9     4    26    2
    10     4    21    1
    11    31    28    1
    12    26    25    1
    13    21    17   ar
    14    28    29    1
    15    22    19    1
    16    19    18   ar
    17    25    29    2
    18    25     1    1
    19    17    18   ar
    20    17     1    1
    21    29     5    1
    22    18     3    1
    23     5    34    2
    24     1    33    1
    25     1     6    1
    26     3    10    2
    27    34    33   ar
    28    34    35   ar
    29    10     6    1
    30    10     9    1
    31    33    37   ar
    32     6     7    2
    33    35    38    1
    34    35    36   ar
    35     9    11    1
    36     9     8    2
    37    37    36   ar
    38    37     2    2
    39     7     2    1
    40     7     8    1
    41    36    39    1
    42     8    12    1
    43    39    40    1
    44    40    41    1
    45    12    13    1
    46    13    14    1
    47    41    43   ar
    48    41    42   ar
    49    14    16   ar
    50    14    15   ar
