@<TRIPOS>MOLECULE
1w5c_CLA_A_3.pdb
 45 51 0 0 0
SMALL
GASTEIGER

@<TRIPOS>ATOM
      1 MG         13.3840   55.8790   50.8060 Mg    1344  CLA1344     0.0000
      2  CHA       16.4710   56.9420   52.0710 C.2   1344  CLA1344     0.0000
      3  CHB       12.6900   59.0880   49.8430 C.2   1344  CLA1344     0.0000
      4  CHC       10.7760   54.8150   48.8400 C.2   1344  CLA1344     0.0000
      5  CHD       14.4640   52.5940   51.0840 C.2   1344  CLA1344     0.0000
      6  NA        14.4450   57.7880   50.9330 N.2   1344  CLA1344     0.0000
      7  C1A       15.6650   57.9850   51.5690 C.2   1344  CLA1344     0.0000
      8  C2A       15.9790   59.4810   51.5640 C.2   1344  CLA1344     0.0000
      9  C3A       14.7400   60.0800   50.8790 C.2   1344  CLA1344     0.0000
     10  C4A       13.8920   58.9420   50.5310 C.1   1344  CLA1344     0.0000
     11  CMA       13.9980   60.9710   51.8880 C.3   1344  CLA1344     0.0000
     12  CAA       17.2210   59.8100   50.5560 C.2   1344  CLA1344     0.0000
     13  CBA       17.2750   59.0510   49.2400 C.2   1344  CLA1344     0.0000
     14  CGA       18.2400   59.4840   48.1980 C.2   1344  CLA1344     0.0000
     15  O1A       19.3080   59.9300   48.5350 O.co2 1344  CLA1344     0.0000
     16  O2A       17.9650   59.3720   46.8740 O.co2 1344  CLA1344     0.0000
     17  NB        11.9820   56.8200   49.5710 N.ar  1344  CLA1344     0.0000
     18  C1B       11.8550   58.1670   49.4010 C.ar  1344  CLA1344     0.0000
     19  C2B       10.6890   58.4450   48.5770 C.ar  1344  CLA1344     0.0000
     20  C3B       10.1260   57.2260   48.2760 C.ar  1344  CLA1344     0.0000
     21  C4B       10.9610   56.2020   48.9150 C.ar  1344  CLA1344     0.0000
     22  CMB       10.2180   59.8510   48.1360 C.3   1344  CLA1344     0.0000
     23  CAB        8.9210   57.2090   47.4270 C.2   1344  CLA1344     0.0000
     24  CBB        7.7540   56.9760   47.8580 C.2   1344  CLA1344     0.0000
     25  NC        12.7340   54.0010   50.0790 N.2   1344  CLA1344     0.0000
     26  C1C       11.6030   53.7920   49.3810 C.1   1344  CLA1344     0.0000
     27  C2C       11.3720   52.3630   49.2330 C.2   1344  CLA1344     0.0000
     28  C3C       12.4120   51.7380   49.8600 C.2   1344  CLA1344     0.0000
     29  C4C       13.2720   52.7850   50.3940 C.2   1344  CLA1344     0.0000
     30  CMC       10.1990   51.7280   48.4910 C.3   1344  CLA1344     0.0000
     31  CAC       12.6840   50.2730   49.9850 C.3   1344  CLA1344     0.0000
     32  CBC       11.8410   49.6210   51.0800 C.3   1344  CLA1344     0.0000
     33  ND        15.0450   54.9090   51.4590 N.ar  1344  CLA1344     0.0000
     34  C1D       15.3180   53.5920   51.5700 C.ar  1344  CLA1344     0.0000
     35  C2D       16.5600   53.3750   52.1940 C.ar  1344  CLA1344     0.0000
     36  C3D       17.0720   54.6580   52.4520 C.ar  1344  CLA1344     0.0000
     37  C4D       16.1200   55.5790   51.9570 C.ar  1344  CLA1344     0.0000
     38  CMD       17.2260   52.0470   52.5110 C.3   1344  CLA1344     0.0000
     39  CAD       18.1480   55.4030   52.9910 C.2   1344  CLA1344     0.0000
     40  OBD       19.1910   55.0390   53.5360 O.2   1344  CLA1344     0.0000
     41  CBD       17.7980   56.9210   52.7880 C.3   1344  CLA1344     0.0000
     42  CGD       17.7240   57.6420   54.1100 C.2   1344  CLA1344     0.0000
     43  O1D       17.9150   58.8040   54.1920 O.2   1344  CLA1344     0.0000
     44  O2D       17.4210   56.9020   55.1440 O.3   1344  CLA1344     0.0000
     45  CED       16.1620   56.9930   55.7770 C.3   1344  CLA1344     0.0000
@<TRIPOS>BOND
     1    16    14   ar
     2    23    24    2
     3    23    20    1
     4    22    19    1
     5    14    15   ar
     6    14    13    1
     7    20    19   ar
     8    20    21   ar
     9    30    27    1
    10    19    18   ar
    11     4    21    1
    12     4    26    2
    13    21    17   ar
    14    27    26    1
    15    27    28    2
    16    13    12    2
    17    26    25    2
    18    18    17   ar
    19    18     3    1
    20    17     1    1
    21     3    10    2
    22    28    31    1
    23    28    29    1
    24    31    32    1
    25    25    29    2
    26    29     5    1
    27    10     9    1
    28    10     6    2
    29    12     8    1
    30     1    33    1
    31     9     8    2
    32     9    11    1
    33     6     7    2
    34     5    34    2
    35    33    34   ar
    36    33    37   ar
    37     8     7    1
    38     7     2    1
    39    34    35   ar
    40    37     2    2
    41    37    36   ar
    42     2    41    1
    43    35    36   ar
    44    35    38    1
    45    36    39    1
    46    41    39    1
    47    41    42    1
    48    39    40    2
    49    42    43    2
    50    42    44    1
    51    44    45    1
