@<TRIPOS>MOLECULE
1w5c_HEM_E_1.pdb
 25 32 0 0 0
SMALL
GASTEIGER

@<TRIPOS>ATOM
      1  CHA        9.0740   87.9240   46.7080 C.2   1085  HEM1085     0.0000
      2  CHB       10.0610   84.5580   50.0540 C.2   1085  HEM1085     0.0000
      3  CHC        6.0730   85.6080   52.4670 C.2   1085  HEM1085     0.0000
      4  CHD        5.0650   88.9580   49.1720 C.2   1085  HEM1085     0.0000
      5  C1A        9.7430   86.8990   47.3540 C.2   1085  HEM1085     0.0000
      6  C2A       11.0200   86.2710   46.8930 C.2   1085  HEM1085     0.0000
      7  C3A       11.2830   85.2350   47.9670 C.2   1085  HEM1085     0.0000
      8  C4A       10.1650   85.3500   48.9150 C.2   1085  HEM1085     0.0000
      9  C1B        9.1240   84.5470   50.9810 C.ar  1085  HEM1085     0.0000
     10  C2B        9.1200   83.6640   52.1520 C.ar  1085  HEM1085     0.0000
     11  C3B        7.9730   83.9510   52.8570 C.ar  1085  HEM1085     0.0000
     12  C4B        7.2730   85.0210   52.1120 C.ar  1085  HEM1085     0.0000
     13  C1C        5.4280   86.6180   51.7700 C.2   1085  HEM1085     0.0000
     14  C2C        4.1450   87.2150   52.1520 C.2   1085  HEM1085     0.0000
     15  C3C        3.8580   88.1580   51.2270 C.2   1085  HEM1085     0.0000
     16  C4C        4.9590   88.1450   50.2670 C.2   1085  HEM1085     0.0000
     17  C1D        6.0770   88.9780   48.2260 C.ar  1085  HEM1085     0.0000
     18  C2D        6.1310   89.8430   47.1260 C.ar  1085  HEM1085     0.0000
     19  C3D        7.3100   89.4950   46.4550 C.ar  1085  HEM1085     0.0000
     20  C4D        7.8740   88.4540   47.1940 C.ar  1085  HEM1085     0.0000
     21  NA         9.3060   86.2890   48.5460 N.2   1085  HEM1085     0.0000
     22  NB         8.0120   85.3480   50.9910 N.ar  1085  HEM1085     0.0000
     23  NC         5.8720   87.1920   50.6350 N.2   1085  HEM1085     0.0000
     24  ND         7.1270   88.1700   48.2490 N.ar  1085  HEM1085     0.0000
     25 FE          7.5740   86.7620   49.5750 Fe    1085  HEM1085     0.0000
@<TRIPOS>BOND
     1    19    18   ar
     2    19    20   ar
     3     1    20    2
     4     1     5    1
     5     6     5    1
     6     6     7    2
     7    18    17   ar
     8    20    24   ar
     9     5    21    2
    10     7     8    1
    11    17    24   ar
    12    17     4    2
    13    24    25    1
    14    21     8    1
    15    21    25    1
    16     8     2    2
    17     4    16    1
    18    25    23    1
    19    25    22    1
    20     2     9    1
    21    16    23    2
    22    16    15    1
    23    23    13    1
    24     9    22   ar
    25     9    10   ar
    26    22    12   ar
    27    15    14    2
    28    13    14    1
    29    13     3    2
    30    12     3    1
    31    12    11   ar
    32    10    11   ar
