@<TRIPOS>MOLECULE
1w5e_GTP_A_1.pdb
 32 34 0 0 0
SMALL
GASTEIGER

@<TRIPOS>ATOM
      1  PG        90.4760   12.5360  -29.0650 P.3   500  GTP500      0.5373
      2  O1G       90.7980   13.5910  -27.9900 O.3   500  GTP500     -0.1143
      3  O2G       91.4360   12.7050  -30.2770 O.2   500  GTP500     -0.2221
      4  O3G       89.0410   12.7140  -29.6070 O.3   500  GTP500     -0.1143
      5  O3B       90.6100   11.0160  -28.3260 O.3   500  GTP500     -0.2258
      6  PB        91.7390   10.4160  -27.2530 P.3   500  GTP500      0.2277
      7  O1B       91.2430   10.4150  -25.8890 O.3   500  GTP500     -0.4368
      8  O2B       92.9970   11.2170  -27.5370 O.2   500  GTP500     -0.5168
      9  O3A       92.0080    8.9300  -27.6500 O.3   500  GTP500     -0.2700
     10  PA        92.9230    8.1680  -28.6650 P.3   500  GTP500      0.2189
     11  O1A       93.1480    8.9970  -29.9040 O.2   500  GTP500     -0.5170
     12  O2A       92.4650    6.8000  -28.8370 O.3   500  GTP500     -0.4371
     13  O5'       94.3480    8.2480  -27.8290 O.3   500  GTP500     -0.3112
     14  C5'       95.4340    9.1310  -28.1460 C.3   500  GTP500      0.1813
     15  C4'       96.7010    8.3320  -28.3860 C.3   500  GTP500      0.1799
     16  O4'       96.5150    6.9710  -27.9320 O.3   500  GTP500     -0.3326
     17  C3'       97.0330    8.2170  -29.8760 C.3   500  GTP500      0.2158
     18  O3'       97.9030    9.2600  -30.2650 O.3   500  GTP500     -0.2175
     19  C2'       97.7710    6.8880  -29.9540 C.3   500  GTP500      0.2310
     20  O2'       99.0680    7.0560  -29.4350 O.3   500  GTP500     -0.2158
     21  C1'       97.0380    6.0730  -28.9030 C.3   500  GTP500      0.2293
     22  N9        95.9970    5.1390  -29.4090 N.pl3 500  GTP500     -0.2354
     23  C8        94.9040    5.4220  -30.2400 C.3   500  GTP500      0.2246
     24  N7        94.2100    4.3490  -30.5840 N.2   500  GTP500     -0.2322
     25  C5        94.8840    3.2980  -29.9650 C.2   500  GTP500      0.2182
     26  C6        94.4530    1.9890  -29.6140 C.1   500  GTP500      0.2372
     27  O6        93.3160    1.5030  -29.7620 O.2   500  GTP500     -0.2069
     28  N1        95.4060    1.3010  -28.8150 N.2   500  GTP500     -0.2485
     29  C2        96.5640    1.8630  -28.2780 C.1   500  GTP500      0.2531
     30  N2        97.3720    1.0780  -27.6140 N.pl3 500  GTP500     -0.0226
     31  N3        96.9710    3.0650  -28.5940 N.2   500  GTP500     -0.3074
     32  C4        96.0660    3.7760  -29.3360 C.2   500  GTP500      0.2300
@<TRIPOS>BOND
     1    24    23    1
     2    24    25    2
     3     3     1    2
     4    18    17    1
     5    23    22    1
     6    25    26    1
     7    25    32    1
     8    19    17    1
     9    19    20    1
    10    19    21    1
    11    11    10    2
    12    17    15    1
    13    27    26    2
    14    26    28    2
    15     4     1    1
    16    22    32    1
    17    22    21    1
    18    32    31    2
    19     1     5    1
    20     1     2    1
    21    21    16    1
    22    12    10    1
    23    28    29    2
    24    10    13    1
    25    10     9    1
    26    31    29    2
    27    15    14    1
    28    15    16    1
    29     5     6    1
    30    29    30    1
    31    14    13    1
    32     9     6    1
    33     8     6    2
    34     6     7    1
