@<TRIPOS>MOLECULE
1w5f_G2P_A_1.pdb
 32 34 0 0 0
SMALL
GASTEIGER

@<TRIPOS>ATOM
      1  PG        81.4310   -1.5160  -10.4740 P.3   500  G2P500      0.5389
      2  O1G       82.4030   -0.6070  -11.0990 O.3   500  G2P500     -0.1143
      3  O2G       82.0430   -2.7230  -10.0140 O.3   500  G2P500     -0.1143
      4  O3G       80.4670   -1.9570  -11.5620 O.2   500  G2P500     -0.2220
      5  O3B       80.5890   -0.6870   -9.3430 O.3   500  G2P500     -0.2026
      6  PB        79.4810   -1.2840   -8.2670 P.3   500  G2P500      0.3895
      7  O1B       78.2570   -0.4610   -8.2000 O.3   500  G2P500     -0.1388
      8  O2B       79.2010   -2.6850   -8.3850 O.2   500  G2P500     -0.2544
      9  C3A       80.3910   -1.0760   -6.7380 C.3   500  G2P500      0.2357
     10  PA        79.6780   -1.9850   -5.3620 P.3   500  G2P500      0.3820
     11  O1A       78.2360   -2.2510   -5.5720 O.2   500  G2P500     -0.2548
     12  O2A       80.5560   -3.0960   -4.9950 O.3   500  G2P500     -0.1392
     13  O5'       79.6800   -0.8330   -4.2740 O.3   500  G2P500     -0.2896
     14  C5'       80.8980   -0.2940   -3.8250 C.3   500  G2P500      0.1836
     15  C4'       80.7310    0.4440   -2.5020 C.3   500  G2P500      0.1800
     16  O4'       79.6050   -0.0710   -1.7300 O.3   500  G2P500     -0.3326
     17  C3'       81.9940    0.2900   -1.6690 C.3   500  G2P500      0.2158
     18  O3'       82.7950    1.4830   -1.8370 O.3   500  G2P500     -0.2175
     19  C2'       81.4510    0.0420   -0.2630 C.3   500  G2P500      0.2310
     20  O2'       81.3460    1.2580    0.4720 O.3   500  G2P500     -0.2158
     21  C1'       80.0550   -0.5490   -0.4570 C.3   500  G2P500      0.2293
     22  N9        79.9920   -2.0490   -0.4970 N.pl3 500  G2P500     -0.2354
     23  C8        80.8580   -2.9960   -1.0560 C.3   500  G2P500      0.2246
     24  N7        80.4800   -4.2290   -0.9240 N.2   500  G2P500     -0.2322
     25  C5        79.2570   -4.1280   -0.2230 C.2   500  G2P500      0.2182
     26  C6        78.3090   -5.1460    0.2320 C.1   500  G2P500      0.2372
     27  O6        78.3660   -6.3760    0.0970 O.2   500  G2P500     -0.2069
     28  N1        77.2050   -4.5890    0.8980 N.2   500  G2P500     -0.2485
     29  C2        76.9920   -3.2330    1.1250 C.1   500  G2P500      0.2531
     30  N2        75.8730   -2.8600    1.7780 N.pl3 500  G2P500     -0.0226
     31  N3        77.8630   -2.2910    0.7050 N.2   500  G2P500     -0.3074
     32  C4        78.9660   -2.7920    0.0430 C.2   500  G2P500      0.2300
@<TRIPOS>BOND
     1     4     1    2
     2     2     1    1
     3     1     3    1
     4     1     5    1
     5     5     6    1
     6     8     6    2
     7     6     7    1
     8     6     9    1
     9     9    10    1
    10    11    10    2
    11    10    12    1
    12    10    13    1
    13    13    14    1
    14    14    15    1
    15    15    16    1
    16    15    17    1
    17    18    17    1
    18    16    21    1
    19    17    19    1
    20    23    24    1
    21    23    22    1
    22    24    25    2
    23    22    21    1
    24    22    32    1
    25    21    19    1
    26    19    20    1
    27    25    32    1
    28    25    26    1
    29    32    31    2
    30    27    26    2
    31    26    28    2
    32    31    29    2
    33    28    29    2
    34    29    30    1
