@<TRIPOS>MOLECULE
1w5s_ADP_A_1.pdb
 27 29 0 0 0
SMALL
GASTEIGER

@<TRIPOS>ATOM
      1  PB        16.1450   74.9580   46.7030 P.3   700  ADP700      0.5373
      2  O1B       17.4050   75.1170   47.5130 O.3   700  ADP700     -0.1143
      3  O2B       16.3920   74.9720   45.1980 O.2   700  ADP700     -0.2221
      4  O3B       15.3600   73.6980   47.1340 O.3   700  ADP700     -0.1143
      5  PA        13.9680   76.2620   48.1590 P.3   700  ADP700      0.2231
      6  O1A       14.5300   75.7060   49.4240 O.3   700  ADP700     -0.4370
      7  O2A       12.7280   75.7030   47.4990 O.2   700  ADP700     -0.5169
      8  O3A       15.2340   76.2390   47.0550 O.3   700  ADP700     -0.2261
      9  O5'       13.7700   77.8660   48.3300 O.3   700  ADP700     -0.3111
     10  C5'       14.6630   78.7300   49.0690 C.3   700  ADP700      0.1813
     11  C4'       13.8640   79.7920   49.7620 C.3   700  ADP700      0.1821
     12  O4'       13.2330   80.6360   48.7800 O.3   700  ADP700     -0.3135
     13  C3'       12.7200   79.2450   50.6010 C.3   700  ADP700      0.2184
     14  O3'       12.4070   80.1380   51.6490 O.3   700  ADP700     -0.2174
     15  C2'       11.5070   79.2250   49.6490 C.3   700  ADP700      0.2570
     16  O2'       10.2430   79.3820   50.3410 O.3   700  ADP700     -0.2130
     17  C1'       11.7980   80.4820   48.8080 C.3   700  ADP700      0.3186
     18  N9        11.1820   80.3290   47.4750 N.pl3 700  ADP700     -0.1439
     19  C8        11.7700   79.6870   46.4470 C.3   700  ADP700      0.3377
     20  N7        11.0100   79.7060   45.3670 N.2   700  ADP700     -0.2095
     21  C5         9.9170   80.3850   45.6700 C.2   700  ADP700      0.2526
     22  C6         8.7120   80.7260   44.9240 C.2   700  ADP700      0.4393
     23  N6         8.6190   80.3090   43.6320 N.pl3 700  ADP700      0.2180
     24  N1         7.7590   81.4650   45.5490 N.2   700  ADP700      0.0021
     25  C2         7.9270   81.8210   46.8660 C.3   700  ADP700      0.5254
     26  N3         9.0290   81.4930   47.5910 N.2   700  ADP700     -0.0055
     27  C4        10.0260   80.8050   47.0660 C.2   700  ADP700      0.3518
@<TRIPOS>BOND
     1    23    22    1
     2    22    24    2
     3    22    21    1
     4     3     1    2
     5    20    21    2
     6    20    19    1
     7    24    25    1
     8    21    27    1
     9    19    18    1
    10     1     8    1
    11     1     4    1
    12     1     2    1
    13    25    26    1
    14     8     5    1
    15    27    18    1
    16    27    26    2
    17    18    17    1
    18     7     5    2
    19     5     9    1
    20     5     6    1
    21     9    10    1
    22    12    17    1
    23    12    11    1
    24    17    15    1
    25    10    11    1
    26    15    16    1
    27    15    13    1
    28    11    13    1
    29    13    14    1
