@<TRIPOS>MOLECULE
1w5t_ADP_C_1.pdb
 27 29 0 0 0
SMALL
GASTEIGER

@<TRIPOS>ATOM
      1  PB        56.3940  -14.3330   25.9300 P.3   700  ADP700      0.5373
      2  O1B       56.7410  -15.7890   26.1660 O.3   700  ADP700     -0.1143
      3  O2B       56.4710  -14.0470   24.4320 O.2   700  ADP700     -0.2221
      4  O3B       55.0200  -14.0660   26.4210 O.3   700  ADP700     -0.1143
      5  PA        57.1730  -12.4710   27.9620 P.3   700  ADP700      0.2231
      6  O1A       56.4360  -11.2300   27.5820 O.2   700  ADP700     -0.5169
      7  O2A       56.4430  -13.3330   28.9810 O.3   700  ADP700     -0.4370
      8  O3A       57.4570  -13.3210   26.6140 O.3   700  ADP700     -0.2261
      9  O5'       58.6030  -11.9650   28.5050 O.3   700  ADP700     -0.3111
     10  C5'       59.6060  -12.8050   29.0300 C.3   700  ADP700      0.1813
     11  C4'       60.3100  -12.0250   30.1330 C.3   700  ADP700      0.1821
     12  O4'       61.0560  -10.9050   29.6260 O.3   700  ADP700     -0.3135
     13  C3'       59.3030  -11.4500   31.1200 C.3   700  ADP700      0.2184
     14  O3'       59.9790  -11.4640   32.3470 O.3   700  ADP700     -0.2174
     15  C2'       59.1820  -10.0030   30.7160 C.3   700  ADP700      0.2570
     16  O2'       59.0500   -9.1790   31.8320 O.3   700  ADP700     -0.2130
     17  C1'       60.5190   -9.6710   30.0750 C.3   700  ADP700      0.3186
     18  N9        60.4020   -8.8180   28.8890 N.pl3 700  ADP700     -0.1439
     19  C8        60.0180   -9.2420   27.6420 C.3   700  ADP700      0.3377
     20  N7        60.0800   -8.1870   26.8110 N.2   700  ADP700     -0.2095
     21  C5        60.5090   -7.1200   27.5030 C.2   700  ADP700      0.2526
     22  C6        60.7340   -5.8090   27.1170 C.2   700  ADP700      0.4393
     23  N6        60.3510   -5.4200   25.8890 N.pl3 700  ADP700      0.2180
     24  N1        61.1880   -4.8950   28.0740 N.2   700  ADP700      0.0021
     25  C2        61.4100   -5.3030   29.3780 C.3   700  ADP700      0.5254
     26  N3        61.1590   -6.6170   29.7300 N.2   700  ADP700     -0.0055
     27  C4        60.7210   -7.4970   28.8100 C.2   700  ADP700      0.3518
@<TRIPOS>BOND
     1     3     1    2
     2    23    22    1
     3     1     2    1
     4     1     4    1
     5     1     8    1
     6     8     5    1
     7    20    21    2
     8    20    19    1
     9    22    21    1
    10    22    24    2
    11    21    27    1
    12     6     5    2
    13    19    18    1
    14     5     9    1
    15     5     7    1
    16    24    25    1
    17     9    10    1
    18    27    18    1
    19    27    26    2
    20    18    17    1
    21    10    11    1
    22    25    26    1
    23    12    17    1
    24    12    11    1
    25    17    15    1
    26    11    13    1
    27    15    13    1
    28    15    16    1
    29    13    14    1
