@<TRIPOS>MOLECULE
1w5t_ANP_A_1.pdb
 31 33 0 0 0
SMALL
GASTEIGER

@<TRIPOS>ATOM
      1  PG        38.7800   -0.4260   -3.6240 P.3   700  ANP700      0.4884
      2  O1G       37.9960   -0.1560   -4.9770 O.2   700  ANP700     -0.2331
      3  O2G       40.3330   -0.4950   -3.9630 O.3   700  ANP700     -0.1240
      4  O3G       38.3050   -1.7450   -2.8780 O.3   700  ANP700     -0.1240
      5  PB        39.6100    1.3470   -1.3680 P.3   700  ANP700      0.4669
      6  O1B       41.1420    1.3980   -1.7560 O.2   700  ANP700     -0.2351
      7  O2B       39.4230    0.3290   -0.2030 O.3   700  ANP700     -0.1253
      8  N3B       38.5710    0.9940   -2.6790 N.3   700  ANP700     -0.0163
      9  PA        39.6820    4.2180   -1.2020 P.3   700  ANP700      0.2220
     10  O1A       40.9550    4.5850   -0.3050 O.3   700  ANP700     -0.4370
     11  O2A       40.0720    4.3510   -2.7320 O.2   700  ANP700     -0.5170
     12  O3A       39.0660    2.7760   -0.8140 O.3   700  ANP700     -0.2360
     13  O5'       38.4400    5.1570   -0.7770 O.3   700  ANP700     -0.3111
     14  C5'       37.1600    5.3420   -1.4030 C.3   700  ANP700      0.1813
     15  C4'       36.8380    6.8340   -1.2780 C.3   700  ANP700      0.1821
     16  O4'       36.5560    7.1760    0.0850 O.3   700  ANP700     -0.3135
     17  C3'       38.0180    7.7300   -1.6480 C.3   700  ANP700      0.2184
     18  O3'       37.5080    8.9040   -2.2140 O.3   700  ANP700     -0.2174
     19  C2'       38.6780    8.0820   -0.3210 C.3   700  ANP700      0.2570
     20  O2'       39.4510    9.2820   -0.2970 O.3   700  ANP700     -0.2130
     21  C1'       37.4640    8.1580    0.5940 C.3   700  ANP700      0.3186
     22  N9        37.8110    7.7090    1.9370 N.pl3 700  ANP700     -0.1439
     23  C8        37.9320    6.3920    2.3380 C.3   700  ANP700      0.3377
     24  N7        38.2640    6.2910    3.6490 N.2   700  ANP700     -0.2095
     25  C5        38.3270    7.5350    4.1460 C.2   700  ANP700      0.2526
     26  C6        38.6150    8.2610    5.4250 C.2   700  ANP700      0.4393
     27  N6        38.9150    7.6090    6.5850 N.pl3 700  ANP700      0.2180
     28  N1        38.6060    9.6220    5.4370 N.2   700  ANP700      0.0021
     29  C2        38.3300   10.3520    4.3670 C.3   700  ANP700      0.5254
     30  N3        38.0680    9.8210    3.1460 N.2   700  ANP700     -0.0055
     31  C4        38.0520    8.4070    3.0100 C.2   700  ANP700      0.3518
@<TRIPOS>BOND
     1     2     1    2
     2     3     1    1
     3     1     4    1
     4     1     8    1
     5    11     9    2
     6     8     5    1
     7    18    17    1
     8     6     5    2
     9    17    15    1
    10    17    19    1
    11    14    15    1
    12    14    13    1
    13     5    12    1
    14     5     7    1
    15    15    16    1
    16     9    12    1
    17     9    13    1
    18     9    10    1
    19    19    20    1
    20    19    21    1
    21    16    21    1
    22    21    22    1
    23    22    23    1
    24    22    31    1
    25    23    24    1
    26    31    30    2
    27    31    25    1
    28    30    29    1
    29    24    25    2
    30    25    26    1
    31    29    28    1
    32    26    28    2
    33    26    27    1
