@<TRIPOS>MOLECULE
1w5v_BE3_A_1.pdb
 50 55 0 0 0
SMALL
GASTEIGER

@<TRIPOS>ATOM
      1  C01        9.6410   24.0370    2.1640 C.ar  1100  BE31100     0.0095
      2  C02        8.9980   25.2930    1.7340 C.ar  1100  BE31100    -0.0017
      3  C03        7.5680   25.5240    1.8590 C.ar  1100  BE31100     0.0021
      4  C04        6.7000   24.4880    2.4330 C.ar  1100  BE31100     0.0296
      5  C05        7.3050   23.2100    2.8790 C.ar  1100  BE31100     0.1399
      6  C06        8.7460   22.9890    2.7480 C.ar  1100  BE31100     0.0278
      7  C07       16.3970   22.0600    8.7660 C.ar  1100  BE31100     0.0095
      8  C08       15.6750   20.9270    9.3790 C.ar  1100  BE31100     0.0278
      9  C09       16.4360   19.7040    9.7740 C.ar  1100  BE31100     0.1399
     10  C10       17.9150   19.6440    9.5470 C.ar  1100  BE31100     0.0296
     11  C11       18.5990   20.8150    8.9250 C.ar  1100  BE31100     0.0021
     12  C12       17.8410   21.9810    8.5500 C.ar  1100  BE31100    -0.0017
     13  C13       15.7020   23.3240    8.3220 C.3   1100  BE31100     0.1693
     14  O14       14.5970   23.0950    7.4000 O.3   1100  BE31100    -0.3397
     15  C15       14.9230   22.5790    6.0040 C.3   1100  BE31100     0.2258
     16  C16       13.8560   22.8600    4.9680 C.3   1100  BE31100     0.2209
     17  C17       13.5060   24.2870    4.9800 C.3   1100  BE31100     0.2209
     18  C18       12.0990   24.4790    4.2820 C.3   1100  BE31100     0.2258
     19  C19       10.9190   24.4620    5.2400 C.2   1100  BE31100     0.2716
     20  O20       10.6740   23.4510    5.9320 O.2   1100  BE31100    -0.2706
     21  N21       10.1210   25.5690    5.3190 N.am  1100  BE31100    -0.1979
     22  O22       11.8690   23.4890    3.1800 O.3   1100  BE31100    -0.3397
     23  C23       11.1650   23.9350    1.9790 C.3   1100  BE31100     0.1693
     24  O24       14.5780   25.0440    4.3620 O.3   1100  BE31100    -0.2171
     25  O25       14.3140   22.5350    3.5900 O.3   1100  BE31100    -0.2171
     26  C26       15.0660   21.1010    5.8610 C.2   1100  BE31100     0.2716
     27  O27       14.0820   20.3750    6.1310 O.2   1100  BE31100    -0.2706
     28  N28       16.2700   20.6090    5.4590 N.am  1100  BE31100    -0.1979
     29  C29       16.5430   19.1970    5.3010 C.3   1100  BE31100     0.1478
     30  C30       16.4980   18.8130    3.8620 C.ar  1100  BE31100    -0.0040
     31  C31       17.4770   17.7550    3.6020 C.ar  1100  BE31100    -0.0218
     32  C32       15.6520   19.3330    2.7750 C.ar  1100  BE31100    -0.0029
     33  C33       15.8120   18.7620    1.4010 C.ar  1100  BE31100    -0.0003
     34  C34       16.8040   17.7040    1.1730 C.ar  1100  BE31100    -0.0003
     35  C35       17.9720   18.7290    5.6820 C.3   1100  BE31100     0.1802
     36  O36       18.8880   19.7880    5.3420 O.3   1100  BE31100    -0.2206
     37  C37       17.6470   17.1840    2.2590 C.ar  1100  BE31100    -0.0044
     38  C38       18.1790   17.4220    4.8580 C.3   1100  BE31100     0.0611
     39  C39        8.9630   25.6810    6.1800 C.3   1100  BE31100     0.1478
     40  C40        9.2650   26.4220    7.4800 C.ar  1100  BE31100    -0.0040
     41  C41        8.1160   27.2380    7.8440 C.ar  1100  BE31100    -0.0218
     42  C42       10.4690   26.4110    8.3240 C.ar  1100  BE31100    -0.0029
     43  C43       10.5040   27.2470    9.5630 C.ar  1100  BE31100    -0.0003
     44  C44        9.3320   28.0650    9.9100 C.ar  1100  BE31100    -0.0003
     45  C45        7.8460   26.5800    5.5770 C.3   1100  BE31100     0.1802
     46  O46        8.4930   27.6670    4.8690 O.3   1100  BE31100    -0.2206
     47  C47        8.1300   28.0760    9.0680 C.ar  1100  BE31100    -0.0044
     48  C48        7.0520   27.0460    6.8070 C.3   1100  BE31100     0.0611
     49  F49       15.7350   18.5740   10.3740 F     1100  BE31100    -0.2042
     50  F50        6.4580   22.1660    3.4550 F     1100  BE31100    -0.2042
@<TRIPOS>BOND
     1    34    33   ar
     2    34    37   ar
     3    33    32   ar
     4     2     3   ar
     5     2     1   ar
     6     3     4   ar
     7    23     1    1
     8    23    22    1
     9     1     6   ar
    10    37    31   ar
    11     4     5   ar
    12     6     5   ar
    13    32    30   ar
    14     5    50    1
    15    22    18    1
    16    25    16    1
    17    31    30   ar
    18    31    38    1
    19    30    29    1
    20    18    17    1
    21    18    19    1
    22    24    17    1
    23    38    35    1
    24    46    45    1
    25    16    17    1
    26    16    15    1
    27    19    21   am
    28    19    20    2
    29    29    28    1
    30    29    35    1
    31    21    39    1
    32    36    35    1
    33    28    26   am
    34    45    39    1
    35    45    48    1
    36    26    15    1
    37    26    27    2
    38    15    14    1
    39    39    40    1
    40    48    41    1
    41    14    13    1
    42    40    41   ar
    43    40    42   ar
    44    41    47   ar
    45    13     7    1
    46    42    43   ar
    47    12     7   ar
    48    12    11   ar
    49     7     8   ar
    50    11    10   ar
    51    47    44   ar
    52     8     9   ar
    53    10     9   ar
    54    43    44   ar
    55     9    49    1
