@<TRIPOS>MOLECULE
1w66_DKA_A_1.pdb
 12 11 0 0 0
SMALL
GASTEIGER

@<TRIPOS>ATOM
      1  C1         6.8110   14.3220    5.4620 C.2   301  DKA301      0.3649
      2  O1         7.0310   15.0320    4.4730 O.co2 301  DKA301     -0.2457
      3  C2         7.7580   13.2250    5.9160 C.3   301  DKA301      0.1141
      4  C3         9.1730   13.4020    5.4300 C.3   301  DKA301      0.0118
      5  C4         9.7910   12.1300    4.9600 C.3   301  DKA301      0.0006
      6  C5        10.1100   11.1350    6.0330 C.3   301  DKA301      0.0000
      7  C6        10.3640    9.7250    5.4450 C.3   301  DKA301      0.0000
      8  C7        10.8030    8.6900    6.4510 C.3   301  DKA301      0.0000
      9  C8        10.9850    7.3530    5.8260 C.3   301  DKA301      0.0000
     10  C9        11.2950    6.2250    6.8050 C.3   301  DKA301      0.0000
     11  C10       11.5510    4.9300    6.1750 C.3   301  DKA301      0.0000
     12  O2         5.8040   14.3930    6.1930 O.co2 301  DKA301     -0.2457
@<TRIPOS>BOND
     1     2     1   ar
     2     5     4    1
     3     5     6    1
     4     4     3    1
     5     7     6    1
     6     7     8    1
     7     1     3    1
     8     1    12   ar
     9     9     8    1
    10     9    10    1
    11    11    10    1
