@<TRIPOS>MOLECULE
1w6f_ISZ_A_1.pdb
 10 10 0 0 0
SMALL
GASTEIGER

@<TRIPOS>ATOM
      1  C2        21.5650   10.5860   22.0020 C.ar  1276  ISZ1276     0.0253
      2  C4        22.3800   10.7180   23.1330 C.ar  1276  ISZ1276     0.0990
      3  N1        23.7170   10.6830   23.0230 N.ar  1276  ISZ1276    -0.2423
      4  C5        24.3390   10.4900   21.8680 C.ar  1276  ISZ1276     0.0990
      5  C3        23.5790   10.3460   20.7000 C.ar  1276  ISZ1276     0.0253
      6  C1        22.1740   10.4120   20.7560 C.ar  1276  ISZ1276     0.0600
      7  C6        21.3230   10.1800   19.4730 C.2   1276  ISZ1276     0.2876
      8  O1        20.1380    9.8810   19.5240 O.2   1276  ISZ1276    -0.2664
      9  N2        21.9620   10.2010   18.3070 N.am  1276  ISZ1276    -0.0546
     10  N3        21.2970    9.9750   17.2830 N.2   1276  ISZ1276    -0.0328
@<TRIPOS>BOND
     1    10     9    2
     2     9     7    1
     3     7     8    2
     4     7     6    1
     5     5     6   ar
     6     5     4   ar
     7     6     1   ar
     8     4     3   ar
     9     1     2   ar
    10     3     2   ar
