@<TRIPOS>MOLECULE
1w6h_TIT_A_1.pdb
 46 47 0 0 0
SMALL
GASTEIGER

@<TRIPOS>ATOM
      1  C22       14.2640    6.8750   19.9020 C.ar  1330  TIT1330     0.0073
      2  C23       13.7890    8.2290   19.9480 C.ar  1330  TIT1330    -0.0013
      3  C24       14.0280    9.1180   18.8510 C.ar  1330  TIT1330     0.0065
      4  C25       14.7430    8.6620   17.6970 C.ar  1330  TIT1330     0.0345
      5  C26       15.2170    7.3120   17.6370 C.ar  1330  TIT1330     0.0065
      6  C27       14.9730    6.4280   18.7380 C.ar  1330  TIT1330    -0.0013
      7  C21       14.1040    5.9980   21.0050 C.3   1330  TIT1330     0.1687
      8  C20       12.5740    5.4380   22.8140 C.3   1330  TIT1330     0.1667
      9  O07       12.8720    6.1410   21.6480 O.3   1330  TIT1330    -0.3471
     10 BR         15.0000    9.6050   16.5400 Br    1330  TIT1330    -0.0490
     11  C08       12.2500    6.3350   23.8870 C.3   1330  TIT1330     0.1555
     12  C07       11.4420    5.6770   24.8960 C.3   1330  TIT1330     0.1834
     13  C06       10.9070    6.5970   25.8690 C.3   1330  TIT1330     0.1215
     14  C05        9.7050    7.2010   25.4400 C.2   1330  TIT1330     0.2444
     15  O03        9.7560    8.4300   24.8620 O.2   1330  TIT1330    -0.2732
     16  O04       12.2070    4.7630   25.5740 O.3   1330  TIT1330    -0.2207
     17  N01        3.7740   10.0710   28.1230 N.am  1330  TIT1330    -0.0863
     18  N04       13.3970    6.8510   24.4110 N.am  1330  TIT1330    -0.2005
     19  N02        6.0460    9.0780   25.7220 N.am  1330  TIT1330    -0.1963
     20  C02        5.5330   10.0410   26.5260 C.3   1330  TIT1330     0.1744
     21  C29        5.4980   11.2590   25.8510 C.3   1330  TIT1330     0.0312
     22  C30        6.4320   12.1360   26.4170 C.3   1330  TIT1330     0.0022
     23  C31        7.2770   12.6290   25.4230 C.3   1330  TIT1330     0.0001
     24  C32        5.7760   13.2050   27.0540 C.3   1330  TIT1330     0.0001
     25  C01        4.2390    9.6740   26.9320 C.2   1330  TIT1330     0.2806
     26  O01        3.4520    8.9040   26.1080 O.2   1330  TIT1330    -0.2698
     27  N03        8.5090    6.5850   25.6400 N.am  1330  TIT1330    -0.1977
     28  C04        7.3150    7.1340   25.2760 C.3   1330  TIT1330     0.1728
     29  C28        6.3240    6.1300   25.1810 C.3   1330  TIT1330     0.0334
     30  C03        6.8750    8.1260   26.1710 C.2   1330  TIT1330     0.2616
     31  O02        7.2510    8.1040   27.4860 O.2   1330  TIT1330    -0.2715
     32  N05       15.7150    9.1100   23.7350 N.am  1330  TIT1330    -0.1930
     33  C10       14.9870    8.6100   24.7720 C.3   1330  TIT1330     0.1730
     34  C17       14.7300    9.6360   25.7780 C.3   1330  TIT1330     0.0290
     35  C18       14.1080    9.1060   26.9140 C.3   1330  TIT1330     0.0023
     36  C19       15.9100   10.2630   26.2060 C.3   1330  TIT1330     0.0023
     37  C09       13.7750    8.1310   24.2140 C.2   1330  TIT1330     0.2613
     38  O05       13.0020    8.9670   23.4720 O.2   1330  TIT1330    -0.2715
     39  C12       17.4720    8.8050   22.0370 C.2   1330  TIT1330     0.1132
     40  C16       17.5300   10.1250   20.0540 C.3   1330  TIT1330     0.1511
     41  C15       18.5230    9.2800   19.4950 C.2   1330  TIT1330    -0.0042
     42  C13       18.4650    7.9480   21.4990 C.3   1330  TIT1330     0.0758
     43  C14       18.9740    8.2150   20.2090 C.2   1330  TIT1330    -0.0222
     44  C11       16.8870    8.5860   23.2980 C.2   1330  TIT1330     0.2787
     45  O06       17.4320    7.4850   23.9110 O.2   1330  TIT1330    -0.2671
     46  N06       17.0340    9.8710   21.3010 N.2   1330  TIT1330    -0.2650
@<TRIPOS>BOND
     1    10     4    1
     2     5     4   ar
     3     5     6   ar
     4     4     3   ar
     5     6     1   ar
     6     3     2   ar
     7    41    40    1
     8    41    43    2
     9     1     2   ar
    10     1     7    1
    11    40    46    1
    12    43    42    1
    13     7     9    1
    14    46    39    2
    15    42    39    1
    16     9     8    1
    17    39    44    1
    18     8    11    1
    19    44    32   am
    20    44    45    2
    21    38    37    2
    22    32    33    1
    23    11    18    1
    24    11    12    1
    25    37    18   am
    26    37    33    1
    27    33    34    1
    28    15    14    2
    29    12    16    1
    30    12    13    1
    31    29    28    1
    32    28    27    1
    33    28    30    1
    34    23    22    1
    35    14    27   am
    36    14    13    1
    37    19    30   am
    38    19    20    1
    39    34    36    1
    40    34    35    1
    41    21    22    1
    42    21    20    1
    43    26    25    2
    44    30    31    2
    45    22    24    1
    46    20    25    1
    47    25    17   am
