@<TRIPOS>MOLECULE
1w6i_III_B_1.pdb
 48 47 0 0 0
SMALL
GASTEIGER

@<TRIPOS>ATOM
      1  CA        58.6190   52.7600   28.6790 C.3   1330  IVA1330     0.0868
      2  CB        58.4360   53.1190   30.1680 C.3   1330  IVA1330     0.0091
      3  CG1       57.2770   54.1100   30.3810 C.3   1330  IVA1330     0.0005
      4  CG2       58.2730   51.7650   30.9000 C.3   1330  IVA1330     0.0005
      5  C         58.8030   53.9710   27.7920 C.2   1330  IVA1330     0.2418
      6  O         59.8230   54.6760   27.8930 O.2   1330  IVA1330    -0.2733
      7  N         57.7770   54.1620   26.9420 N.am  1331  VAL1331    -0.1978
      8  CA        57.8630   55.3280   26.0210 C.3   1331  VAL1331     0.1726
      9  C         56.6090   56.1040   26.4000 C.2   1331  VAL1331     0.2616
     10  O         55.5100   55.5330   26.4750 O.2   1331  VAL1331    -0.2715
     11  CB        57.8490   54.8800   24.5170 C.3   1331  VAL1331     0.0290
     12  CG1       57.9300   56.0370   23.5410 C.3   1331  VAL1331     0.0023
     13  CG2       59.1150   54.1260   24.1010 C.3   1331  VAL1331     0.0023
     14  N         56.8970   57.4200   26.6110 N.am  1332  VAL1332    -0.1963
     15  CA        55.8710   58.3710   27.0010 C.3   1332  VAL1332     0.1727
     16  C         56.0810   59.5760   26.0610 C.2   1332  VAL1332     0.2612
     17  O         57.0640   60.3130   26.1740 O.2   1332  VAL1332    -0.2715
     18  CB        56.0090   58.8680   28.4810 C.3   1332  VAL1332     0.0290
     19  CG1       54.8980   59.8810   28.8440 C.3   1332  VAL1332     0.0023
     20  CG2       55.8270   57.7490   29.4860 C.3   1332  VAL1332     0.0023
     21  N         55.0930   59.7260   25.1860 N.am  1333  STA1333    -0.2031
     22  CA        55.0470   60.6120   24.0440 C.3   1333  STA1333     0.1261
     23  CB        55.2460   59.6170   22.9010 C.3   1333  STA1333     0.0243
     24  CG        56.4240   59.7480   21.9720 C.3   1333  STA1333     0.0018
     25  CD1       57.7250   59.7110   22.7310 C.3   1333  STA1333     0.0001
     26  CD2       56.3990   58.6140   21.0030 C.3   1333  STA1333     0.0001
     27  CH        53.7590   61.4730   23.9050 C.3   1333  STA1333     0.1809
     28  OH        52.6090   60.6280   23.9920 O.3   1333  STA1333    -0.2208
     29  CM        53.5620   62.4220   25.1060 C.3   1333  STA1333     0.1214
     30  C         54.4760   63.6230   25.1300 C.2   1333  STA1333     0.2444
     31  O         55.6140   63.5610   25.6490 O.2   1333  STA1333    -0.2732
     32  N         53.9090   64.7170   24.5470 N.am  1334  ALA1334    -0.1977
     33  CA        54.6410   65.9670   24.4880 C.3   1334  ALA1334     0.1728
     34  C         54.7850   66.7320   25.8200 C.2   1334  ALA1334     0.2612
     35  O         53.9970   66.5470   26.7590 O.2   1334  ALA1334    -0.2715
     36  CB        53.9660   66.8240   23.4360 C.3   1334  ALA1334     0.0334
     37  N         55.8050   67.6030   25.9210 N.am  1335  STA1335    -0.2031
     38  CA        55.8060   68.6950   26.9750 C.3   1335  STA1335     0.1262
     39  CB        57.1860   68.6750   27.6450 C.3   1335  STA1335     0.0243
     40  CG        57.6250   67.3530   28.3040 C.3   1335  STA1335     0.0018
     41  CD1       59.0270   67.5530   28.8670 C.3   1335  STA1335     0.0001
     42  CD2       56.5920   66.9820   29.3620 C.3   1335  STA1335     0.0001
     43  CH        55.5440   70.1280   26.3620 C.3   1335  STA1335     0.1830
     44  OH        56.6810   70.5370   25.4520 O.3   1335  STA1335    -0.2207
     45  CM        54.1640   70.1410   25.7060 C.3   1335  STA1335     0.1486
     46  C         53.8190   71.4520   25.0680 C.2   1335  STA1335     0.3675
     47  O         53.8280   71.4660   23.8200 O.co2 1335  STA1335    -0.2456
     48  OXT       53.5600   72.4090   25.7680 O.co2 1335  STA1335    -0.2456
@<TRIPOS>BOND
     1    26    24    1
     2    24    25    1
     3    24    23    1
     4    23    22    1
     5    36    33    1
     6    12    11    1
     7    47    46   ar
     8    27    28    1
     9    27    22    1
    10    27    29    1
    11    22    21    1
    12    13    11    1
    13    33    32    1
    14    33    34    1
    15    11     8    1
    16    32    30   am
    17    46    45    1
    18    46    48   ar
    19    29    30    1
    20    30    31    2
    21    21    16   am
    22    44    43    1
    23    45    43    1
    24    34    37   am
    25    34    35    2
    26    37    38    1
    27     8     9    1
    28     8     7    1
    29    16    17    2
    30    16    15    1
    31    43    38    1
    32     9    10    2
    33     9    14   am
    34    14    15    1
    35     7     5   am
    36    38    39    1
    37    15    18    1
    38    39    40    1
    39     5     6    2
    40     5     1    1
    41    40    41    1
    42    40    42    1
    43    18    19    1
    44    18    20    1
    45     1     2    1
    46     2     3    1
    47     2     4    1
