@<TRIPOS>MOLECULE
1w6m_GAL_A_1.pdb
 12 12 0 0 0
SMALL
GASTEIGER

@<TRIPOS>ATOM
      1  C1        -0.6340   60.4190   24.5750 C.3   4000  GAL4000     0.3024
      2  C2        -0.6570   58.9190   24.8190 C.3   4000  GAL4000     0.2434
      3  C3         0.1330   58.6640   26.1240 C.3   4000  GAL4000     0.2199
      4  C4         1.5680   59.1930   25.9030 C.3   4000  GAL4000     0.2144
      5  C5         1.4990   60.7160   25.5740 C.3   4000  GAL4000     0.1836
      6  C6         2.8600   61.3220   25.3100 C.3   4000  GAL4000     0.2142
      7  O1        -1.3090   60.6790   23.4310 O.3   4000  GAL4000    -0.1869
      8  O2        -1.9220   58.4460   25.0110 O.3   4000  GAL4000    -0.2148
      9  O3         0.1650   57.2770   26.4150 O.3   4000  GAL4000    -0.2174
     10  O4         2.1840   58.4950   24.8090 O.3   4000  GAL4000    -0.2176
     11  O5         0.6440   60.9330   24.3970 O.3   4000  GAL4000    -0.3236
     12  O6         2.7840   62.7180   25.0520 O.3   4000  GAL4000    -0.2176
@<TRIPOS>BOND
     1     7     1    1
     2    11     1    1
     3    11     5    1
     4     1     2    1
     5    10     4    1
     6     2     8    1
     7     2     3    1
     8    12     6    1
     9     6     5    1
    10     5     4    1
    11     4     3    1
    12     3     9    1
