@<TRIPOS>MOLECULE
1w6o_LAT_A_1.pdb
 23 24 0 0 0
SMALL
GASTEIGER

@<TRIPOS>ATOM
      1  C1        -0.5300   60.2290   24.7000 C.3   4000  LAT4000     0.2695
      2  C2        -0.5920   58.6850   24.8870 C.3   4000  LAT4000     0.2406
      3  C3         0.4060   58.2990   26.0240 C.3   4000  LAT4000     0.2198
      4  C4         1.8450   58.7150   25.5930 C.3   4000  LAT4000     0.2144
      5  C5         1.8360   60.2700   25.3790 C.3   4000  LAT4000     0.1835
      6  C6         3.1960   60.7790   24.9210 C.3   4000  LAT4000     0.2142
      7  O1        -1.4290   60.6000   23.6780 O.3   4000  LAT4000    -0.3257
      8  O2        -1.9210   58.3230   25.2520 O.3   4000  LAT4000    -0.2149
      9  O3         0.3660   56.8780   26.2180 O.3   4000  LAT4000    -0.2174
     10  O4         2.1960   58.0330   24.3760 O.3   4000  LAT4000    -0.2176
     11  O5         0.8310   60.6370   24.3490 O.3   4000  LAT4000    -0.3256
     12  O6         3.1030   62.1910   24.7490 O.3   4000  LAT4000    -0.2176
     13  C1'       -3.0010   64.1200   21.8540 C.3   4000  LAT4000     0.3023
     14  C2'       -1.6040   63.6350   21.3820 C.3   4000  LAT4000     0.2433
     15  C3'       -1.4620   62.1270   21.7350 C.3   4000  LAT4000     0.2168
     16  C4'       -1.5840   62.0020   23.2830 C.3   4000  LAT4000     0.1804
     17  C5'       -3.0080   62.5300   23.7370 C.3   4000  LAT4000     0.1804
     18  C6'       -3.2430   62.4810   25.2550 C.3   4000  LAT4000     0.2141
     19  O1'       -3.1630   65.4730   21.5560 O.3   4000  LAT4000    -0.1869
     20  O2'       -1.4950   63.8200   19.9620 O.3   4000  LAT4000    -0.2148
     21  O3'       -0.1700   61.6800   21.3100 O.3   4000  LAT4000    -0.2175
     22  O5'       -3.1700   63.9350   23.3050 O.3   4000  LAT4000    -0.3237
     23  O6'       -2.1580   63.0650   25.9990 O.3   4000  LAT4000    -0.2176
@<TRIPOS>BOND
     1    20    14    1
     2    21    15    1
     3    14    15    1
     4    14    13    1
     5    19    13    1
     6    15    16    1
     7    13    22    1
     8    16     7    1
     9    16    17    1
    10    22    17    1
    11     7     1    1
    12    17    18    1
    13    11     1    1
    14    11     5    1
    15    10     4    1
    16     1     2    1
    17    12     6    1
    18     2     8    1
    19     2     3    1
    20     6     5    1
    21    18    23    1
    22     5     4    1
    23     4     3    1
    24     3     9    1
