@<TRIPOS>MOLECULE
1w6p_NDG_A_1.pdb
 15 15 0 0 0
SMALL
GASTEIGER

@<TRIPOS>ATOM
      1  C1        -2.9690   64.1760   21.8260 C.3   4000  NDG4000     0.2917
      2  C2        -1.5990   63.6420   21.3620 C.3   4000  NDG4000     0.1871
      3  C3        -1.4390   62.1230   21.7000 C.3   4000  NDG4000     0.2095
      4  C4        -1.6450   61.8970   23.2030 C.3   4000  NDG4000     0.2136
      5  C5        -3.0590   62.4280   23.6420 C.3   4000  NDG4000     0.1835
      6  C6        -3.3680   62.2770   25.1480 C.3   4000  NDG4000     0.2142
      7  C7        -0.8750   65.0530   19.4720 C.2   4000  NDG4000     0.2421
      8  C8        -0.6760   65.2110   17.9910 C.3   4000  NDG4000     0.0964
      9  O         -3.1960   63.8710   23.2610 O.3   4000  NDG4000    -0.3242
     10  O3        -0.1650   61.6510   21.2720 O.3   4000  NDG4000    -0.2183
     11  O4        -1.5160   60.4800   23.5490 O.3   4000  NDG4000    -0.2176
     12  O6        -2.4480   62.9690   26.0170 O.3   4000  NDG4000    -0.2176
     13  O7        -0.5680   66.0110   20.1870 O.2   4000  NDG4000    -0.2733
     14  N2        -1.3700   63.8910   19.9320 N.am  4000  NDG4000    -0.1991
     15  O1L       -3.9560   63.5180   21.0340 O.3   4000  NDG4000    -0.1879
@<TRIPOS>BOND
     1     8     7    1
     2     7    14   am
     3     7    13    2
     4    14     2    1
     5    15     1    1
     6    10     3    1
     7     2     3    1
     8     2     1    1
     9     3     4    1
    10     1     9    1
    11     4    11    1
    12     4     5    1
    13     9     5    1
    14     5     6    1
    15     6    12    1
