@<TRIPOS>MOLECULE
1w6p_GAL_A_1.pdb
 11 11 0 0 0
SMALL
GASTEIGER

@<TRIPOS>ATOM
      1  C1        -0.5990   60.2010   24.5930 C.3   4001  GAL4001     0.1777
      2  C2        -0.6190   58.6980   24.8300 C.3   4001  GAL4001     0.2141
      3  C3         0.3910   58.3240   25.9770 C.3   4001  GAL4001     0.2173
      4  C4         1.7930   58.7480   25.5890 C.3   4001  GAL4001     0.2142
      5  C5         1.7500   60.2460   25.2390 C.3   4001  GAL4001     0.1810
      6  C6         3.0270   60.7890   24.6530 C.3   4001  GAL4001     0.2141
      7  O2        -1.9490   58.3300   25.1890 O.3   4001  GAL4001    -0.2176
      8  O3         0.3710   56.9120   26.1040 O.3   4001  GAL4001    -0.2175
      9  O4         2.2050   57.9880   24.4260 O.3   4001  GAL4001    -0.2176
     10  O5         0.7690   60.5110   24.2200 O.3   4001  GAL4001    -0.3481
     11  O6         2.9250   62.2050   24.7610 O.3   4001  GAL4001    -0.2176
@<TRIPOS>BOND
     1    10     1    1
     2    10     5    1
     3     9     4    1
     4     1     2    1
     5     6    11    1
     6     6     5    1
     7     2     7    1
     8     2     3    1
     9     5     4    1
    10     4     3    1
    11     3     8    1
