@<TRIPOS>MOLECULE
1w6r_GNT_A_1.pdb
 21 24 0 0 0
SMALL
GASTEIGER

@<TRIPOS>ATOM
      1  C1         2.6500   67.6610   63.4320 C.2   1536  GNT1536    -0.0211
      2  C2         2.7990   68.1720   62.1980 C.2   1536  GNT1536     0.0021
      3  C3         4.1930   68.4080   61.5850 C.3   1536  GNT1536     0.1773
      4  C4         5.3690   68.4590   62.7340 C.3   1536  GNT1536     0.0816
      5  C41        5.1530   67.2270   63.6640 C.3   1536  GNT1536     0.1762
      6  C42        3.8460   67.3510   64.4300 C.3   1536  GNT1536     0.0780
      7  O5         5.1900   65.9910   62.9580 O.3   1536  GNT1536    -0.4757
      8  C6         4.5890   63.7660   63.9110 C.ar  1536  GNT1536     0.1721
      9  C7         3.8270   63.1050   64.9120 C.ar  1536  GNT1536     0.0397
     10  C8         3.0760   63.8470   65.8210 C.ar  1536  GNT1536     0.0001
     11  C9         2.2290   65.9650   66.8100 C.3   1536  GNT1536     0.0990
     12  N10        1.9940   67.2200   67.0670 N.3   1536  GNT1536    -0.2677
     13  C11        2.4530   68.4310   66.3370 C.3   1536  GNT1536     0.0732
     14  C12        3.8090   68.4240   65.5990 C.3   1536  GNT1536     0.0290
     15  C13        4.5190   65.1850   63.8760 C.ar  1536  GNT1536     0.1682
     16  C14        3.7520   65.9240   64.7850 C.ar  1536  GNT1536     0.0187
     17  C15        3.0290   65.2880   65.7800 C.ar  1536  GNT1536    -0.0066
     18  C16        5.8240   61.7850   63.3060 C.3   1536  GNT1536     0.2526
     19  O17        5.4870   63.1330   63.0060 O.3   1536  GNT1536    -0.4684
     20  O18        4.3180   67.2490   60.6900 O.3   1536  GNT1536    -0.2182
     21  C19        1.2120   67.4310   68.2710 C.3   1536  GNT1536     0.0899
@<TRIPOS>BOND
     1    20     3    1
     2     3     2    1
     3     3     4    1
     4     2     1    2
     5     4     5    1
     6     7     5    1
     7     7    15    1
     8    19    18    1
     9    19     8    1
    10     1     6    1
    11     5     6    1
    12    15     8   ar
    13    15    16   ar
    14     8     9   ar
    15     6    16    1
    16     6    14    1
    17    16    17   ar
    18     9    10   ar
    19    14    13    1
    20    17    10   ar
    21    17    11    1
    22    13    12    1
    23    11    12    1
    24    12    21    1
