@<TRIPOS>MOLECULE
1w6s_PQQ_A_1.pdb
 24 26 0 0 0
SMALL
GASTEIGER

@<TRIPOS>ATOM
      1  N1         3.2500   16.5180  -12.6890 N.2   1596  PQQ1596    -0.3950
      2  C2         1.9710   16.7090  -11.9100 C.2   1596  PQQ1596     0.2108
      3  C2X        1.2800   15.5000  -11.3900 C.2   1596  PQQ1596     0.4168
      4  O2A        1.6450   14.3440  -11.7610 O.co2 1596  PQQ1596    -0.2377
      5  O2B        0.2800   15.7010  -10.5580 O.co2 1596  PQQ1596    -0.2377
      6  C3         1.6310   18.1170  -11.8260 C.2   1596  PQQ1596     0.0447
      7  C3A        2.7030   18.7590  -12.5350 C.ar  1596  PQQ1596     0.0747
      8  C1A        3.7270   17.7940  -13.0420 C.ar  1596  PQQ1596     0.1373
      9  C4         2.8180   20.1910  -12.8530 C.ar  1596  PQQ1596     0.2393
     10  O4         1.8390   21.0510  -12.5850 O.3   1596  PQQ1596    -0.2830
     11  C5         3.9000   20.6620  -13.4610 C.ar  1596  PQQ1596     0.2635
     12  O5         4.0910   21.9380  -14.0220 O.3   1596  PQQ1596    -0.2804
     13  C6A        4.9480   19.7310  -13.9920 C.ar  1596  PQQ1596     0.1755
     14  N6         5.8800   20.2610  -14.8660 N.2   1596  PQQ1596    -0.3958
     15  C7         6.8900   19.4660  -15.4990 C.2   1596  PQQ1596     0.1928
     16  C7X        7.8100   20.2570  -16.4020 C.2   1596  PQQ1596     0.4130
     17  O7A        7.6780   21.4850  -16.3710 O.co2 1596  PQQ1596    -0.2380
     18  O7B        8.6610   19.6400  -17.0420 O.co2 1596  PQQ1596    -0.2380
     19  C8         6.8750   18.0450  -15.2560 C.3   1596  PQQ1596     0.0991
     20  C9         5.8810   17.3310  -14.4600 C.2   1596  PQQ1596     0.0698
     21  C9X        5.9260   15.8070  -14.4670 C.2   1596  PQQ1596     0.3844
     22  O9A        6.9040   15.3110  -15.2020 O.co2 1596  PQQ1596    -0.2409
     23  O9B        5.1570   15.1200  -13.7480 O.co2 1596  PQQ1596    -0.2409
     24  C9A        4.8530   18.2360  -13.8170 C.ar  1596  PQQ1596     0.0653
@<TRIPOS>BOND
     1    18    16   ar
     2    16    17   ar
     3    16    15    1
     4    15    19    1
     5    15    14    2
     6    19    20    1
     7    22    21   ar
     8    14    13    2
     9    21    20    1
    10    21    23   ar
    11    20    24    2
    12    12    11    1
    13    13    24   ar
    14    13    11   ar
    15    24     8   ar
    16    11     9   ar
    17     8     1    2
    18     8     7   ar
    19     9    10    1
    20     9     7   ar
    21     1     2    2
    22     7     6    2
    23     2     6    1
    24     2     3    1
    25     4     3   ar
    26     3     5   ar
