@<TRIPOS>MOLECULE
1w6u_NAP_A_1.pdb
 48 52 0 0 0
SMALL
GASTEIGER

@<TRIPOS>ATOM
      1  O4B       27.2940    6.1860   24.4300 O.3   1329  NAP1329    -0.3136
      2  C3B       29.2730    7.3230   24.9650 C.3   1329  NAP1329     0.2157
      3  O3B       29.1170    8.7080   24.7740 O.3   1329  NAP1329    -0.2175
      4  C2B       28.6350    6.8670   26.2570 C.3   1329  NAP1329     0.2314
      5  O2B       28.6690    7.8640   27.2460 O.3   1329  NAP1329    -0.2630
      6  C1B       27.2110    6.5660   25.7970 C.3   1329  NAP1329     0.3158
      7  N9A       26.5690    5.5080   26.5950 N.pl3 1329  NAP1329    -0.1439
      8  C8A       26.9650    4.2030   26.7330 C.3   1329  NAP1329     0.3377
      9  N7A       26.0940    3.5600   27.5420 N.2   1329  NAP1329    -0.2095
     10  C5A       25.1410    4.4380   27.9240 C.2   1329  NAP1329     0.2526
     11  C6A       24.0240    4.3170   28.7420 C.2   1329  NAP1329     0.4393
     12  N6A       23.8100    3.2040   29.4460 N.pl3 1329  NAP1329     0.2180
     13  N1A       23.2210    5.4200   28.9430 N.2   1329  NAP1329     0.0021
     14  C2A       23.5120    6.6310   28.3450 C.3   1329  NAP1329     0.5254
     15  N3A       24.6220    6.7440   27.5340 N.2   1329  NAP1329    -0.0055
     16  C4A       25.4220    5.6650   27.3290 C.2   1329  NAP1329     0.3518
     17  O1N       31.8990    5.1590   18.6120 O.2   1329  NAP1329    -0.5170
     18  O2N       30.9180    7.4580   19.1540 O.3   1329  NAP1329    -0.4371
     19  O5D       29.4610    5.5370   18.4150 O.3   1329  NAP1329    -0.3112
     20  C5D       28.3090    6.3460   18.3940 C.3   1329  NAP1329     0.1813
     21  C4D       27.1840    5.5710   17.7000 C.3   1329  NAP1329     0.1799
     22  O4D       27.5520    5.1940   16.3820 O.3   1329  NAP1329    -0.3327
     23  C3D       26.8190    4.2840   18.4210 C.3   1329  NAP1329     0.2158
     24  O3D       25.4160    4.1410   18.3670 O.3   1329  NAP1329    -0.2175
     25  C2D       27.4610    3.1930   17.6000 C.3   1329  NAP1329     0.2309
     26  O2D       26.7050    2.0210   17.6770 O.3   1329  NAP1329    -0.2158
     27  C1D       27.4380    3.8010   16.2020 C.3   1329  NAP1329     0.2263
     28  N1N       28.5170    3.3060   15.3330 N.pl3 1329  NAP1329    -0.2787
     29  C2N       29.7800    3.8310   15.4120 C.3   1329  NAP1329     0.1244
     30  C3N       30.7810    3.3480   14.5760 C.2   1329  NAP1329     0.0544
     31  C7N       32.1720    3.9170   14.6480 C.2   1329  NAP1329     0.2818
     32  O7N       33.0860    3.5240   13.6590 O.2   1329  NAP1329    -0.2670
     33  N7N       32.5100    4.7590   15.6290 N.am  1329  NAP1329    -0.0839
     34  C4N       30.4990    2.3420   13.6550 C.2   1329  NAP1329     0.0033
     35  C5N       29.2070    1.8200   13.5690 C.2   1329  NAP1329     0.0157
     36  C6N       28.2270    2.3250   14.4230 C.2   1329  NAP1329     0.0633
     37  P2B       28.8090    7.4520   28.8010 P.3   1329  NAP1329     0.5328
     38  O1X       29.9480    6.5240   28.9420 O.2   1329  NAP1329    -0.2224
     39  O2X       29.0370    8.7490   29.5900 O.3   1329  NAP1329    -0.1145
     40  O3X       27.5180    6.7550   29.2590 O.3   1329  NAP1329    -0.1145
     41  PA        31.5390    5.8350   21.9120 P.3   1329  NAP1329     0.2189
     42  O1A       32.6260    4.8300   21.9870 O.3   1329  NAP1329    -0.4371
     43  O2A       32.1250    7.2580   21.7840 O.2   1329  NAP1329    -0.5170
     44  O5B       30.6380    5.6890   23.2400 O.3   1329  NAP1329    -0.3112
     45  C5B       29.2410    5.4760   23.2040 C.3   1329  NAP1329     0.1813
     46  C4B       28.4960    6.6440   23.8460 C.3   1329  NAP1329     0.1820
     47  O3        30.5510    5.4830   20.6820 O.3   1329  NAP1329    -0.2703
     48  PN        30.8150    5.9840   19.1710 P.3   1329  NAP1329     0.2189
@<TRIPOS>BOND
     1    35    34    1
     2    35    36    2
     3    34    30    2
     4    32    31    2
     5    36    28    1
     6    30    31    1
     7    30    29    1
     8    31    33   am
     9    28    29    1
    10    28    27    1
    11    27    22    1
    12    27    25    1
    13    22    21    1
    14    25    26    1
    15    25    23    1
    16    21    20    1
    17    21    23    1
    18    24    23    1
    19    20    19    1
    20    19    48    1
    21    17    48    2
    22    18    48    1
    23    48    47    1
    24    47    41    1
    25    43    41    2
    26    41    42    1
    27    41    44    1
    28    45    44    1
    29    45    46    1
    30    46     1    1
    31    46     2    1
    32     1     6    1
    33     3     2    1
    34     2     4    1
    35     6     4    1
    36     6     7    1
    37     4     5    1
    38     7     8    1
    39     7    16    1
    40     8     9    1
    41     5    37    1
    42    16    15    2
    43    16    10    1
    44    15    14    1
    45     9    10    2
    46    10    11    1
    47    14    13    1
    48    11    13    2
    49    11    12    1
    50    37    38    2
    51    37    40    1
    52    37    39    1
