@<TRIPOS>MOLECULE
1w6y_EQU_A_1.pdb
 20 23 0 0 0
SMALL
GASTEIGER

@<TRIPOS>ATOM
      1  C1        12.8050   59.4570    4.4450 C.ar  201  EQU201      0.1957
      2  C2        12.5540   58.5530    5.5280 C.ar  201  EQU201      0.0420
      3  C3        13.0970   58.8770    6.8430 C.ar  201  EQU201      0.0029
      4  C4        13.9220   60.1700    7.0510 C.ar  201  EQU201     -0.0041
      5  C5        14.1290   61.0260    5.9010 C.ar  201  EQU201      0.0030
      6  C6        13.5860   60.6800    4.6340 C.ar  201  EQU201      0.0420
      7  C10       12.8370   57.9480    7.9530 C.ar  201  EQU201     -0.0002
      8  C11       13.3700   58.2610    9.2750 C.ar  201  EQU201     -0.0046
      9  C12       14.1650   59.4920    9.5120 C.ar  201  EQU201     -0.0260
     10  C13       14.4510   60.4610    8.4010 C.ar  201  EQU201     -0.0261
     11  C16       14.7090   59.7710   10.9210 C.3   201  EQU201      0.0290
     12  C17       14.9410   61.3340   11.2420 C.3   201  EQU201      0.0556
     13  C18       15.8250   61.9980   10.1200 C.3   201  EQU201      0.0119
     14  C19       15.2860   61.7510    8.6470 C.3   201  EQU201      0.0265
     15  C24       13.8450   59.3470   12.1570 C.3   201  EQU201      0.0125
     16  C25       14.8060   59.8240   13.3080 C.3   201  EQU201      0.0648
     17  C26       15.4820   61.1000   12.6590 C.2   201  EQU201      0.1502
     18  C27       13.6500   62.2340   11.4270 C.3   201  EQU201      0.0077
     19  O1        12.3050   59.1430    3.2840 O.3   201  EQU201     -0.2866
     20  O26       16.3100   61.7950   13.1970 O.2   201  EQU201     -0.2961
@<TRIPOS>BOND
     1    19     1    1
     2     1     6   ar
     3     1     2   ar
     4     6     5   ar
     5     2     3   ar
     6     5     4   ar
     7     3     4   ar
     8     3     7   ar
     9     4    10   ar
    10     7     8   ar
    11    10    14    1
    12    10     9   ar
    13    14    13    1
    14     8     9   ar
    15     9    11    1
    16    13    12    1
    17    11    12    1
    18    11    15    1
    19    12    18    1
    20    12    17    1
    21    15    16    1
    22    17    20    2
    23    17    16    1
