@<TRIPOS>MOLECULE
1w73_NAP_A_1.pdb
 48 52 0 0 0
SMALL
GASTEIGER

@<TRIPOS>ATOM
      1  PA        30.0070    4.4050   21.5090 P.3   1330  NAP1330     0.2189
      2  O1A       29.2880    3.5630   20.5160 O.2   1330  NAP1330    -0.5170
      3  O2A       30.9850    3.5400   22.3440 O.3   1330  NAP1330    -0.4371
      4  O5B       28.8690    5.0360   22.4720 O.3   1330  NAP1330    -0.3112
      5  C5B       29.1230    5.3590   23.8090 C.3   1330  NAP1330     0.1813
      6  C4B       28.2490    6.5550   24.1700 C.3   1330  NAP1330     0.1820
      7  O4B       27.0310    6.1070   24.7540 O.3   1330  NAP1330    -0.3136
      8  C3B       28.9660    7.3950   25.2090 C.3   1330  NAP1330     0.2157
      9  O3B       28.6690    8.7520   24.9810 O.3   1330  NAP1330    -0.2175
     10  C2B       28.3620    6.9110   26.5070 C.3   1330  NAP1330     0.2314
     11  O2B       28.3900    7.9140   27.4810 O.3   1330  NAP1330    -0.2630
     12  C1B       26.9390    6.5540   26.0980 C.3   1330  NAP1330     0.3158
     13  N9A       26.3290    5.5140   26.9370 N.pl3 1330  NAP1330    -0.1439
     14  C8A       26.7520    4.2240   27.1500 C.3   1330  NAP1330     0.3377
     15  N7A       25.8680    3.6190   27.9890 N.2   1330  NAP1330    -0.2095
     16  C5A       24.9080    4.5150   28.3080 C.2   1330  NAP1330     0.2526
     17  C6A       23.7710    4.4350   29.0970 C.2   1330  NAP1330     0.4393
     18  N6A       23.5000    3.3200   29.7700 N.pl3 1330  NAP1330     0.2180
     19  N1A       22.9560    5.5330   29.2330 N.2   1330  NAP1330     0.0021
     20  C2A       23.2620    6.6980   28.5780 C.3   1330  NAP1330     0.5254
     21  N3A       24.3720    6.7730   27.7820 N.2   1330  NAP1330    -0.0055
     22  C4A       25.1810    5.6950   27.6510 C.2   1330  NAP1330     0.3518
     23  O3        30.7650    5.7030   20.8450 O.3   1330  NAP1330    -0.2703
     24  PN        30.6310    6.2390   19.2970 P.3   1330  NAP1330     0.2189
     25  O1N       31.6750    5.5430   18.4930 O.2   1330  NAP1330    -0.5170
     26  O2N       30.5860    7.7230   19.2820 O.3   1330  NAP1330    -0.4371
     27  O5D       29.2050    5.6580   18.7630 O.3   1330  NAP1330    -0.3112
     28  C5D       28.0870    6.4590   18.4160 C.3   1330  NAP1330     0.1813
     29  C4D       26.9460    5.6590   17.7630 C.3   1330  NAP1330     0.1799
     30  O4D       27.2620    5.2730   16.4380 O.3   1330  NAP1330    -0.3327
     31  C3D       26.6000    4.3720   18.4960 C.3   1330  NAP1330     0.2158
     32  O3D       25.1940    4.2200   18.5150 O.3   1330  NAP1330    -0.2175
     33  C2D       27.2400    3.2750   17.6730 C.3   1330  NAP1330     0.2309
     34  O2D       26.4470    2.1250   17.7660 O.3   1330  NAP1330    -0.2158
     35  C1D       27.2410    3.8610   16.2640 C.3   1330  NAP1330     0.2263
     36  N1N       28.3380    3.4080   15.3590 N.pl3 1330  NAP1330    -0.2787
     37  C2N       29.5830    4.0050   15.3460 C.3   1330  NAP1330     0.1244
     38  C3N       30.5970    3.5770   14.4660 C.2   1330  NAP1330     0.0544
     39  C7N       32.0190    4.0540   14.6240 C.2   1330  NAP1330     0.2818
     40  O7N       33.0190    3.5330   13.7710 O.2   1330  NAP1330    -0.2670
     41  N7N       32.3140    4.9550   15.5700 N.am  1330  NAP1330    -0.0839
     42  C4N       30.3360    2.5230   13.5930 C.2   1330  NAP1330     0.0033
     43  C5N       29.0770    1.9260   13.6110 C.2   1330  NAP1330     0.0157
     44  C6N       28.0870    2.3770   14.4890 C.2   1330  NAP1330     0.0633
     45  P2B       28.6060    7.5610   29.0270 P.3   1330  NAP1330     0.5328
     46  O1X       29.7850    6.7020   29.1790 O.2   1330  NAP1330    -0.2224
     47  O2X       28.7520    8.9060   29.7560 O.3   1330  NAP1330    -0.1145
     48  O3X       27.3890    6.8150   29.5800 O.3   1330  NAP1330    -0.1145
@<TRIPOS>BOND
     1    42    43    1
     2    42    38    2
     3    43    44    2
     4    40    39    2
     5    38    39    1
     6    38    37    1
     7    44    36    1
     8    39    41   am
     9    37    36    1
    10    36    35    1
    11    35    30    1
    12    35    33    1
    13    30    29    1
    14    33    34    1
    15    33    31    1
    16    29    28    1
    17    29    31    1
    18    28    27    1
    19    25    24    2
    20    31    32    1
    21    27    24    1
    22    26    24    1
    23    24    23    1
    24     2     1    2
    25    23     1    1
    26     1     3    1
    27     1     4    1
    28     4     5    1
    29     5     6    1
    30     6     7    1
    31     6     8    1
    32     7    12    1
    33     9     8    1
    34     8    10    1
    35    12    10    1
    36    12    13    1
    37    10    11    1
    38    13    14    1
    39    13    22    1
    40    14    15    1
    41    11    45    1
    42    22    21    2
    43    22    16    1
    44    21    20    1
    45    15    16    2
    46    16    17    1
    47    20    19    1
    48    45    46    2
    49    45    48    1
    50    45    47    1
    51    17    19    2
    52    17    18    1
