@<TRIPOS>MOLECULE
1w76_GNT_A_1.pdb
 21 24 0 0 0
SMALL
GASTEIGER

@<TRIPOS>ATOM
      1  C1        93.0260   49.4920   19.8460 C.2   1538  GNT1538    -0.0211
      2  C2        91.8600   48.8880   19.4540 C.2   1538  GNT1538     0.0021
      3  C3        91.0690   47.9260   20.3810 C.3   1538  GNT1538     0.1773
      4  C4        91.9650   47.3780   21.5940 C.3   1538  GNT1538     0.0816
      5  C41       92.6950   48.5840   22.2030 C.3   1538  GNT1538     0.1762
      6  C42       93.7260   49.1760   21.2180 C.3   1538  GNT1538     0.0780
      7  O5        91.8280   49.6980   22.6240 O.3   1538  GNT1538    -0.4757
      8  C6        92.6530   51.8990   23.4410 C.ar  1538  GNT1538     0.1721
      9  C7        93.7320   52.8190   23.3950 C.ar  1538  GNT1538     0.0397
     10  C8        94.8990   52.5340   22.6330 C.ar  1538  GNT1538     0.0001
     11  C9        96.3030   51.1460   21.1140 C.3   1538  GNT1538     0.0990
     12  N10       96.7090   50.1650   20.3220 N.3   1538  GNT1538    -0.2677
     13  C11       95.9740   48.9230   19.9320 C.3   1538  GNT1538     0.0732
     14  C12       94.9580   48.2770   20.9210 C.3   1538  GNT1538     0.0290
     15  C13       92.7920   50.7300   22.6990 C.ar  1538  GNT1538     0.1682
     16  C14       93.9510   50.4520   21.9280 C.ar  1538  GNT1538     0.0187
     17  C15       95.0370   51.3480   21.8860 C.ar  1538  GNT1538    -0.0066
     18  C16       91.6240   52.6470   25.5210 C.3   1538  GNT1538     0.2526
     19  O17       91.4580   52.0820   24.2070 O.3   1538  GNT1538    -0.4684
     20  O18       89.9980   48.7290   20.8770 O.3   1538  GNT1538    -0.2182
     21  C19       98.0600   50.2920   19.7870 C.3   1538  GNT1538     0.0899
@<TRIPOS>BOND
     1     2     1    2
     2     2     3    1
     3    21    12    1
     4     1     6    1
     5    13    12    1
     6    13    14    1
     7    12    11    1
     8     3    20    1
     9     3     4    1
    10    14     6    1
    11    11    17    1
    12     6    16    1
    13     6     5    1
    14     4     5    1
    15    17    16   ar
    16    17    10   ar
    17    16    15   ar
    18     5     7    1
    19     7    15    1
    20    10     9   ar
    21    15     8   ar
    22     9     8   ar
    23     8    19    1
    24    19    18    1
