@<TRIPOS>MOLECULE
1w77_C5P_A_1.pdb
 21 22 0 0 0
SMALL
GASTEIGER

@<TRIPOS>ATOM
      1  O3P       16.1590   69.8050  -24.7030 O.2   3001  C5P3001    -0.2224
      2  P         15.9510   70.8500  -23.4790 P.3   3001  C5P3001     0.5327
      3  O1P       16.1330   72.2570  -23.9070 O.3   3001  C5P3001    -0.1145
      4  O2P       17.0310   70.3920  -22.3500 O.3   3001  C5P3001    -0.1145
      5  O5'       14.4750   70.5530  -22.8750 O.3   3001  C5P3001    -0.2675
      6  C5'       13.9880   71.2920  -21.7430 C.3   3001  C5P3001     0.1859
      7  C4'       14.1580   70.5140  -20.4210 C.3   3001  C5P3001     0.1801
      8  O4'       15.5410   70.2290  -20.1070 O.3   3001  C5P3001    -0.3320
      9  C3'       13.7220   71.3970  -19.2520 C.3   3001  C5P3001     0.2158
     10  O3'       12.3320   71.2010  -18.9950 O.3   3001  C5P3001    -0.2175
     11  C2'       14.6010   70.9070  -18.0860 C.3   3001  C5P3001     0.2319
     12  O2'       13.8500   70.2490  -17.0680 O.3   3001  C5P3001    -0.2157
     13  C1'       15.4920   69.8490  -18.7160 C.3   3001  C5P3001     0.2400
     14  N1        16.7900   69.8960  -18.0020 N.am  3001  C5P3001    -0.1778
     15  C2        16.8710   69.5730  -16.6230 C.1   3001  C5P3001     0.2756
     16  N3        18.1140   69.6290  -15.9800 N.2   3001  C5P3001    -0.3024
     17  C4        19.2540   70.0050  -16.7100 C.2   3001  C5P3001     0.2346
     18  C5        19.1710   70.3240  -18.0600 C.2   3001  C5P3001     0.0687
     19  C6        17.9440   70.2720  -18.7090 C.2   3001  C5P3001     0.0836
     20  O2        15.8710   69.2480  -15.9790 O.2   3001  C5P3001    -0.1925
     21  N4        20.4310   70.0670  -16.1050 N.pl3 3001  C5P3001    -0.0921
@<TRIPOS>BOND
     1     1     2    2
     2     3     2    1
     3     2     5    1
     4     2     4    1
     5     5     6    1
     6     6     7    1
     7     7     8    1
     8     7     9    1
     9     8    13    1
    10     9    10    1
    11     9    11    1
    12    13    11    1
    13    13    14    1
    14    19    18    2
    15    19    14    1
    16    11    12    1
    17    18    17    1
    18    14    15   am
    19    17    21    1
    20    17    16    2
    21    15    16    2
    22    15    20    2
