@<TRIPOS>MOLECULE
1w78_PD8_A_1.pdb
 27 29 0 0 0
SMALL
GASTEIGER

@<TRIPOS>ATOM
      1  O1        -8.6850   16.0140   23.9100 O.2   1421  PD81421    -0.2052
      2  C2        -7.4900   16.2110   23.7080 C.1   1421  PD81421     0.2569
      3  N3        -7.0690   17.0500   22.6580 N.2   1421  PD81421    -0.2466
      4  C4        -5.7520   17.2930   22.3780 C.1   1421  PD81421     0.2609
      5  N5        -5.5500   18.1250   21.3150 N.pl3 1421  PD81421    -0.0220
      6  N6        -4.7550   16.7740   23.0430 N.2   1421  PD81421    -0.2672
      7  C7        -5.0470   15.9510   24.0830 C.1   1421  PD81421     0.1401
      8  N8        -4.0660   15.3420   24.8360 N.2   1421  PD81421    -0.1992
      9  C9        -4.3740   14.5200   25.9130 C.3   1421  PD81421     0.1931
     10  C10       -5.7150   14.2930   26.2600 C.2   1421  PD81421     0.1356
     11  C11       -6.1440   13.4220   27.4320 C.3   1421  PD81421     0.1683
     12  N12       -5.4190   13.6970   28.6760 N.pl3 1421  PD81421    -0.2303
     13  C13       -4.3650   12.7920   29.0490 C.ar  1421  PD81421     0.0658
     14  C14       -3.4830   13.0520   30.1310 C.ar  1421  PD81421     0.0163
     15  C15       -2.4890   12.1270   30.4380 C.ar  1421  PD81421     0.0078
     16  C16       -2.3370   10.9290   29.7090 C.ar  1421  PD81421     0.0761
     17  C17       -1.2370   10.0190   30.0970 C.2   1421  PD81421     0.3481
     18  O19       -1.1310    8.9000   29.6360 O.2   1421  PD81421    -0.2445
     19  C20       -3.2030   10.6440   28.6230 C.ar  1421  PD81421     0.0078
     20  C21       -4.2020   11.5610   28.3070 C.ar  1421  PD81421     0.0163
     21  N22       -6.6630   14.8470   25.5150 N.2   1421  PD81421    -0.3839
     22  C23       -6.3560   15.6410   24.4720 C.2   1421  PD81421     0.2988
     23  P23        1.0400    9.9270   31.4120 P.3   1421  PD81421     0.5909
     24  O24        1.6250    9.1140   30.2670 O.2   1421  PD81421    -0.2114
     25  O25        0.7940    9.0550   32.6050 O.3   1421  PD81421    -0.1038
     26  O26        2.0510   11.0990   31.8140 O.3   1421  PD81421    -0.1038
     27  O27       -0.3430   10.6510   31.0050 O.3   1421  PD81421    -0.3646
@<TRIPOS>BOND
     1     5     4    1
     2     4     3    2
     3     4     6    2
     4     3     2    2
     5     6     7    2
     6     2     1    2
     7     2    22    1
     8     7    22    1
     9     7     8    2
    10    22    21    2
    11     8     9    1
    12    21    10    2
    13     9    10    1
    14    10    11    1
    15    11    12    1
    16    20    19   ar
    17    20    13   ar
    18    19    16   ar
    19    12    13    1
    20    13    14   ar
    21    18    17    2
    22    16    17    1
    23    16    15   ar
    24    17    27    1
    25    14    15   ar
    26    24    23    2
    27    27    23    1
    28    23    26    1
    29    23    25    1
