@<TRIPOS>MOLECULE
1w78_ADP_A_1.pdb
 27 29 0 0 0
SMALL
GASTEIGER

@<TRIPOS>ATOM
      1  PB         5.0870    9.8540   32.8830 P.3   1425  ADP1425     0.5373
      2  O1B        4.1040    8.7860   33.2630 O.3   1425  ADP1425    -0.1143
      3  O2B        4.6470   11.2650   33.1560 O.3   1425  ADP1425    -0.1143
      4  O3B        5.5020    9.7180   31.4380 O.2   1425  ADP1425    -0.2221
      5  PA         6.7280    9.7570   35.2170 P.3   1425  ADP1425     0.2231
      6  O1A        8.1290   10.2270   35.3380 O.2   1425  ADP1425    -0.5169
      7  O2A        5.6630   10.5090   35.9580 O.3   1425  ADP1425    -0.4370
      8  O3A        6.5550    9.6560   33.6460 O.3   1425  ADP1425    -0.2261
      9  O5'        6.7540    8.2000   35.4900 O.3   1425  ADP1425    -0.3111
     10  C5'        5.6850    7.3780   35.9190 C.3   1425  ADP1425     0.1813
     11  C4'        6.0630    5.8970   35.8930 C.3   1425  ADP1425     0.1821
     12  O4'        6.6960    5.5060   34.6590 O.3   1425  ADP1425    -0.3135
     13  C3'        7.1350    5.5520   36.9860 C.3   1425  ADP1425     0.2184
     14  O3'        6.5270    5.4150   38.2640 O.3   1425  ADP1425    -0.2174
     15  C2'        7.8420    4.3080   36.4290 C.3   1425  ADP1425     0.2570
     16  O2'        7.0080    3.1880   36.7580 O.3   1425  ADP1425    -0.2130
     17  C1'        7.7830    4.6220   34.8990 C.3   1425  ADP1425     0.3186
     18  N9         8.9610    5.2400   34.2890 N.pl3 1425  ADP1425    -0.1439
     19  C8         9.3560    6.5180   34.5280 C.3   1425  ADP1425     0.3377
     20  N7        10.4290    6.8220   33.8160 N.2   1425  ADP1425    -0.2095
     21  C5        10.7380    5.6470   33.0570 C.2   1425  ADP1425     0.2526
     22  C6        11.6840    5.2750   32.1210 C.2   1425  ADP1425     0.4393
     23  N6        12.7330    6.0860   31.5920 N.pl3 1425  ADP1425     0.2180
     24  N1        11.6050    3.9990   31.5990 N.2   1425  ADP1425     0.0021
     25  C2        10.6960    3.0700   31.9330 C.3   1425  ADP1425     0.5254
     26  N3         9.7750    3.4250   32.8460 N.2   1425  ADP1425    -0.0055
     27  C4         9.7930    4.6710   33.3870 C.2   1425  ADP1425     0.3518
@<TRIPOS>BOND
     1     4     1    2
     2    23    22    1
     3    24    25    1
     4    24    22    2
     5    25    26    1
     6    22    21    1
     7    26    27    2
     8     1     3    1
     9     1     2    1
    10     1     8    1
    11    21    27    1
    12    21    20    2
    13    27    18    1
    14     8     5    1
    15    20    19    1
    16    18    19    1
    17    18    17    1
    18    12    17    1
    19    12    11    1
    20    17    15    1
    21     5     6    2
    22     5     9    1
    23     5     7    1
    24     9    10    1
    25    11    10    1
    26    11    13    1
    27    15    16    1
    28    15    13    1
    29    13    14    1
