@<TRIPOS>MOLECULE
1w7a_ATP_A_1.pdb
 31 33 0 0 0
SMALL
GASTEIGER

@<TRIPOS>ATOM
      1  PG         2.7640   46.7360    7.9180 P.3   1801  ATP1801     0.5373
      2  O1G        2.8450   46.9670    9.3900 O.3   1801  ATP1801    -0.1143
      3  O2G        3.1660   45.3690    7.3240 O.3   1801  ATP1801    -0.1143
      4  O3G        3.2430   47.9530    7.1420 O.2   1801  ATP1801    -0.2221
      5  PB         0.1530   45.8420    8.3190 P.3   1801  ATP1801     0.2277
      6  O1B       -1.0900   46.2490    7.5370 O.2   1801  ATP1801    -0.5168
      7  O2B        0.6490   44.4300    8.4230 O.3   1801  ATP1801    -0.4368
      8  O3B        1.2170   46.7790    7.5990 O.3   1801  ATP1801    -0.2258
      9  PA         0.0440   45.3890   11.0530 P.3   1801  ATP1801     0.2189
     10  O1A        1.4940   45.0060   11.2450 O.3   1801  ATP1801    -0.4371
     11  O2A       -0.8310   44.1600   10.9430 O.2   1801  ATP1801    -0.5170
     12  O3A       -0.0950   46.3310    9.7860 O.3   1801  ATP1801    -0.2700
     13  O5'       -0.4440   46.2890   12.2690 O.3   1801  ATP1801    -0.3112
     14  C5'        0.2660   47.5040   12.5720 C.3   1801  ATP1801     0.1813
     15  C4'        0.1580   47.8380   14.0550 C.3   1801  ATP1801     0.1821
     16  O4'       -1.1540   48.2830   14.3620 O.3   1801  ATP1801    -0.3135
     17  C3'        0.4360   46.6550   14.9510 C.3   1801  ATP1801     0.2184
     18  O3'        1.7060   46.8030   15.5520 O.3   1801  ATP1801    -0.2174
     19  C2'       -0.6070   46.7040   16.0140 C.3   1801  ATP1801     0.2570
     20  O2'        0.0400   47.1700   17.1730 O.3   1801  ATP1801    -0.2130
     21  C1'       -1.6520   47.6890   15.5440 C.3   1801  ATP1801     0.3186
     22  N9        -2.9090   46.9770   15.2500 N.pl3 1801  ATP1801    -0.1439
     23  C8        -3.0980   46.0770   14.2460 C.3   1801  ATP1801     0.3377
     24  N7        -4.3660   45.5960   14.2840 N.2   1801  ATP1801    -0.2095
     25  C5        -4.9890   46.1730   15.2950 C.2   1801  ATP1801     0.2526
     26  C6        -6.3320   46.0910   15.8540 C.2   1801  ATP1801     0.4393
     27  N6        -7.2550   45.2870   15.3050 N.pl3 1801  ATP1801     0.2180
     28  N1        -6.6020   46.8480   16.9270 N.2   1801  ATP1801     0.0021
     29  C2        -5.6780   47.6720   17.4780 C.3   1801  ATP1801     0.5254
     30  N3        -4.4260   47.7840   16.9960 N.2   1801  ATP1801    -0.0055
     31  C4        -4.0380   47.0760   15.9470 C.2   1801  ATP1801     0.3518
@<TRIPOS>BOND
     1     4     1    2
     2     3     1    1
     3     6     5    2
     4     8     1    1
     5     8     5    1
     6     1     2    1
     7     5     7    1
     8     5    12    1
     9    12     9    1
    10    11     9    2
    11     9    10    1
    12     9    13    1
    13    13    14    1
    14    14    15    1
    15    15    16    1
    16    15    17    1
    17    23    24    1
    18    23    22    1
    19    24    25    2
    20    16    21    1
    21    17    18    1
    22    17    19    1
    23    22    21    1
    24    22    31    1
    25    25    26    1
    26    25    31    1
    27    27    26    1
    28    21    19    1
    29    26    28    2
    30    31    30    2
    31    19    20    1
    32    28    29    1
    33    30    29    1
