@<TRIPOS>MOLECULE
1w7c_IMD_A_1.pdb
 10 10 0 0 0
SMALL
GASTEIGER

@<TRIPOS>ATOM
      1  N1        63.0270   -1.2240   24.8830 N.pl3 821  IMD821     -0.3281
      2  C2        62.4720   -1.3360   23.6450 C.3   821  IMD821      0.1200
      3  N3        61.2460   -1.9090   23.8230 N.pl3 821  IMD821     -0.3281
      4  C4        61.0420   -2.1330   25.1350 C.2   821  IMD821      0.0045
      5  C5        62.1710   -1.7120   25.8070 C.2   821  IMD821      0.0045
      6  HN1       63.9130   -0.8510   25.0740 H     821  IMD821      0.1474
      7  H2        62.8760   -1.0650   22.7940 H     821  IMD821      0.0742
      8  HN3       60.6070   -2.1120   23.1080 H     821  IMD821      0.1474
      9  H4        60.2450   -2.5380   25.5370 H     821  IMD821      0.0791
     10  H5        62.3180   -1.7470   26.7750 H     821  IMD821      0.0791
@<TRIPOS>BOND
     1     7     2    1
     2     8     3    1
     3     2     3    1
     4     2     1    1
     5     3     4    1
     6     1     6    1
     7     1     5    1
     8     4     9    1
     9     4     5    2
    10     5    10    1
