@<TRIPOS>MOLECULE
1w7f_ICT_A_1.pdb
 13 12 0 0 0
SMALL
GASTEIGER

@<TRIPOS>ATOM
      1  C1        -3.6290   -5.7040   16.0750 C.2   1291  ICT1291     0.3952
      2  O1        -3.6590   -4.5240   15.6860 O.co2 1291  ICT1291    -0.2428
      3  O2        -3.1940   -6.6240   15.3880 O.co2 1291  ICT1291    -0.2428
      4  C2        -4.1770   -6.0630   17.4630 C.3   1291  ICT1291     0.2651
      5  O7        -5.5980   -6.2230   17.3580 O.3   1291  ICT1291    -0.2103
      6  C3        -3.8530   -5.0740   18.5600 C.3   1291  ICT1291     0.1561
      7  C4        -4.4430   -3.7200   18.2230 C.3   1291  ICT1291     0.1285
      8  C5        -3.8560   -2.5100   18.5860 C.2   1291  ICT1291     0.3655
      9  O3        -3.3840   -1.7080   17.7620 O.co2 1291  ICT1291    -0.2456
     10  O4        -3.8280   -2.2700   19.7760 O.co2 1291  ICT1291    -0.2456
     11  C6        -2.2970   -5.0090   18.8750 C.2   1291  ICT1291     0.3680
     12  O5        -1.5590   -4.5470   18.0120 O.co2 1291  ICT1291    -0.2455
     13  O6        -1.9140   -5.4110   20.0140 O.co2 1291  ICT1291    -0.2455
@<TRIPOS>BOND
     1     3     1   ar
     2     2     1   ar
     3     1     4    1
     4     5     4    1
     5     4     6    1
     6     9     8   ar
     7    12    11   ar
     8     7     6    1
     9     7     8    1
    10     6    11    1
    11     8    10   ar
    12    11    13   ar
