@<TRIPOS>MOLECULE
1w7g_MIU_H_1.pdb
 34 35 0 0 0
SMALL
GASTEIGER

@<TRIPOS>ATOM
      1  C1        17.1550  -17.2920   21.9850 C.ar  300  MIU300      0.1235
      2  S11       15.4240  -17.5330   21.9250 S.O2  300  MIU300      0.0772
      3  O24       14.9270  -18.4420   23.1210 O.2   300  MIU300     -0.1516
      4  O25       15.0100  -18.2220   20.5560 O.2   300  MIU300     -0.1516
      5  C2        17.9760  -17.7160   20.9080 C.ar  300  MIU300      0.0199
      6  C3        19.3800  -17.5020   20.9810 C.ar  300  MIU300      0.0013
      7  C4        19.9490  -16.8740   22.1240 C.ar  300  MIU300      0.0039
      8  C5        19.1160  -16.4470   23.2130 C.ar  300  MIU300      0.0727
      9  C6        19.7500  -15.7570   24.4540 C.3   300  MIU300      0.4186
     10  F61       20.6470  -16.5810   25.0600 F     300  MIU300     -0.1659
     11  F1        20.3990  -14.6160   24.0760 F     300  MIU300     -0.1659
     12  F6        18.7940  -15.4200   25.3640 F     300  MIU300     -0.1659
     13  C10       17.7110  -16.6690   23.1270 C.ar  300  MIU300      0.0238
     14  N12       14.5230  -16.0470   21.9810 N.3   300  MIU300     -0.0700
     15  C13       14.7640  -15.0710   20.8850 C.3   300  MIU300      0.1738
     16  C14       15.9460  -14.0500   21.2480 C.2   300  MIU300      0.2435
     17  O15       16.1420  -13.8000   22.4500 O.2   300  MIU300     -0.2733
     18  C16       13.3380  -14.4880   20.6240 C.3   300  MIU300      0.0324
     19  C17       12.6070  -13.7300   21.7600 C.3   300  MIU300      0.0489
     20  C18       12.3000  -12.3150   21.2670 C.3   300  MIU300      0.2205
     21  N19       11.5910  -11.4370   22.2280 N.pl3 300  MIU300     -0.0865
     22  C20       12.1740  -10.8070   23.2440 C.cat 300  MIU300      0.5346
     23  N22       11.7590  -11.0560   24.4550 N.pl3 300  MIU300      0.1354
     24  N21       13.1420   -9.9390   23.1310 N.pl3 300  MIU300      0.1354
     25  N26       16.7510  -13.4650   20.2720 N.am  300  MIU300     -0.2755
     26  C27       18.0170  -12.7810   20.5730 C.3   300  MIU300      0.1108
     27  C28       19.1040  -13.4510   19.8090 C.3   300  MIU300      0.0939
     28  N29       18.7460  -13.4100   18.3240 N.3   300  MIU300     -0.2697
     29  C30       17.4500  -14.1370   18.0010 C.3   300  MIU300      0.0939
     30  C31       16.3150  -13.4990   18.8050 C.3   300  MIU300      0.1108
     31  C32       19.5480  -14.4100   17.6120 C.3   300  MIU300      0.0737
     32  C33       20.4690  -14.0070   16.4240 C.3   300  MIU300      0.0378
     33  C8        20.4480  -12.5070   16.0730 C.3   300  MIU300      0.1107
     34  N9        19.0800  -12.1030   15.6960 N.3   300  MIU300     -0.1313
@<TRIPOS>BOND
     1    34    33    1
     2    33    32    1
     3    32    31    1
     4    31    28    1
     5    29    28    1
     6    29    30    1
     7    28    27    1
     8    30    25    1
     9    27    26    1
    10    25    26    1
    11    25    16   am
    12     4     2    2
    13    18    15    1
    14    18    19    1
    15    15    16    1
    16    15    14    1
    17     5     6   ar
    18     5     1   ar
    19     6     7   ar
    20    16    17    2
    21    20    19    1
    22    20    21    1
    23     2    14    1
    24     2     1    1
    25     2     3    2
    26     1    13   ar
    27     7     8   ar
    28    21    22    2
    29    13     8   ar
    30    24    22    1
    31     8     9    1
    32    22    23    1
    33    11     9    1
    34     9    10    1
    35     9    12    1
