@<TRIPOS>MOLECULE
1w7h_3IP_A_1.pdb
 15 16 0 0 0
SMALL
GASTEIGER

@<TRIPOS>ATOM
      1  N1        20.8130   34.3980   31.5280 N.pl3 1355  3IP1355    -0.1039
      2  C2        21.6460   33.9140   30.5300 C.ar  1355  3IP1355     0.2039
      3  N3        22.7270   34.6770   30.1470 N.ar  1355  3IP1355    -0.2234
      4  C4        23.6300   34.2940   29.1670 C.ar  1355  3IP1355     0.1006
      5  C5        23.4700   33.0260   28.4780 C.ar  1355  3IP1355     0.0239
      6  C6        22.3300   32.1760   28.8490 C.ar  1355  3IP1355     0.0415
      7  C7        21.3830   32.6130   29.9010 C.ar  1355  3IP1355     0.1736
      8  O8        20.2520   31.8830   30.3440 O.3   1355  3IP1355    -0.4677
      9  C9        19.5410   30.9110   29.4900 C.3   1355  3IP1355     0.2321
     10  C10       18.1040   30.7710   30.0040 C.ar  1355  3IP1355     0.0212
     11  C11       17.0350   31.6570   29.5080 C.ar  1355  3IP1355    -0.0007
     12  C12       15.6590   31.5480   30.0020 C.ar  1355  3IP1355    -0.0002
     13  C13       15.2930   30.5430   31.0160 C.ar  1355  3IP1355    -0.0000
     14  C14       16.3560   29.6350   31.5320 C.ar  1355  3IP1355    -0.0002
     15  C15       17.7490   29.7570   31.0210 C.ar  1355  3IP1355    -0.0007
@<TRIPOS>BOND
     1     5     6   ar
     2     5     4   ar
     3     6     7   ar
     4     4     3   ar
     5     9    10    1
     6     9     8    1
     7    11    12   ar
     8    11    10   ar
     9     7     8    1
    10     7     2   ar
    11    12    13   ar
    12    10    15   ar
    13     3     2   ar
    14     2     1    1
    15    13    14   ar
    16    15    14   ar
