@<TRIPOS>MOLECULE
1w7i_ADP_A_1.pdb
 27 29 0 0 0
SMALL
GASTEIGER

@<TRIPOS>ATOM
      1  PB         2.9000    5.1800   56.4080 P.3   1796  ADP1796     0.5373
      2  O1B        1.9620    5.4470   57.5150 O.3   1796  ADP1796    -0.1143
      3  O2B        2.5940    4.0130   55.4140 O.2   1796  ADP1796    -0.2221
      4  O3B        4.0620    4.5980   57.2160 O.3   1796  ADP1796    -0.1143
      5  PA         2.6460    7.8730   56.2720 P.3   1796  ADP1796     0.2231
      6  O1A        2.7700    7.9280   57.7310 O.3   1796  ADP1796    -0.4370
      7  O2A        1.1870    7.9310   55.7710 O.2   1796  ADP1796    -0.5169
      8  O3A        3.2960    6.5420   55.6880 O.3   1796  ADP1796    -0.2261
      9  O5'        3.4920    9.0950   55.6600 O.3   1796  ADP1796    -0.3111
     10  C5'        4.8740    9.1310   55.6530 C.3   1796  ADP1796     0.1813
     11  C4'        5.2200   10.5510   55.2610 C.3   1796  ADP1796     0.1821
     12  O4'        5.0640   10.7460   53.8640 O.3   1796  ADP1796    -0.3135
     13  C3'        4.3150   11.5520   55.9550 C.3   1796  ADP1796     0.2184
     14  O3'        4.9380   12.1250   57.0620 O.3   1796  ADP1796    -0.2174
     15  C2'        4.0780   12.6040   54.9170 C.3   1796  ADP1796     0.2570
     16  O2'        4.9600   13.6360   55.2250 O.3   1796  ADP1796    -0.2130
     17  C1'        4.4290   11.9820   53.5780 C.3   1796  ADP1796     0.3186
     18  N9         3.2600   11.7600   52.6970 N.pl3 1796  ADP1796    -0.1439
     19  C8         2.6580   10.5650   52.4120 C.3   1796  ADP1796     0.3377
     20  N7         1.6490   10.7930   51.5330 N.2   1796  ADP1796    -0.2095
     21  C5         1.5830   12.1080   51.2590 C.2   1796  ADP1796     0.2526
     22  C6         0.7460   12.8630   50.4420 C.2   1796  ADP1796     0.4393
     23  N6        -0.2410   12.3240   49.7510 N.pl3 1796  ADP1796     0.2180
     24  N1         0.9410   14.2170   50.3540 N.2   1796  ADP1796     0.0021
     25  C2         1.9740   14.8070   51.0820 C.3   1796  ADP1796     0.5254
     26  N3         2.7960   14.0560   51.9030 N.2   1796  ADP1796    -0.0055
     27  C4         2.6020   12.7230   51.9860 C.2   1796  ADP1796     0.3518
@<TRIPOS>BOND
     1    23    22    1
     2    24    22    2
     3    24    25    1
     4    22    21    1
     5    25    26    1
     6    21    20    2
     7    21    27    1
     8    20    19    1
     9    26    27    2
    10    27    18    1
    11    19    18    1
    12    18    17    1
    13    17    12    1
    14    17    15    1
    15    12    11    1
    16    15    16    1
    17    15    13    1
    18    11    10    1
    19    11    13    1
    20     3     1    2
    21    10     9    1
    22     9     5    1
    23     8     5    1
    24     8     1    1
    25     7     5    2
    26    13    14    1
    27     5     6    1
    28     1     4    1
    29     1     2    1
