@<TRIPOS>MOLECULE
1w7j_ADP_A_1.pdb
 27 29 0 0 0
SMALL
GASTEIGER

@<TRIPOS>ATOM
      1  PB        25.2990   -5.4540   26.2460 P.3   1794  ADP1794     0.5373
      2  O1B       25.7140   -5.5150   27.6560 O.3   1794  ADP1794    -0.1143
      3  O2B       25.5800   -4.0370   25.7240 O.2   1794  ADP1794    -0.2221
      4  O3B       23.8500   -5.9030   26.1250 O.3   1794  ADP1794    -0.1143
      5  PA        27.2510   -6.3830   24.3850 P.3   1794  ADP1794     0.2231
      6  O1A       26.6160   -5.8180   23.1740 O.2   1794  ADP1794    -0.5169
      7  O2A       28.4820   -5.5990   24.8710 O.3   1794  ADP1794    -0.4370
      8  O3A       26.1750   -6.6180   25.5410 O.3   1794  ADP1794    -0.2261
      9  O5'       27.6970   -7.8960   24.0910 O.3   1794  ADP1794    -0.3111
     10  C5'       28.5810   -8.5550   24.9820 C.3   1794  ADP1794     0.1813
     11  C4'       29.4810   -9.4940   24.1820 C.3   1794  ADP1794     0.1821
     12  O4'       28.6960  -10.5430   23.6050 O.3   1794  ADP1794    -0.3135
     13  C3'       30.1980   -8.8490   23.0050 C.3   1794  ADP1794     0.2184
     14  O3'       31.3580   -8.1210   23.3450 O.3   1794  ADP1794    -0.2174
     15  C2'       30.5060  -10.0610   22.1560 C.3   1794  ADP1794     0.2570
     16  O2'       31.6310  -10.7740   22.6940 O.3   1794  ADP1794    -0.2130
     17  C1'       29.2360  -10.8910   22.3400 C.3   1794  ADP1794     0.3186
     18  N9        28.2170  -10.6510   21.3050 N.pl3 1794  ADP1794    -0.1439
     19  C8        27.0270   -9.9680   21.4190 C.3   1794  ADP1794     0.3377
     20  N7        26.3880  -10.0070   20.2360 N.2   1794  ADP1794    -0.2095
     21  C5        27.1550  -10.6960   19.3630 C.2   1794  ADP1794     0.2526
     22  C6        26.9720  -11.0310   18.0280 C.2   1794  ADP1794     0.4393
     23  N6        25.8720  -10.6650   17.3600 N.pl3 1794  ADP1794     0.2180
     24  N1        27.9570  -11.7500   17.3990 N.2   1794  ADP1794     0.0021
     25  C2        29.0930  -12.1620   18.0680 C.3   1794  ADP1794     0.5254
     26  N3        29.2740  -11.8310   19.3960 N.2   1794  ADP1794    -0.0055
     27  C4        28.3030  -11.1090   20.0220 C.2   1794  ADP1794     0.3518
@<TRIPOS>BOND
     1    23    22    1
     2    24    22    2
     3    24    25    1
     4    22    21    1
     5    25    26    1
     6    21    27    1
     7    21    20    2
     8    26    27    2
     9    27    18    1
    10    20    19    1
    11    18    19    1
    12    18    17    1
    13    15    17    1
    14    15    16    1
    15    15    13    1
    16    17    12    1
    17    13    14    1
    18    13    11    1
    19     6     5    2
    20    12    11    1
    21     9     5    1
    22     9    10    1
    23    11    10    1
    24     5     7    1
    25     5     8    1
    26     8     1    1
    27     3     1    2
    28     4     1    1
    29     1     2    1
