@<TRIPOS>MOLECULE
1w7k_ADP_A_1.pdb
 27 29 0 0 0
SMALL
GASTEIGER

@<TRIPOS>ATOM
      1  PB         4.9070   10.0030   32.9860 P.3   1421  ADP1421     0.5373
      2  O1B        5.3090    9.9760   31.5480 O.2   1421  ADP1421    -0.2221
      3  O2B        3.8010    9.0380   33.3220 O.3   1421  ADP1421    -0.1143
      4  O3B        4.5620   11.4240   33.4150 O.3   1421  ADP1421    -0.1143
      5  PA         6.0300    9.5230   35.4640 P.3   1421  ADP1421     0.2231
      6  O1A        7.2790   10.1550   35.9920 O.2   1421  ADP1421    -0.5169
      7  O2A        4.6830    9.9050   36.0530 O.3   1421  ADP1421    -0.4370
      8  O3A        6.2030    9.6100   33.9130 O.3   1421  ADP1421    -0.2261
      9  O5'        6.2590    7.9720   35.6680 O.3   1421  ADP1421    -0.3111
     10  C5'        5.2630    7.0760   36.0810 C.3   1421  ADP1421     0.1813
     11  C4'        5.8400    5.6790   36.1670 C.3   1421  ADP1421     0.1821
     12  O4'        6.5760    5.3870   34.9650 O.3   1421  ADP1421    -0.3135
     13  C3'        6.9150    5.5610   37.2780 C.3   1421  ADP1421     0.2184
     14  O3'        6.3480    5.4670   38.6080 O.3   1421  ADP1421    -0.2174
     15  C2'        7.7180    4.3770   36.8140 C.3   1421  ADP1421     0.2570
     16  O2'        6.9440    3.2130   37.2180 O.3   1421  ADP1421    -0.2130
     17  C1'        7.7150    4.6260   35.2660 C.3   1421  ADP1421     0.3186
     18  N9         8.8880    5.2960   34.6460 N.pl3 1421  ADP1421    -0.1439
     19  C8         9.2120    6.5940   34.8470 C.3   1421  ADP1421     0.3377
     20  N7        10.2950    6.9100   34.1470 N.2   1421  ADP1421    -0.2095
     21  C5        10.7170    5.7290   33.4280 C.2   1421  ADP1421     0.2526
     22  C6        11.7490    5.3450   32.5380 C.2   1421  ADP1421     0.4393
     23  N6        12.8400    6.1080   31.9950 N.pl3 1421  ADP1421     0.2180
     24  N1        11.7600    4.0470   32.1090 N.2   1421  ADP1421     0.0021
     25  C2        10.8740    3.1060   32.4500 C.3   1421  ADP1421     0.5254
     26  N3         9.8960    3.4510   33.2760 N.2   1421  ADP1421    -0.0055
     27  C4         9.8060    4.7220   33.7630 C.2   1421  ADP1421     0.3518
@<TRIPOS>BOND
     1     2     1    2
     2    23    22    1
     3    24    25    1
     4    24    22    2
     5    25    26    1
     6    22    21    1
     7     1     3    1
     8     1     4    1
     9     1     8    1
    10    26    27    2
    11    21    27    1
    12    21    20    2
    13    27    18    1
    14     8     5    1
    15    20    19    1
    16    18    19    1
    17    18    17    1
    18    12    17    1
    19    12    11    1
    20    17    15    1
    21     5     9    1
    22     5     6    2
    23     5     7    1
    24     9    10    1
    25    10    11    1
    26    11    13    1
    27    15    16    1
    28    15    13    1
    29    13    14    1
