@<TRIPOS>MOLECULE
1w7m_DPN_A_1.pdb
 12 12 0 0 0
SMALL
GASTEIGER

@<TRIPOS>ATOM
      1  N          4.0630  139.1180    1.5260 N.3   914  DPN914     -0.1205
      2  CA         4.9420  138.9970    0.3760 C.3   914  DPN914      0.1986
      3  C          4.2940  139.4360   -0.9390 C.2   914  DPN914      0.3822
      4  O          3.2120  140.0590   -0.9250 O.co2 914  DPN914     -0.2440
      5  OXT        4.9040  139.1420   -2.1260 O.co2 914  DPN914     -0.2440
      6  CB         5.3580  137.5240    0.3600 C.3   914  DPN914      0.0569
      7  CG         4.2690  136.5320    0.7680 C.ar  914  DPN914     -0.0202
      8  CD1        3.4360  135.9220   -0.3460 C.ar  914  DPN914     -0.0042
      9  CD2        4.0950  136.2410    2.2440 C.ar  914  DPN914     -0.0042
     10  CE1        2.3550  134.9420    0.0500 C.ar  914  DPN914     -0.0003
     11  CE2        3.0050  135.2540    2.6270 C.ar  914  DPN914     -0.0003
     12  CZ         2.1450  134.6140    1.5350 C.ar  914  DPN914     -0.0000
@<TRIPOS>BOND
     1     5     3   ar
     2     3     4   ar
     3     3     2    1
     4     8    10   ar
     5     8     7   ar
     6    10    12   ar
     7     6     2    1
     8     6     7    1
     9     2     1    1
    10     7     9   ar
    11    12    11   ar
    12     9    11   ar
