@<TRIPOS>MOLECULE
1w7n_PMP_A_1.pdb
 16 16 0 0 0
SMALL
GASTEIGER

@<TRIPOS>ATOM
      1  N1         1.5510  140.3320    6.2610 N.2   913  PMP913     -0.2505
      2  C2         1.9070  140.8870    5.0300 C.2   913  PMP913      0.0675
      3  C2A        1.3550  142.1760    4.8910 C.3   913  PMP913      0.0499
      4  C3         2.8900  140.2440    4.2950 C.3   913  PMP913      0.1927
      5  O3         3.5190  140.9540    3.3160 O.3   913  PMP913     -0.2166
      6  C4         3.2060  138.8990    4.5800 C.3   913  PMP913      0.0771
      7  C4A        3.9900  138.0580    3.6020 C.3   913  PMP913      0.1163
      8  N4A        5.3850  138.3790    3.8290 N.3   913  PMP913     -0.1309
      9  C5         2.7570  138.3310    5.7640 C.2   913  PMP913      0.0087
     10  C6         1.8960  139.0440    6.6060 C.2   913  PMP913      0.0922
     11  C5A        3.1650  136.9340    6.1600 C.3   913  PMP913      0.1776
     12  O4P        4.4640  136.5660    5.7400 O.3   913  PMP913     -0.2656
     13  P          5.2940  135.5510    6.6550 P.3   913  PMP913      0.5329
     14  O1P        5.7610  136.2440    7.8640 O.3   913  PMP913     -0.1145
     15  O2P        6.4670  134.9650    5.8910 O.2   913  PMP913     -0.2224
     16  O3P        4.3890  134.4180    7.1660 O.3   913  PMP913     -0.1145
@<TRIPOS>BOND
     1     5     4    1
     2     7     8    1
     3     7     6    1
     4     4     6    1
     5     4     2    1
     6     6     9    1
     7     3     2    1
     8     2     1    2
     9    12    11    1
    10    12    13    1
    11     9    11    1
    12     9    10    2
    13    15    13    2
    14     1    10    1
    15    13    16    1
    16    13    14    1
