@<TRIPOS>MOLECULE
1w7o_HEC_A_1.pdb
 43 50 0 0 0
SMALL
GASTEIGER

@<TRIPOS>ATOM
      1 FE          7.7120   20.8900   -3.3500 Fe    1119  HEC1119     0.0000
      2  CHA        5.0190   19.1390   -2.2410 C.2   1119  HEC1119     0.0000
      3  CHB        5.6530   23.0990   -4.9610 C.2   1119  HEC1119     0.0000
      4  CHC       10.3650   22.8730   -4.0850 C.2   1119  HEC1119     0.0000
      5  CHD        9.7620   18.3890   -2.4040 C.2   1119  HEC1119     0.0000
      6  NA         5.7420   21.1060   -3.5040 N.ar  1119  HEC1119     0.0000
      7  C1A        4.7750   20.2510   -2.9580 C.ar  1119  HEC1119     0.0000
      8  C2A        3.4800   20.7060   -3.3820 C.ar  1119  HEC1119     0.0000
      9  C3A        3.6480   21.8290   -4.0920 C.ar  1119  HEC1119     0.0000
     10  C4A        5.0690   22.0700   -4.2300 C.ar  1119  HEC1119     0.0000
     11  CMA        2.6110   22.6790   -4.7770 C.3   1119  HEC1119     0.0000
     12  CAA        2.1620   20.0620   -2.9220 C.3   1119  HEC1119     0.0000
     13  CBA        1.7540   18.8340   -3.6890 C.3   1119  HEC1119     0.0000
     14  CGA        0.4480   18.3450   -3.1100 C.2   1119  HEC1119     0.0000
     15  O1A       -0.4910   18.2970   -3.9310 O.co2 1119  HEC1119     0.0000
     16  O2A        0.3440   18.0150   -1.8830 O.co2 1119  HEC1119     0.0000
     17  NB         7.9540   22.6260   -4.3050 N.2   1119  HEC1119     0.0000
     18  C1B        6.9850   23.3760   -4.9150 C.2   1119  HEC1119     0.0000
     19  C2B        7.5940   24.5520   -5.4330 C.2   1119  HEC1119     0.0000
     20  C3B        8.9000   24.4910   -5.2070 C.2   1119  HEC1119     0.0000
     21  C4B        9.1190   23.2820   -4.4450 C.2   1119  HEC1119     0.0000
     22  CMB        6.8680   25.5900   -6.2820 C.3   1119  HEC1119     0.0000
     23  CAB        9.9740   25.5090   -5.5320 C.2   1119  HEC1119     0.0000
     24  CBB        9.7850   26.7530   -4.9770 C.2   1119  HEC1119     0.0000
     25  NC         9.6840   20.7130   -3.2640 N.ar  1119  HEC1119     0.0000
     26  C1C       10.6240   21.6350   -3.5830 C.ar  1119  HEC1119     0.0000
     27  C2C       11.9230   21.1310   -3.2730 C.ar  1119  HEC1119     0.0000
     28  C3C       11.7830   19.8920   -2.7280 C.ar  1119  HEC1119     0.0000
     29  C4C       10.3590   19.5860   -2.8020 C.ar  1119  HEC1119     0.0000
     30  CMC       13.2240   21.9210   -3.4600 C.3   1119  HEC1119     0.0000
     31  CAC       12.9030   18.9410   -2.2490 C.3   1119  HEC1119     0.0000
     32  CBC       13.9280   19.3170   -1.4020 C.3   1119  HEC1119     0.0000
     33  ND         7.4410   19.1010   -2.4690 N.2   1119  HEC1119     0.0000
     34  C1D        8.4500   18.1880   -2.2740 C.2   1119  HEC1119     0.0000
     35  C2D        7.9100   16.9400   -1.8220 C.2   1119  HEC1119     0.0000
     36  C3D        6.4560   17.1680   -1.6860 C.2   1119  HEC1119     0.0000
     37  C4D        6.2240   18.5140   -2.1210 C.2   1119  HEC1119     0.0000
     38  CMD        8.6530   15.6820   -1.4860 C.3   1119  HEC1119     0.0000
     39  CAD        5.4940   16.0810   -1.2690 C.3   1119  HEC1119     0.0000
     40  CBD        4.8570   15.5870   -2.5680 C.3   1119  HEC1119     0.0000
     41  CGD        4.2900   14.2310   -2.3420 C.2   1119  HEC1119     0.0000
     42  O1D        3.5690   13.7780   -3.3150 O.co2 1119  HEC1119     0.0000
     43  O2D        4.5760   13.6090   -1.2790 O.co2 1119  HEC1119     0.0000
@<TRIPOS>BOND
     1    22    19    1
     2    23    20    1
     3    23    24    2
     4    19    20    2
     5    19    18    1
     6    20    21    1
     7     3    18    1
     8     3    10    2
     9    18    17    2
    10    11     9    1
    11    21    17    1
    12    21     4    2
    13    17     1    1
    14    10     9   ar
    15    10     6   ar
    16     9     8   ar
    17     4    26    1
    18    15    14   ar
    19    13    14    1
    20    13    12    1
    21    26    27   ar
    22    26    25   ar
    23     6     1    1
    24     6     7   ar
    25    30    27    1
    26     8     7   ar
    27     8    12    1
    28     1    25    1
    29     1    33    1
    30    42    41   ar
    31    27    28   ar
    32    25    29   ar
    33    14    16   ar
    34     7     2    2
    35    29    28   ar
    36    29     5    1
    37    28    31    1
    38    40    41    1
    39    40    39    1
    40    33    34    1
    41    33    37    2
    42     5    34    2
    43    41    43   ar
    44    34    35    1
    45    31    32    1
    46     2    37    1
    47    37    36    1
    48    35    36    2
    49    35    38    1
    50    36    39    1
