@<TRIPOS>MOLECULE
1w7v_III_E_1.pdb
 16 16 0 0 0
SMALL
GASTEIGER

@<TRIPOS>ATOM
      1  N        -24.8120  -10.5200   21.5200 N.3     1  PRO1       -0.2102
      2  CA       -25.3860  -11.6030   20.7210 C.3     1  PRO1        0.1504
      3  C        -24.7520  -11.7490   19.3350 C.2     1  PRO1        0.2576
      4  O        -24.1990  -10.7830   18.7920 O.2     1  PRO1       -0.2718
      5  CB       -26.8550  -11.1950   20.5900 C.3     1  PRO1        0.0282
      6  CG       -27.1230  -10.3930   21.7920 C.3     1  PRO1        0.0208
      7  CD       -25.8540   -9.6470   22.0840 C.3     1  PRO1        0.0893
      8  N        -24.8360  -12.9610   18.7890 N.am    2  LEU2       -0.1944
      9  CA       -24.3750  -13.2750   17.4330 C.3     2  LEU2        0.1978
     10  C        -25.5390  -13.9730   16.7120 C.2     2  LEU2        0.3842
     11  O        -26.0520  -13.5520   15.6690 O.co2   2  LEU2       -0.2437
     12  CB       -23.1510  -14.2070   17.4930 C.3     2  LEU2        0.0333
     13  CG       -22.4460  -14.5510   16.1730 C.3     2  LEU2        0.0023
     14  CD1      -21.3990  -13.5100   15.8370 C.3     2  LEU2        0.0001
     15  CD2      -21.8020  -15.9230   16.2140 C.3     2  LEU2        0.0001
     16  OXT      -26.0140  -15.0010   17.1990 O.co2   2  LEU2       -0.2437
@<TRIPOS>BOND
     1    11    10   ar
     2    14    13    1
     3    13    15    1
     4    13    12    1
     5    10    16   ar
     6    10     9    1
     7     9    12    1
     8     9     8    1
     9     8     3   am
    10     4     3    2
    11     3     2    1
    12     5     2    1
    13     5     6    1
    14     2     1    1
    15     1     7    1
    16     6     7    1
