@<TRIPOS>MOLECULE
1w7x_413_H_1.pdb
 40 43 0 0 0
SMALL
GASTEIGER

@<TRIPOS>ATOM
      1  O31        9.6510   39.6130   34.6010 O.2   1261  4131261    -0.2711
      2  C31        9.1900   40.0340   33.5440 C.2   1261  4131261     0.2661
      3  N4         7.9250   40.4530   33.4550 N.am  1261  4131261    -0.1893
      4  C23        7.0610   40.4800   34.6210 C.3   1261  4131261     0.2200
      5  C24        7.5880   41.5320   35.5400 C.ar  1261  4131261     0.0083
      6  C25        8.2140   42.6780   35.0240 C.ar  1261  4131261    -0.0021
      7  C26        8.7230   43.6650   35.8700 C.ar  1261  4131261    -0.0003
      8  C27        8.5870   43.5100   37.2490 C.ar  1261  4131261    -0.0000
      9  C28        7.9750   42.3680   37.7780 C.ar  1261  4131261    -0.0003
     10  C29        7.4770   41.3760   36.9210 C.ar  1261  4131261    -0.0021
     11  C30        5.6730   40.9080   34.2600 C.2   1261  4131261     0.3884
     12  O30        5.4660   41.3040   33.0920 O.co2 1261  4131261    -0.2434
     13  O40        4.7950   40.8510   35.1530 O.co2 1261  4131261    -0.2434
     14  C8        10.0100   40.1250   32.2890 C.3   1261  4131261     0.1922
     15  N3        11.2010   39.2870   32.3880 N.pl3 1261  4131261    -0.2255
     16  C5        11.9270   38.8260   31.3310 C.ar  1261  4131261     0.0662
     17  C4        11.5210   39.0270   30.0090 C.ar  1261  4131261     0.0164
     18  C3        12.2880   38.5500   28.9610 C.ar  1261  4131261     0.0093
     19  C6        13.1440   38.1660   31.5700 C.ar  1261  4131261     0.0164
     20  C7        13.9330   37.6840   30.5240 C.ar  1261  4131261     0.0093
     21  C2        13.5020   37.8900   29.2060 C.ar  1261  4131261     0.0976
     22  C1        14.2900   37.4000   28.0320 C.2   1261  4131261     0.4766
     23  N2        15.4680   36.7800   28.1850 N.pl3 1261  4131261     0.2047
     24  N1        13.7730   37.6040   26.8100 N.pl3 1261  4131261     0.2047
     25  C9        10.3530   41.5620   32.0720 C.ar  1261  4131261     0.0093
     26  C14       11.2400   42.2450   32.9100 C.ar  1261  4131261     0.0379
     27  C13       11.5280   43.5900   32.7070 C.ar  1261  4131261     0.1721
     28  O3        12.4170   44.2590   33.5190 O.3   1261  4131261    -0.4684
     29  C15       12.9060   43.6620   34.7290 C.3   1261  4131261     0.2526
     30  C12       10.9350   44.2740   31.6400 C.ar  1261  4131261     0.1727
     31  C11       10.0450   43.5980   30.8000 C.ar  1261  4131261     0.0398
     32  C10        9.7470   42.2550   31.0060 C.ar  1261  4131261     0.0012
     33  O4        11.2460   45.6070   31.4430 O.3   1261  4131261    -0.4676
     34  C16       10.4420   46.4910   30.6590 C.3   1261  4131261     0.2321
     35  C17       10.7150   46.3240   29.1780 C.ar  1261  4131261     0.0212
     36  C22       11.7710   45.5420   28.7070 C.ar  1261  4131261    -0.0007
     37  C21       11.9920   45.3980   27.3370 C.ar  1261  4131261    -0.0002
     38  C20       11.1680   46.0450   26.4160 C.ar  1261  4131261    -0.0000
     39  C19       10.1120   46.8290   26.8800 C.ar  1261  4131261    -0.0002
     40  C18        9.8880   46.9780   28.2510 C.ar  1261  4131261    -0.0007
@<TRIPOS>BOND
     1    38    39   ar
     2    38    37   ar
     3    24    22    2
     4    39    40   ar
     5    37    36   ar
     6    22    23    1
     7    22    21    1
     8    40    35   ar
     9    36    35   ar
    10    18    21   ar
    11    18    17   ar
    12    35    34    1
    13    21    20   ar
    14    17    16   ar
    15    20    19   ar
    16    34    33    1
    17    31    32   ar
    18    31    30   ar
    19    32    25   ar
    20    16    19   ar
    21    16    15    1
    22    33    30    1
    23    30    27   ar
    24    25    14    1
    25    25    26   ar
    26    14    15    1
    27    14     2    1
    28    27    26   ar
    29    27    28    1
    30    12    11   ar
    31     3     2   am
    32     3     4    1
    33    28    29    1
    34     2     1    2
    35    11     4    1
    36    11    13   ar
    37     4     5    1
    38     6     5   ar
    39     6     7   ar
    40     5    10   ar
    41     7     8   ar
    42    10     9   ar
    43     8     9   ar
