@<TRIPOS>MOLECULE
1w82_L10_A_1.pdb
 26 28 0 0 0
SMALL
GASTEIGER

@<TRIPOS>ATOM
      1 CL16        4.8900    9.7710   30.9510 Cl    1356  L101356    -0.0822
      2  C15        5.5580   10.8320   32.1200 C.ar  1356  L101356     0.0578
      3  C14        6.9220   11.0560   32.1070 C.ar  1356  L101356     0.0127
      4  C13        7.4560   11.9210   33.0210 C.ar  1356  L101356     0.0175
      5  C17        4.7180   11.4490   33.0300 C.ar  1356  L101356     0.0127
      6  C18        5.2550   12.3190   33.9510 C.ar  1356  L101356     0.0175
      7  C12        6.6280   12.5620   33.9570 C.ar  1356  L101356     0.0750
      8  N11        7.2840   13.4230   34.8490 N.am  1356  L101356    -0.1606
      9  C9         6.8910   13.8890   36.0640 C.2   1356  L101356     0.3491
     10  O10        5.9870   13.3850   36.7030 O.2   1356  L101356    -0.2484
     11  N8         7.6240   14.9260   36.5540 N.am  1356  L101356    -0.1418
     12  C7         7.6090   15.4520   37.8440 C.ar  1356  L101356     0.1587
     13  C6         7.3800   14.7730   38.9880 C.ar  1356  L101356     0.0527
     14  N19        7.8820   16.7540   38.1660 N.ar  1356  L101356    -0.2145
     15  N20        7.7840   16.8430   39.5490 N.ar  1356  L101356    -0.1683
     16  C5         7.4760   15.6710   40.0350 C.ar  1356  L101356     0.0811
     17  C2         7.2910   15.3140   41.4890 C.3   1356  L101356     0.0372
     18  C4         7.0550   16.5960   42.2890 C.3   1356  L101356     0.0060
     19  C3         8.5890   14.6270   41.9220 C.3   1356  L101356     0.0060
     20  C1         6.1220   14.3520   41.7140 C.3   1356  L101356     0.0060
     21  C21        8.1960   17.8280   37.2860 C.ar  1356  L101356     0.0842
     22  C26        7.4820   18.0470   36.1060 C.ar  1356  L101356     0.0192
     23  C25        7.7980   19.0840   35.2530 C.ar  1356  L101356     0.0015
     24  C24        8.8340   19.9350   35.5660 C.ar  1356  L101356     0.0001
     25  C23        9.5520   19.7470   36.7290 C.ar  1356  L101356     0.0015
     26  C22        9.2360   18.7020   37.5710 C.ar  1356  L101356     0.0192
@<TRIPOS>BOND
     1     1     2    1
     2     3     2   ar
     3     3     4   ar
     4     2     5   ar
     5     4     7   ar
     6     5     6   ar
     7     6     7   ar
     8     7     8    1
     9     8     9   am
    10    23    24   ar
    11    23    22   ar
    12    24    25   ar
    13     9    11   am
    14     9    10    2
    15    22    21   ar
    16    11    12    1
    17    25    26   ar
    18    21    26   ar
    19    21    14    1
    20    12    14   ar
    21    12    13   ar
    22    14    15   ar
    23    13    16   ar
    24    15    16   ar
    25    16    17    1
    26    17    20    1
    27    17    19    1
    28    17    18    1
