@<TRIPOS>MOLECULE
1w83_L11_A_1.pdb
 31 34 0 0 0
SMALL
GASTEIGER

@<TRIPOS>ATOM
      1 CL15        5.9360    9.7580   30.3880 Cl    1355  L111355    -0.0825
      2  C14        6.0270   10.9370   31.6870 C.ar  1355  L111355     0.0572
      3  C13        7.2650   11.3930   32.1210 C.ar  1355  L111355     0.0125
      4  C12        7.3600   12.3370   33.1290 C.ar  1355  L111355     0.0175
      5  C16        4.8800   11.4350   32.3020 C.ar  1355  L111355     0.0330
      6  C17        3.5100   11.0280   31.8380 C.3   1355  L111355     0.2329
      7  O18        3.1410    9.7200   32.2250 O.3   1355  L111355    -0.4690
      8  C19        2.0190    9.3160   31.5430 C.ar  1355  L111355     0.1581
      9  C24        1.3990    8.1140   31.9190 C.ar  1355  L111355     0.1356
     10  N23        0.3170    7.6850   31.2590 N.ar  1355  L111355    -0.2391
     11  C22       -0.2180    8.3740   30.2380 C.ar  1355  L111355     0.0991
     12  C21        0.3440    9.5770   29.8220 C.ar  1355  L111355     0.0238
     13  C20        1.4810   10.0600   30.4730 C.ar  1355  L111355     0.0401
     14  C25        4.9760   12.3860   33.3080 C.ar  1355  L111355     0.0168
     15  C11        6.2190   12.8370   33.7480 C.ar  1355  L111355     0.0735
     16  N10        6.3540   13.8060   34.7580 N.am  1355  L111355    -0.1755
     17  C8         5.8060   13.8050   36.0020 C.2   1355  L111355     0.2691
     18  O9         4.9370   13.0360   36.3450 O.2   1355  L111355    -0.2680
     19  C6         6.2420   14.7940   36.9970 C.ar  1355  L111355     0.0588
     20  C7         7.0430   15.8630   36.6020 C.ar  1355  L111355     0.0343
     21  C2         7.4410   16.7810   37.5590 C.ar  1355  L111355     0.1415
     22  F1         8.2070   17.8050   37.1740 F     1355  L111355    -0.2041
     23  C5         5.8630   14.6520   38.3310 C.ar  1355  L111355     0.0192
     24  C4         6.2740   15.5740   39.2960 C.ar  1355  L111355     0.0504
     25  C3         7.0590   16.6600   38.8930 C.ar  1355  L111355     0.0441
     26  N26        5.8450   15.4370   40.6340 N.pl3 1355  L111355    -0.3027
     27  C31        5.8530   14.0640   41.1580 C.3   1355  L111355     0.1231
     28  C30        5.1010   14.0950   42.4990 C.3   1355  L111355     0.1636
     29  O29        5.6780   15.0350   43.4180 O.3   1355  L111355    -0.3501
     30  C28        5.7780   16.3550   42.8800 C.3   1355  L111355     0.1636
     31  C27        6.5230   16.3540   41.5590 C.3   1355  L111355     0.1231
@<TRIPOS>BOND
     1    12    11   ar
     2    12    13   ar
     3    11    10   ar
     4     1     2    1
     5    13     8   ar
     6    10     9   ar
     7     8     9   ar
     8     8     7    1
     9     2     3   ar
    10     2     5   ar
    11     6     7    1
    12     6     5    1
    13     3     4   ar
    14     5    14   ar
    15     4    15   ar
    16    14    15   ar
    17    15    16    1
    18    16    17   am
    19    17    18    2
    20    17    19    1
    21    20    19   ar
    22    20    21   ar
    23    19    23   ar
    24    22    21    1
    25    21    25   ar
    26    23    24   ar
    27    25    24   ar
    28    24    26    1
    29    26    27    1
    30    26    31    1
    31    27    28    1
    32    31    30    1
    33    28    29    1
    34    30    29    1
