@<TRIPOS>MOLECULE
1w84_L12_A_1.pdb
 17 19 0 0 0
SMALL
GASTEIGER

@<TRIPOS>ATOM
      1  C4         4.2610   12.2020   29.5010 C.2   1356  L121356    -0.0155
      2  C5         2.9350   12.9270   29.3820 C.3   1356  L121356     0.0289
      3  C6         1.9570   12.5880   30.5180 C.3   1356  L121356     0.0309
      4  C7         1.5400   11.1380   30.4810 C.ar  1356  L121356    -0.0188
      5  C8         2.0360   10.2480   31.4190 C.ar  1356  L121356     0.0164
      6  C10        1.6560    8.9190   31.3680 C.ar  1356  L121356     0.0986
      7  N12        0.8230    8.4650   30.4420 N.ar  1356  L121356    -0.2423
      8  C13        0.3280    9.2890   29.5300 C.ar  1356  L121356     0.0986
      9  C15        0.6680   10.6400   29.5150 C.ar  1356  L121356     0.0164
     10  C11        4.6930   11.2060   28.7080 C.2   1356  L121356     0.0906
     11  C20        5.5180   13.3360   31.5440 C.2   1356  L121356    -0.0164
     12  C21        5.3430   12.4500   30.4720 C.3   1356  L121356     0.0819
     13  C22        6.3790   11.5270   30.1670 C.2   1356  L121356     0.0665
     14  C24        7.5610   11.4980   30.9170 C.2   1356  L121356     0.0153
     15  C26        7.7030   12.3920   31.9710 C.2   1356  L121356     0.0009
     16  N11        5.9510   10.8040   29.0960 N.2   1356  L121356    -0.2482
     17  C28        6.6830   13.3030   32.2750 C.2   1356  L121356    -0.0038
@<TRIPOS>BOND
     1    10    16    1
     2    10     1    2
     3    16    13    2
     4     2     1    1
     5     2     3    1
     6     1    12    1
     7     9     8   ar
     8     9     4   ar
     9     8     7   ar
    10    13    12    1
    11    13    14    1
    12     7     6   ar
    13    12    11    1
    14     4     3    1
    15     4     5   ar
    16    14    15    2
    17     6     5   ar
    18    11    17    2
    19    15    17    1
