@<TRIPOS>MOLECULE
1w85_TDP_A_1.pdb
 26 27 0 0 0
SMALL
GASTEIGER

@<TRIPOS>ATOM
      1  N1'        4.6070    9.3710   26.1460 N.2   1370  TDP1370    -0.1861
      2  C2'        3.6010    8.5620   26.5400 C.1   1370  TDP1370     0.0663
      3  C2A        3.9560    7.1830   27.0150 C.3   1370  TDP1370     0.1291
      4  N3'        2.3070    8.9670   26.5130 N.2   1370  TDP1370    -0.3368
      5  C4'        1.9650   10.2190   26.0830 C.2   1370  TDP1370     0.2292
      6  N4'        0.6450   10.6290   26.0580 N.pl3 1370  TDP1370    -0.0925
      7  C5'        3.0840   11.1160   25.6470 C.2   1370  TDP1370     0.0654
      8  C6'        4.3880   10.6190   25.7060 C.2   1370  TDP1370     0.1115
      9  C35        2.8890   12.5270   25.1450 C.3   1370  TDP1370     0.1237
     10  N3         2.0640   12.6180   23.9740 N.pl3 1370  TDP1370    -0.2970
     11  C2         0.8150   12.5930   24.1050 C.3   1370  TDP1370     0.1543
     12  S1        -0.0090   12.7070   22.6660 S.3   1370  TDP1370    -0.0951
     13  C5         1.4740   12.7910   21.8830 C.2   1370  TDP1370     0.0164
     14  C4         2.4940   12.7320   22.7160 C.2   1370  TDP1370     0.0279
     15  C4A        3.9620   12.7790   22.3650 C.3   1370  TDP1370     0.0473
     16  C5A        1.6530   12.9220   20.3850 C.3   1370  TDP1370     0.0661
     17  C5B        0.7130   11.9880   19.6580 C.3   1370  TDP1370     0.1544
     18  O5G        1.4010   11.0530   18.8370 O.3   1370  TDP1370    -0.3134
     19  P1         0.6060    9.9140   18.0120 P.3   1370  TDP1370     0.2230
     20  O11       -0.9790   10.0990   18.3050 O.3   1370  TDP1370    -0.2261
     21  O12        1.0180   10.0220   16.4820 O.2   1370  TDP1370    -0.5169
     22  O13        0.9780    8.4730   18.5820 O.3   1370  TDP1370    -0.4370
     23  P2        -1.9230   11.3240   17.8370 P.3   1370  TDP1370     0.5373
     24  O21       -1.4150   11.8460   16.5040 O.2   1370  TDP1370    -0.2221
     25  O22       -2.0050   12.3280   18.9750 O.3   1370  TDP1370    -0.1143
     26  O23       -3.3800   10.6560   17.6930 O.3   1370  TDP1370    -0.1143
@<TRIPOS>BOND
     1    21    19    2
     2    24    23    2
     3    26    23    1
     4    23    20    1
     5    23    25    1
     6    19    20    1
     7    19    22    1
     8    19    18    1
     9    18    17    1
    10    17    16    1
    11    16    13    1
    12    13    12    1
    13    13    14    2
    14    15    14    1
    15    12    11    1
    16    14    10    1
    17    10    11    1
    18    10     9    1
    19     9     7    1
    20     7     8    2
    21     7     5    1
    22     8     1    1
    23     6     5    1
    24     5     4    2
    25     1     2    2
    26     4     2    2
    27     2     3    1
