@<TRIPOS>MOLECULE
1w87_NAP_A_1.pdb
 48 52 0 0 0
SMALL
GASTEIGER

@<TRIPOS>ATOM
      1  PA       150.2690   75.1830    2.8110 P.3   305  NAP305      0.2189
      2  O1A      149.1430   74.3720    2.4670 O.2   305  NAP305     -0.5170
      3  O2A      150.8470   74.7570    4.0850 O.3   305  NAP305     -0.4371
      4  O5B      149.7640   76.6580    2.8620 O.3   305  NAP305     -0.3112
      5  C5B      148.7750   77.0470    1.9400 C.3   305  NAP305      0.1813
      6  C4B      147.9720   78.1960    2.5450 C.3   305  NAP305      0.1820
      7  O4B      147.3440   78.7990    1.4610 O.3   305  NAP305     -0.3136
      8  C3B      146.8740   77.7740    3.5040 C.3   305  NAP305      0.2157
      9  O3B      146.7930   78.5130    4.6750 O.3   305  NAP305     -0.2175
     10  C2B      145.6330   77.9700    2.7160 C.3   305  NAP305      0.2314
     11  O2B      144.4150   78.0470    3.4410 O.3   305  NAP305     -0.2630
     12  C1B      146.0830   79.1400    1.8800 C.3   305  NAP305      0.3158
     13  N9A      145.1930   79.2780    0.7330 N.pl3 305  NAP305     -0.1439
     14  C8A      144.2870   78.3400    0.3020 C.3   305  NAP305      0.3377
     15  N7A      143.5480   78.8350   -0.7070 N.2   305  NAP305     -0.2095
     16  C5A      143.9620   80.0780   -0.9400 C.2   305  NAP305      0.2526
     17  C6A      143.4970   80.9850   -1.8560 C.2   305  NAP305      0.4393
     18  N6A      142.3590   80.7860   -2.4940 N.pl3 305  NAP305      0.2180
     19  N1A      144.0480   82.2070   -1.8550 N.2   305  NAP305      0.0021
     20  C2A      145.0600   82.5010   -0.9530 C.3   305  NAP305      0.5254
     21  N3A      145.5500   81.6100   -0.0020 N.2   305  NAP305     -0.0055
     22  C4A      144.9800   80.3810   -0.0280 C.2   305  NAP305      0.3518
     23  O3       151.2560   75.2220    1.5630 O.3   305  NAP305     -0.2703
     24  PN       152.3180   74.1930    1.0960 P.3   305  NAP305      0.2189
     25  O1N      153.1200   73.9670    2.2510 O.3   305  NAP305     -0.4371
     26  O2N      152.8460   74.8200   -0.0670 O.2   305  NAP305     -0.5170
     27  O5D      151.3990   73.0500    0.7060 O.3   305  NAP305     -0.3112
     28  C5D      150.4740   73.4900   -0.2130 C.3   305  NAP305      0.1813
     29  C4D      149.7790   72.3550   -0.9330 C.3   305  NAP305      0.1799
     30  O4D      148.6860   73.0740   -1.4540 O.3   305  NAP305     -0.3327
     31  C3D      150.4140   71.6780   -2.1760 C.3   305  NAP305      0.2158
     32  O3D      150.9430   70.3770   -2.0210 O.3   305  NAP305     -0.2175
     33  C2D      149.2740   71.7380   -3.1770 C.3   305  NAP305      0.2309
     34  O2D      148.2510   70.8260   -2.9070 O.3   305  NAP305     -0.2158
     35  C1D      148.7040   73.0770   -2.8440 C.3   305  NAP305      0.2263
     36  N1N      149.5820   74.1700   -3.2530 N.pl3 305  NAP305     -0.2787
     37  C2N      150.0490   75.1140   -2.3790 C.3   305  NAP305      0.1244
     38  C3N      150.8820   76.1550   -2.7830 C.2   305  NAP305      0.0544
     39  C7N      151.4340   77.1850   -1.8140 C.2   305  NAP305      0.2818
     40  O7N      151.7240   78.4520   -2.2500 O.2   305  NAP305     -0.2670
     41  N7N      151.7200   76.9870   -0.5250 N.am  305  NAP305     -0.0839
     42  C4N      151.2330   76.2230   -4.0760 C.2   305  NAP305      0.0033
     43  C5N      150.7070   75.2850   -4.9260 C.2   305  NAP305      0.0157
     44  C6N      149.9200   74.2350   -4.5390 C.2   305  NAP305      0.0633
     45  P2B      143.5870   76.6480    3.6540 P.3   305  NAP305      0.5328
     46  O1X      144.4610   75.4870    3.3920 O.3   305  NAP305     -0.1145
     47  O2X      143.2950   76.5460    5.1610 O.3   305  NAP305     -0.1145
     48  O3X      142.4450   76.6720    2.6130 O.2   305  NAP305     -0.2224
@<TRIPOS>BOND
     1    43    44    2
     2    43    42    1
     3    44    36    1
     4    42    38    2
     5    36    35    1
     6    36    37    1
     7    33    34    1
     8    33    35    1
     9    33    31    1
    10    35    30    1
    11    38    37    1
    12    38    39    1
    13    18    17    1
    14    40    39    2
    15    31    32    1
    16    31    29    1
    17    17    19    2
    18    17    16    1
    19    19    20    1
    20    39    41   am
    21    30    29    1
    22    20    21    1
    23    16    15    2
    24    16    22    1
    25    29    28    1
    26    15    14    1
    27    28    27    1
    28    26    24    2
    29    22    21    2
    30    22    13    1
    31    14    13    1
    32    27    24    1
    33    13    12    1
    34    24    23    1
    35    24    25    1
    36     7    12    1
    37     7     6    1
    38    23     1    1
    39    12    10    1
    40     5     6    1
    41     5     4    1
    42     2     1    2
    43     6     8    1
    44    48    45    2
    45    10    11    1
    46    10     8    1
    47     1     4    1
    48     1     3    1
    49    46    45    1
    50    11    45    1
    51     8     9    1
    52    45    47    1
