@<TRIPOS>MOLECULE
1w88_TDP_A_1.pdb
 26 27 0 0 0
SMALL
GASTEIGER

@<TRIPOS>ATOM
      1  N1'       44.2890   41.8910   87.6110 N.2   1370  TDP1370    -0.1861
      2  C2'       43.7990   40.9070   88.3990 C.1   1370  TDP1370     0.0663
      3  C2A       43.3900   41.2340   89.8090 C.3   1370  TDP1370     0.1291
      4  N3'       43.6840   39.6290   87.9480 N.2   1370  TDP1370    -0.3368
      5  C4'       44.0360   39.2960   86.6880 C.2   1370  TDP1370     0.2292
      6  N4'       43.8980   37.9610   86.2560 N.pl3 1370  TDP1370    -0.0925
      7  C5'       44.5870   40.3730   85.7970 C.2   1370  TDP1370     0.0654
      8  C6'       44.6790   41.6610   86.3390 C.2   1370  TDP1370     0.1115
      9  C35       45.0060   40.1260   84.3520 C.3   1370  TDP1370     0.1237
     10  N3        46.2700   39.3990   84.2560 N.pl3 1370  TDP1370    -0.2970
     11  C2        46.3040   38.0690   83.9790 C.3   1370  TDP1370     0.1543
     12  S1        47.8540   37.3880   83.9030 S.3   1370  TDP1370    -0.0951
     13  C5        48.5320   38.8980   84.2610 C.2   1370  TDP1370     0.0164
     14  C4        47.4930   39.9510   84.4300 C.2   1370  TDP1370     0.0279
     15  C4A       47.7680   41.4030   84.7390 C.3   1370  TDP1370     0.0473
     16  C5A       50.0460   38.9100   84.3460 C.3   1370  TDP1370     0.0661
     17  C5B       50.4570   38.4040   85.7280 C.3   1370  TDP1370     0.1544
     18  O5G       51.8740   38.3270   85.8180 O.3   1370  TDP1370    -0.3134
     19  P1        52.5740   37.5210   86.8980 P.3   1370  TDP1370     0.2230
     20  O11       52.3730   36.0300   86.6470 O.3   1370  TDP1370    -0.2261
     21  O12       54.0340   37.8710   86.8420 O.2   1370  TDP1370    -0.5169
     22  O13       52.0200   37.8680   88.2700 O.3   1370  TDP1370    -0.4370
     23  P2        52.7060   35.2980   85.3400 P.3   1370  TDP1370     0.5373
     24  O21       53.9010   35.8670   84.6240 O.3   1370  TDP1370    -0.1143
     25  O22       51.4880   35.3900   84.4540 O.2   1370  TDP1370    -0.2221
     26  O23       53.0120   33.8490   85.6250 O.3   1370  TDP1370    -0.1143
@<TRIPOS>BOND
     1    12    11    1
     2    12    13    1
     3    11    10    1
     4    10     9    1
     5    10    14    1
     6    13    16    1
     7    13    14    2
     8    16    17    1
     9     9     7    1
    10    14    15    1
    11    25    23    2
    12    24    23    1
    13    23    26    1
    14    23    20    1
    15    17    18    1
    16     7     8    2
    17     7     5    1
    18    18    19    1
    19     6     5    1
    20     8     1    1
    21    20    19    1
    22     5     4    2
    23    21    19    2
    24    19    22    1
    25     1     2    2
    26     4     2    2
    27     2     3    1
