@<TRIPOS>MOLECULE
1w8b_413_H_1.pdb
 40 43 0 0 0
SMALL
GASTEIGER

@<TRIPOS>ATOM
      1  O31       12.9810   35.8260   52.8520 O.2   1259  4131259    -0.2711
      2  C31       13.8740   35.3180   52.1960 C.2   1259  4131259     0.2661
      3  N4        14.4910   35.9740   51.2210 N.am  1259  4131259    -0.1893
      4  C23       14.1280   37.3410   50.9030 C.3   1259  4131259     0.2200
      5  C24       14.8100   38.1940   51.9070 C.ar  1259  4131259     0.0083
      6  C25       16.1250   37.9210   52.2870 C.ar  1259  4131259    -0.0021
      7  C26       16.7630   38.7130   53.2370 C.ar  1259  4131259    -0.0003
      8  C27       16.0800   39.7780   53.8190 C.ar  1259  4131259    -0.0000
      9  C28       14.7630   40.0530   53.4510 C.ar  1259  4131259    -0.0003
     10  C29       14.1270   39.2590   52.4950 C.ar  1259  4131259    -0.0021
     11  C30       14.4780   37.7450   49.4970 C.2   1259  4131259     0.3884
     12  O30       15.4040   37.1420   48.9070 O.co2 1259  4131259    -0.2434
     13  O40       13.8160   38.6740   48.9660 O.co2 1259  4131259    -0.2434
     14  C8        14.3710   33.9180   52.4600 C.3   1259  4131259     0.1922
     15  N3        13.5170   33.1250   53.3330 N.pl3 1259  4131259    -0.2255
     16  C5        13.5470   31.7640   53.3810 C.ar  1259  4131259     0.0662
     17  C4        14.2760   30.9970   52.4680 C.ar  1259  4131259     0.0164
     18  C3        14.2880   29.6050   52.5470 C.ar  1259  4131259     0.0093
     19  C6        12.8290   31.1060   54.3720 C.ar  1259  4131259     0.0164
     20  C7        12.8440   29.7170   54.4480 C.ar  1259  4131259     0.0093
     21  C2        13.5720   28.9580   53.5430 C.ar  1259  4131259     0.0976
     22  C1        13.5710   27.4590   53.6520 C.2   1259  4131259     0.4766
     23  N2        12.8740   26.8780   54.6160 N.pl3 1259  4131259     0.2047
     24  N1        14.2450   26.6950   52.7990 N.pl3 1259  4131259     0.2047
     25  C9        15.7300   34.0860   53.0300 C.ar  1259  4131259     0.0093
     26  C14       15.9310   34.7990   54.2130 C.ar  1259  4131259     0.0379
     27  C13       17.2240   34.9710   54.7100 C.ar  1259  4131259     0.1721
     28  O3        17.4940   35.6490   55.8680 O.3   1259  4131259    -0.4684
     29  C15       16.4820   36.2410   56.6650 C.3   1259  4131259     0.2526
     30  C12       18.3020   34.4430   54.0350 C.ar  1259  4131259     0.1727
     31  C11       18.1140   33.7370   52.8510 C.ar  1259  4131259     0.0398
     32  C10       16.8270   33.5670   52.3480 C.ar  1259  4131259     0.0012
     33  O4        19.5350   34.6480   54.5870 O.3   1259  4131259    -0.4676
     34  C16       20.7570   34.2730   53.9650 C.3   1259  4131259     0.2321
     35  C17       21.8680   35.1090   54.5480 C.ar  1259  4131259     0.0212
     36  C22       23.1220   34.5400   54.7650 C.ar  1259  4131259    -0.0007
     37  C21       24.1600   35.3020   55.3000 C.ar  1259  4131259    -0.0002
     38  C20       23.9340   36.6400   55.6160 C.ar  1259  4131259    -0.0000
     39  C19       22.6770   37.2110   55.4050 C.ar  1259  4131259    -0.0002
     40  C18       21.6430   36.4460   54.8680 C.ar  1259  4131259    -0.0007
@<TRIPOS>BOND
     1    12    11   ar
     2    13    11   ar
     3    11     4    1
     4     4     3    1
     5     4     5    1
     6     3     2   am
     7     5     6   ar
     8     5    10   ar
     9     2    14    1
    10     2     1    2
    11     6     7   ar
    12    32    31   ar
    13    32    25   ar
    14    14    25    1
    15    14    15    1
    16    17    18   ar
    17    17    16   ar
    18    10     9   ar
    19    18    21   ar
    20    24    22    2
    21    31    30   ar
    22    25    26   ar
    23     7     8   ar
    24    15    16    1
    25    16    19   ar
    26     9     8   ar
    27    21    22    1
    28    21    20   ar
    29    22    23    1
    30    34    35    1
    31    34    33    1
    32    30    33    1
    33    30    27   ar
    34    26    27   ar
    35    19    20   ar
    36    35    36   ar
    37    35    40   ar
    38    27    28    1
    39    36    37   ar
    40    40    39   ar
    41    37    38   ar
    42    39    38   ar
    43    28    29    1
