@<TRIPOS>MOLECULE
1w8c_N69_A_1.pdb
 21 23 0 0 0
SMALL
GASTEIGER

@<TRIPOS>ATOM
      1  N2        40.3010  -10.0820   15.0340 N.pl3 1301  N691301    -0.0225
      2  C2        39.7320  -10.1370   13.8200 C.1   1301  N691301     0.2543
      3  N1        40.2990   -9.3780   12.8500 N.2   1301  N691301    -0.2843
      4  N3        38.6270  -10.9030   13.5840 N.2   1301  N691301    -0.2553
      5  C4        38.1090  -10.8930   12.3430 C.1   1301  N691301     0.1983
      6  N9        37.0580  -11.5670   11.9160 N.2   1301  N691301    -0.2758
      7  C8        36.9370  -11.2280   10.5810 C.1   1301  N691301     0.1253
      8  C17       35.8550  -11.7180    9.6640 C.3   1301  N691301     0.1100
      9  C19       35.3760  -13.1310    9.9390 C.3   1301  N691301     0.0181
     10  C18       34.6700  -10.7820    9.8250 C.3   1301  N691301     0.0181
     11  C5        38.6910  -10.0940   11.2820 C.2   1301  N691301     0.2954
     12  N7        37.9040  -10.3250   10.1570 N.2   1301  N691301    -0.3246
     13  C6        39.8010   -9.3530   11.5840 C.2   1301  N691301     0.3324
     14  O6        40.4630   -8.5430   10.6980 O.2   1301  N691301    -0.4489
     15  C10       40.5000   -8.7560    9.2880 C.3   1301  N691301     0.2082
     16  C11       40.4140   -7.4000    8.5980 C.3   1301  N691301     0.0438
     17  C12       41.0200   -7.4290    7.1980 C.3   1301  N691301     0.0037
     18  C13       40.8110   -6.0780    6.4990 C.3   1301  N691301     0.0001
     19  C14       41.3780   -4.9150    7.3220 C.3   1301  N691301     0.0000
     20  C15       40.8550   -4.9240    8.7590 C.3   1301  N691301     0.0001
     21  C16       41.0430   -6.2820    9.4360 C.3   1301  N691301     0.0037
@<TRIPOS>BOND
     1    18    17    1
     2    18    19    1
     3    17    16    1
     4    19    20    1
     5    16    15    1
     6    16    21    1
     7    20    21    1
     8    15    14    1
     9     8    10    1
    10     8     9    1
    11     8     7    1
    12    12     7    2
    13    12    11    2
    14     7     6    2
    15    14    13    1
    16    11    13    1
    17    11     5    1
    18    13     3    2
    19     6     5    2
    20     5     4    2
    21     3     2    2
    22     4     2    2
    23     2     1    1
