@<TRIPOS>MOLECULE
1w8d_NAP_A_1.pdb
 48 52 0 0 0
SMALL
GASTEIGER

@<TRIPOS>ATOM
      1  PA        29.9540    4.3190   21.4720 P.3   1330  NAP1330     0.2189
      2  O1A       29.2700    3.4930   20.4400 O.2   1330  NAP1330    -0.5170
      3  O2A       30.9830    3.4660   22.2620 O.3   1330  NAP1330    -0.4371
      4  O5B       28.8370    4.9260   22.4500 O.3   1330  NAP1330    -0.3112
      5  C5B       29.2230    5.3360   23.7240 C.3   1330  NAP1330     0.1813
      6  C4B       28.3720    6.5350   24.0740 C.3   1330  NAP1330     0.1820
      7  O4B       27.1320    6.0950   24.6040 O.3   1330  NAP1330    -0.3136
      8  C3B       29.1220    7.2740   25.1570 C.3   1330  NAP1330     0.2157
      9  O3B       29.0720    8.6600   24.9000 O.3   1330  NAP1330    -0.2175
     10  C2B       28.3630    6.8890   26.4080 C.3   1330  NAP1330     0.2314
     11  O2B       28.3910    7.9140   27.3620 O.3   1330  NAP1330    -0.2630
     12  C1B       26.9540    6.5710   25.9260 C.3   1330  NAP1330     0.3158
     13  N9A       26.3320    5.5330   26.7760 N.pl3 1330  NAP1330    -0.1439
     14  C8A       26.8150    4.2640   26.9980 C.3   1330  NAP1330     0.3377
     15  N7A       25.9810    3.6190   27.8310 N.2   1330  NAP1330    -0.2095
     16  C5A       24.9800    4.4560   28.1510 C.2   1330  NAP1330     0.2526
     17  C6A       23.8700    4.2830   28.9630 C.2   1330  NAP1330     0.4393
     18  N6A       23.7880    3.1560   29.6890 N.pl3 1330  NAP1330     0.2180
     19  N1A       22.9650    5.3200   29.1230 N.2   1330  NAP1330     0.0021
     20  C2A       23.1840    6.5200   28.4690 C.3   1330  NAP1330     0.5254
     21  N3A       24.2970    6.6740   27.6660 N.2   1330  NAP1330    -0.0055
     22  C4A       25.1810    5.6600   27.5080 C.2   1330  NAP1330     0.3518
     23  O3        30.6380    5.6680   20.8870 O.3   1330  NAP1330    -0.2703
     24  PN        30.5960    6.1090   19.3340 P.3   1330  NAP1330     0.2189
     25  O1N       31.6000    5.2960   18.6170 O.2   1330  NAP1330    -0.5170
     26  O2N       30.6580    7.5870   19.2640 O.3   1330  NAP1330    -0.4371
     27  O5D       29.1580    5.6130   18.8010 O.3   1330  NAP1330    -0.3112
     28  C5D       28.0160    6.4120   18.5420 C.3   1330  NAP1330     0.1813
     29  C4D       26.9810    5.5700   17.7720 C.3   1330  NAP1330     0.1799
     30  O4D       27.4480    5.1800   16.4810 O.3   1330  NAP1330    -0.3327
     31  C3D       26.6410    4.2760   18.4970 C.3   1330  NAP1330     0.2158
     32  O3D       25.2440    4.0930   18.4830 O.3   1330  NAP1330    -0.2175
     33  C2D       27.3290    3.1910   17.6980 C.3   1330  NAP1330     0.2309
     34  O2D       26.6000    1.9970   17.7800 O.3   1330  NAP1330    -0.2158
     35  C1D       27.3400    3.7830   16.2950 C.3   1330  NAP1330     0.2263
     36  N1N       28.4270    3.2960   15.4250 N.pl3 1330  NAP1330    -0.2787
     37  C2N       29.6650    3.8910   15.4540 C.3   1330  NAP1330     0.1244
     38  C3N       30.6930    3.4380   14.6250 C.2   1330  NAP1330     0.0544
     39  C7N       32.0640    4.0650   14.6770 C.2   1330  NAP1330     0.2818
     40  O7N       33.0230    3.6620   13.7220 O.2   1330  NAP1330    -0.2670
     41  N7N       32.3550    4.9830   15.6090 N.am  1330  NAP1330    -0.0839
     42  C4N       30.4510    2.3710   13.7530 C.2   1330  NAP1330     0.0033
     43  C5N       29.1870    1.7740   13.7230 C.2   1330  NAP1330     0.0157
     44  C6N       28.1780    2.2480   14.5650 C.2   1330  NAP1330     0.0633
     45  P2B       28.7310    7.5160   28.8810 P.3   1330  NAP1330     0.5328
     46  O1X       29.9190    6.6310   28.8780 O.2   1330  NAP1330    -0.2224
     47  O2X       28.9370    8.8260   29.6520 O.3   1330  NAP1330    -0.1145
     48  O3X       27.5370    6.8080   29.5150 O.3   1330  NAP1330    -0.1145
@<TRIPOS>BOND
     1    40    39    2
     2    43    42    1
     3    43    44    2
     4    42    38    2
     5    44    36    1
     6    38    39    1
     7    38    37    1
     8    39    41   am
     9    36    37    1
    10    36    35    1
    11    35    30    1
    12    35    33    1
    13    30    29    1
    14    33    34    1
    15    33    31    1
    16    29    31    1
    17    29    28    1
    18    32    31    1
    19    28    27    1
    20    25    24    2
    21    27    24    1
    22    26    24    1
    23    24    23    1
    24     2     1    2
    25    23     1    1
    26     1     3    1
    27     1     4    1
    28     4     5    1
    29     5     6    1
    30     6     7    1
    31     6     8    1
    32     7    12    1
    33     9     8    1
    34     8    10    1
    35    12    10    1
    36    12    13    1
    37    10    11    1
    38    13    14    1
    39    13    22    1
    40    14    15    1
    41    11    45    1
    42    22    21    2
    43    22    16    1
    44    21    20    1
    45    15    16    2
    46    16    17    1
    47    20    19    1
    48    46    45    2
    49    45    48    1
    50    45    47    1
    51    17    19    2
    52    17    18    1
