@<TRIPOS>MOLECULE
1w8f_BGC_A_1.pdb
 11 11 0 0 0
SMALL
GASTEIGER

@<TRIPOS>ATOM
      1  C2         0.3520   -0.4420   32.3210 C.3   1119  BGC1119     0.2134
      2  C3        -0.0150    1.0070   32.4720 C.3   1119  BGC1119     0.0738
      3  C4        -1.4040    1.2510   33.0420 C.3   1119  BGC1119     0.1843
      4  C5        -1.6690    0.3820   34.2270 C.3   1119  BGC1119     0.1810
      5  C6        -3.0320    0.4750   34.8050 C.3   1119  BGC1119     0.2141
      6  C1        -0.0640   -1.2630   33.5420 C.3   1119  BGC1119     0.2997
      7  O1         0.1110   -2.6200   33.3350 O.3   1119  BGC1119    -0.1870
      8  O2         1.6960   -0.6650   32.0330 O.3   1119  BGC1119    -0.2175
      9  O4        -1.5540    2.6100   33.4020 O.3   1119  BGC1119    -0.2204
     10  O5        -1.3860   -0.9850   33.9470 O.3   1119  BGC1119    -0.3238
     11  O6        -4.0090    0.1180   33.8230 O.3   1119  BGC1119    -0.2176
@<TRIPOS>BOND
     1     8     1    1
     2     1     2    1
     3     1     6    1
     4     2     3    1
     5     3     9    1
     6     3     4    1
     7     7     6    1
     8     6    10    1
     9    11     5    1
    10    10     4    1
    11     4     5    1
