@<TRIPOS>MOLECULE
1w8f_GAL_B_1.pdb
 11 11 0 0 0
SMALL
GASTEIGER

@<TRIPOS>ATOM
      1  C1        10.9030  -19.8420   -3.1130 C.3   1120  GAL1120     0.1777
      2  C2        11.5940  -19.8460   -4.4320 C.3   1120  GAL1120     0.2141
      3  C3        13.0890  -19.9760   -4.2520 C.3   1120  GAL1120     0.2173
      4  C4        13.5950  -18.9230   -3.2700 C.3   1120  GAL1120     0.2142
      5  C5        12.8190  -19.0820   -1.9880 C.3   1120  GAL1120     0.1810
      6  C6        13.2500  -18.0170   -0.9710 C.3   1120  GAL1120     0.2141
      7  O2        11.1240  -20.9340   -5.2520 O.3   1120  GAL1120    -0.2176
      8  O3        13.7370  -19.8000   -5.5230 O.3   1120  GAL1120    -0.2175
      9  O4        13.4480  -17.6230   -3.8150 O.3   1120  GAL1120    -0.2176
     10  O5        11.4370  -18.8600   -2.2320 O.3   1120  GAL1120    -0.3481
     11  O6        12.6260  -18.2330    0.2670 O.3   1120  GAL1120    -0.2176
@<TRIPOS>BOND
     1     8     3    1
     2     7     2    1
     3     2     3    1
     4     2     1    1
     5     3     4    1
     6     9     4    1
     7     4     5    1
     8     1    10    1
     9    10     5    1
    10     5     6    1
    11     6    11    1
