@<TRIPOS>MOLECULE
1w8f_FUC_A_1.pdb
 11 11 0 0 0
SMALL
GASTEIGER

@<TRIPOS>ATOM
      1  C1         1.4110    2.3240   31.1100 C.3   1118  FUC1118     0.3023
      2  C2         1.5720    2.6720   29.6320 C.3   1118  FUC1118     0.2434
      3  C3         0.6120    3.7510   29.2200 C.3   1118  FUC1118     0.2198
      4  C4         0.7440    4.9540   30.0820 C.3   1118  FUC1118     0.2118
      5  C5         0.5430    4.5630   31.5460 C.3   1118  FUC1118     0.1509
      6  C6         0.7740    5.7150   32.5050 C.3   1118  FUC1118     0.0350
      7  O1         0.1630    1.7070   31.2750 O.3   1118  FUC1118    -0.1869
      8  O2         1.3970    1.5510   28.7660 O.3   1118  FUC1118    -0.2148
      9  O3         0.9350    4.0940   27.8480 O.3   1118  FUC1118    -0.2174
     10  O4         2.0300    5.5300   29.8180 O.3   1118  FUC1118    -0.2177
     11  O5         1.5190    3.5180   31.8830 O.3   1118  FUC1118    -0.3264
@<TRIPOS>BOND
     1     9     3    1
     2     8     2    1
     3     3     2    1
     4     3     4    1
     5     2     1    1
     6    10     4    1
     7     4     5    1
     8     1     7    1
     9     1    11    1
    10     5    11    1
    11     5     6    1
