@<TRIPOS>MOLECULE
1w8g_PLP_A_1.pdb
 15 15 0 0 0
SMALL
GASTEIGER

@<TRIPOS>ATOM
      1  N1        87.0020    1.4090    6.8910 N.ar  1229  PLP1229    -0.2452
      2  C2        86.6010    1.0650    5.6150 C.ar  1229  PLP1229     0.0978
      3  C2A       86.0660    2.1240    4.6810 C.3   1229  PLP1229     0.0555
      4  C3        86.6890   -0.2720    5.2370 C.ar  1229  PLP1229     0.2049
      5  O3        86.3410   -0.6310    3.9710 O.3   1229  PLP1229    -0.2857
      6  C4        87.1850   -1.2360    6.1330 C.ar  1229  PLP1229     0.0182
      7  C4A       87.1910   -2.6850    5.7320 C.3   1229  PLP1229     0.0342
      8  C5        87.6020   -0.8610    7.4110 C.ar  1229  PLP1229     0.0261
      9  C6        87.5040    0.4730    7.7740 C.ar  1229  PLP1229     0.0965
     10  C5A       88.0940   -1.8760    8.4290 C.3   1229  PLP1229     0.1815
     11  O4P       89.3280   -2.4620    8.0350 O.3   1229  PLP1229    -0.2653
     12  P         90.0310   -3.6310    8.9280 P.3   1229  PLP1229     0.5329
     13  O1P       90.2830   -3.0470   10.3070 O.3   1229  PLP1229    -0.1145
     14  O2P       91.3170   -4.0630    8.2800 O.2   1229  PLP1229    -0.2224
     15  O3P       89.0970   -4.8140    9.0340 O.3   1229  PLP1229    -0.1145
@<TRIPOS>BOND
     1     5     4    1
     2     3     2    1
     3     4     2   ar
     4     4     6   ar
     5     2     1   ar
     6     7     6    1
     7     6     8   ar
     8     1     9   ar
     9     8     9   ar
    10     8    10    1
    11    11    10    1
    12    11    12    1
    13    14    12    2
    14    12    15    1
    15    12    13    1
