@<TRIPOS>MOLECULE
1w8h_GAL_B_1.pdb
 11 11 0 0 0
SMALL
GASTEIGER

@<TRIPOS>ATOM
      1  C1        37.7300   11.3070    6.3690 C.3   333  GAL333      0.1777
      2  C2        37.8640   10.1850    7.4010 C.3   333  GAL333      0.2141
      3  C3        38.4010    8.8980    6.7700 C.3   333  GAL333      0.2173
      4  C4        37.5500    8.5130    5.5550 C.3   333  GAL333      0.2142
      5  C5        37.5280    9.7140    4.6130 C.3   333  GAL333      0.1810
      6  C6        36.7750    9.4860    3.3180 C.3   333  GAL333      0.2141
      7  O2        38.6830   10.6270    8.4470 O.3   333  GAL333     -0.2176
      8  O3        38.4540    7.8910    7.7730 O.3   333  GAL333     -0.2175
      9  O4        36.2210    8.2170    5.9490 O.3   333  GAL333     -0.2176
     10  O5        36.9760   10.8480    5.2630 O.3   333  GAL333     -0.3481
     11  O6        37.0750   10.4960    2.3660 O.3   333  GAL333     -0.2176
@<TRIPOS>BOND
     1    11     6    1
     2     6     5    1
     3     5    10    1
     4     5     4    1
     5    10     1    1
     6     4     9    1
     7     4     3    1
     8     1     2    1
     9     3     2    1
    10     3     8    1
    11     2     7    1
