@<TRIPOS>MOLECULE
1w8h_FUC_A_1.pdb
 10 10 0 0 0
SMALL
GASTEIGER

@<TRIPOS>ATOM
      1  C1         7.0030  -18.2690  -17.0180 C.3   331  FUC331      0.1776
      2  C2         7.4160  -17.0710  -16.1570 C.3   331  FUC331      0.2141
      3  C3         8.8400  -17.3140  -15.6780 C.3   331  FUC331      0.2172
      4  C4         9.7710  -17.5540  -16.8350 C.3   331  FUC331      0.2116
      5  C5         9.2460  -18.6700  -17.7510 C.3   331  FUC331      0.1483
      6  C6        10.0680  -18.8750  -19.0190 C.3   331  FUC331      0.0349
      7  O2         6.5810  -16.9310  -15.0030 O.3   331  FUC331     -0.2176
      8  O3         9.3130  -16.1970  -14.9280 O.3   331  FUC331     -0.2175
      9  O4         9.8400  -16.3020  -17.4850 O.3   331  FUC331     -0.2177
     10  O5         7.8880  -18.3980  -18.1350 O.3   331  FUC331     -0.3508
@<TRIPOS>BOND
     1     6     5    1
     2    10     5    1
     3    10     1    1
     4     5     4    1
     5     9     4    1
     6     1     2    1
     7     4     3    1
     8     2     3    1
     9     2     7    1
    10     3     8    1
