@<TRIPOS>MOLECULE
1w8l_1P3_A_1.pdb
 10 10 0 0 0
SMALL
GASTEIGER

@<TRIPOS>ATOM
      1  C2         1.4880   58.6170   54.3490 C.3   1166  1P31166     0.0018
      2  C3         2.4200   57.4550   54.5740 C.3   1166  1P31166     0.0199
      3  C20        3.8500   57.9340   54.4520 C.3   1166  1P31166     0.0933
      4  C4         2.1810   56.8540   55.9540 C.3   1166  1P31166     0.0035
      5  C5         3.1800   55.7490   56.2560 C.3   1166  1P31166     0.0216
      6  N1         4.7750   56.8440   54.7510 N.am  1166  1P31166    -0.2795
      7  C6         4.6170   56.2190   56.0630 C.3   1166  1P31166     0.0934
      8  C7         5.7530   57.0940   52.4950 C.3   1166  1P31166     0.0948
      9  C10        5.7070   56.4400   53.8730 C.2   1166  1P31166     0.2261
     10  O11        6.4980   55.5320   54.1010 O.2   1166  1P31166    -0.2749
@<TRIPOS>BOND
     1     8     9    1
     2     9    10    2
     3     9     6   am
     4     1     2    1
     5     3     2    1
     6     3     6    1
     7     2     4    1
     8     6     7    1
     9     4     5    1
    10     7     5    1
