@<TRIPOS>MOLECULE
1w8m_E1P_A_1.pdb
 13 13 0 0 0
SMALL
GASTEIGER

@<TRIPOS>ATOM
      1  C3         5.9000   58.8910   51.3070 C.3   1166  E1P1166     0.0939
      2  C2         6.6180   58.1530   50.1670 C.3   1166  E1P1166     0.0216
      3  C1         5.8080   56.9570   49.6620 C.3   1166  E1P1166     0.0035
      4  C5         5.4160   55.9920   50.7780 C.3   1166  E1P1166     0.0216
      5  C4         4.7370   56.7190   51.9240 C.3   1166  E1P1166     0.0939
      6  N1         5.5710   57.8750   52.3330 N.am  1166  E1P1166    -0.2708
      7  C6         6.0070   57.9710   53.5800 C.2   1166  E1P1166     0.3251
      8  O2         6.7210   58.8830   54.0070 O.2   1166  E1P1166    -0.2628
      9  C7         5.6060   56.8390   54.5000 C.2   1166  E1P1166     0.3957
     10  O3         6.3060   55.8410   54.5470 O.2   1166  E1P1166    -0.2397
     11  O4         4.4840   57.0390   55.2400 O.3   1166  E1P1166    -0.4423
     12  C8         4.1710   56.0540   56.2450 C.3   1166  E1P1166     0.2090
     13  C9         2.7710   56.2860   56.8140 C.3   1166  E1P1166     0.0513
@<TRIPOS>BOND
     1     3     2    1
     2     3     4    1
     3     2     1    1
     4     4     5    1
     5     1     6    1
     6     5     6    1
     7     6     7   am
     8     7     8    2
     9     7     9    1
    10     9    10    2
    11     9    11    1
    12    11    12    1
    13    12    13    1
