@<TRIPOS>MOLECULE
1w8n_GAL_A_1.pdb
 12 12 0 0 0
SMALL
GASTEIGER

@<TRIPOS>ATOM
      1  C1        12.5000   33.6550   -3.3660 C.3   1648  GAL1648     0.3024
      2  C2        12.3680   35.1160   -2.9170 C.3   1648  GAL1648     0.2434
      3  C3        10.9660   35.6710   -3.1550 C.3   1648  GAL1648     0.2199
      4  C4        10.4050   35.2760   -4.5180 C.3   1648  GAL1648     0.2144
      5  C5        10.6090   33.7990   -4.7390 C.3   1648  GAL1648     0.1836
      6  C6        10.0120   33.3840   -6.0780 C.3   1648  GAL1648     0.2142
      7  O1        13.8460   33.1920   -3.3050 O.3   1648  GAL1648    -0.1869
      8  O2        12.6470   35.2370   -1.5520 O.3   1648  GAL1648    -0.2148
      9  O3        10.9530   37.0880   -3.0980 O.3   1648  GAL1648    -0.2174
     10  O4        10.9750   36.0710   -5.5540 O.3   1648  GAL1648    -0.2176
     11  O5        12.0120   33.5680   -4.7070 O.3   1648  GAL1648    -0.3236
     12  O6        10.2080   32.0020   -6.2920 O.3   1648  GAL1648    -0.2176
@<TRIPOS>BOND
     1    12     6    1
     2     6     5    1
     3    10     4    1
     4     5    11    1
     5     5     4    1
     6    11     1    1
     7     4     3    1
     8     1     7    1
     9     1     2    1
    10     3     9    1
    11     3     2    1
    12     2     8    1
