@<TRIPOS>MOLECULE
1w8n_DAN_A_1.pdb
 20 20 0 0 0
SMALL
GASTEIGER

@<TRIPOS>ATOM
      1  C1        28.7410   37.5570   15.5260 C.2   1649  DAN1649     0.4208
      2  C2        28.4470   36.5870   16.6180 C.2   1649  DAN1649     0.2163
      3  C3        29.3610   36.3980   17.5710 C.2   1649  DAN1649     0.0514
      4  C4        29.0600   35.6110   18.8350 C.3   1649  DAN1649     0.1968
      5  C5        27.8060   34.7650   18.6040 C.3   1649  DAN1649     0.1523
      6  C6        26.7440   35.7070   17.9730 C.3   1649  DAN1649     0.2176
      7  C7        25.3770   35.0310   17.8100 C.3   1649  DAN1649     0.2258
      8  C8        24.4080   35.9200   17.0420 C.3   1649  DAN1649     0.2185
      9  C9        22.9830   35.3800   17.1140 C.3   1649  DAN1649     0.2175
     10  C10       27.2650   32.8620   20.0200 C.3   1649  DAN1649     0.2259
     11  C11       26.7070   32.4640   21.3570 C.3   1649  DAN1649     0.0555
     12  N5        27.3750   34.2770   19.8980 N.3   1649  DAN1649    -0.1840
     13  O1A       27.7820   37.9150   14.8160 O.co2 1649  DAN1649    -0.2371
     14  O1B       29.8770   37.9950   15.3570 O.co2 1649  DAN1649    -0.2371
     15  O4        30.1720   34.7980   19.2740 O.3   1649  DAN1649    -0.2166
     16  O6        27.1860   36.0820   16.6780 O.2   1649  DAN1649    -0.4687
     17  O7        25.5690   33.7860   17.1300 O.3   1649  DAN1649    -0.2164
     18  O8        24.4530   37.2020   17.6450 O.3   1649  DAN1649    -0.2174
     19  O9        22.1430   36.0280   16.1790 O.3   1649  DAN1649    -0.2175
     20  O10       26.6270   32.2950   18.9510 O.3   1649  DAN1649    -0.2036
@<TRIPOS>BOND
     1    13     1   ar
     2    14     1   ar
     3     1     2    1
     4    19     9    1
     5     2    16    1
     6     2     3    2
     7    16     6    1
     8     8     9    1
     9     8    18    1
    10     8     7    1
    11    17     7    1
    12     3     4    1
    13     7     6    1
    14     6     5    1
    15     5     4    1
    16     5    12    1
    17     4    15    1
    18    20    10    1
    19    12    10    1
    20    10    11    1
