@<TRIPOS>MOLECULE
1w8o_LBT_A_1.pdb
 23 24 0 0 0
SMALL
GASTEIGER

@<TRIPOS>ATOM
      1  C1        13.0280   34.4530   -2.2630 C.3   1648  LBT1648     0.2696
      2  C2        13.0450   35.9780   -2.0680 C.3   1648  LBT1648     0.2406
      3  C3        11.6240   36.5080   -2.2670 C.3   1648  LBT1648     0.2198
      4  C4        11.1310   36.0680   -3.6340 C.3   1648  LBT1648     0.2144
      5  C5        11.2350   34.5370   -3.7350 C.3   1648  LBT1648     0.1835
      6  C6        10.7660   34.0440   -5.0880 C.3   1648  LBT1648     0.2142
      7  O1        14.3190   33.9120   -2.0820 O.3   1648  LBT1648    -0.3245
      8  O2        13.4640   36.3190   -0.7740 O.3   1648  LBT1648    -0.2149
      9  O3        11.5140   37.9180   -2.0480 O.3   1648  LBT1648    -0.2174
     10  O4        11.9330   36.6840   -4.6120 O.3   1648  LBT1648    -0.2176
     11  O5        12.5870   34.1380   -3.5700 O.3   1648  LBT1648    -0.3256
     12  O6        10.7580   32.6360   -5.1150 O.3   1648  LBT1648    -0.2176
     13  C1'       15.8680   30.1200   -1.2680 C.2   1648  LBT1648     0.3505
     14  C2'       15.8590   30.5710   -2.7260 C.3   1648  LBT1648     0.2821
     15  C3'       15.6950   32.0820   -2.7760 C.3   1648  LBT1648     0.2238
     16  C4'       14.5010   32.5130   -1.9230 C.3   1648  LBT1648     0.1936
     17  C5'       14.8480   32.1590   -0.4680 C.3   1648  LBT1648     0.2312
     18  C6'       13.8270   32.6130    0.5720 C.3   1648  LBT1648     0.2280
     19  O1'       16.8260   29.1760   -0.8230 O.2   1648  LBT1648    -0.2472
     20  O2'       17.0780   30.2790   -3.3540 O.3   1648  LBT1648    -0.2082
     21  O3'       15.5790   32.4730   -4.1170 O.3   1648  LBT1648    -0.2170
     22  O5'       14.9910   30.7440   -0.3350 O.3   1648  LBT1648    -0.4451
     23  O6'       14.4000   33.4670    1.5370 O.3   1648  LBT1648    -0.2163
@<TRIPOS>BOND
     1    12     6    1
     2     6     5    1
     3    10     4    1
     4    21    15    1
     5     5     4    1
     6     5    11    1
     7     4     3    1
     8    11     1    1
     9    20    14    1
    10    15    14    1
    11    15    16    1
    12    14    13    1
    13     3     2    1
    14     3     9    1
    15     1     7    1
    16     1     2    1
    17     7    16    1
    18     2     8    1
    19    16    17    1
    20    13    19    2
    21    13    22    1
    22    17    22    1
    23    17    18    1
    24    18    23    1
