@<TRIPOS>MOLECULE
1w8s_FBP_A_1.pdb
 20 20 0 0 0
SMALL
GASTEIGER

@<TRIPOS>ATOM
      1  P1         3.7340  127.6480   20.0410 P.3   270  FBP270      0.5328
      2  O1P        4.2590  128.1910   21.3210 O.3   270  FBP270     -0.1145
      3  O2P        3.4890  128.7220   18.9720 O.2   270  FBP270     -0.2224
      4  O3P        4.6170  126.5780   19.4010 O.3   270  FBP270     -0.1145
      5  O1         2.3130  127.0370   20.3990 O.3   270  FBP270     -0.2648
      6  C1         1.6250  126.3830   19.3640 C.3   270  FBP270      0.2152
      7  C2         1.4760  124.8900   19.7470 C.3   270  FBP270      0.2780
      8  O2         0.7590  124.2870   18.6540 O.3   270  FBP270     -0.1897
      9  C3         0.7690  124.6610   21.0670 C.3   270  FBP270      0.2408
     10  O3        -0.6100  124.7300   20.8840 O.3   270  FBP270     -0.2149
     11  C4         1.2100  123.2410   21.4250 C.3   270  FBP270      0.2167
     12  O4         1.1820  122.9900   22.8080 O.3   270  FBP270     -0.2175
     13  C5         2.6430  123.2550   20.9320 C.3   270  FBP270      0.1808
     14  O5         2.7020  124.1840   19.8630 O.3   270  FBP270     -0.3255
     15  C6         3.0660  121.8770   20.4510 C.3   270  FBP270      0.1859
     16  O6         4.4540  121.9040   20.2360 O.3   270  FBP270     -0.2675
     17  P2         5.3700  120.7870   20.9590 P.3   270  FBP270      0.5327
     18  O4P        6.0000  121.3090   22.1730 O.3   270  FBP270     -0.1145
     19  O5P        4.5800  119.4930   21.3850 O.3   270  FBP270     -0.1145
     20  O6P        6.3580  120.4560   19.8490 O.2   270  FBP270     -0.2224
@<TRIPOS>BOND
     1     8     7    1
     2     3     1    2
     3     6     7    1
     4     6     5    1
     5     4     1    1
     6     7    14    1
     7     7     9    1
     8    20    17    2
     9    14    13    1
    10     1     5    1
    11     1     2    1
    12    16    15    1
    13    16    17    1
    14    15    13    1
    15    10     9    1
    16    13    11    1
    17    17    19    1
    18    17    18    1
    19     9    11    1
    20    11    12    1
