@<TRIPOS>MOLECULE
1w8t_BGC_A_1.pdb
 11 11 0 0 0
SMALL
GASTEIGER

@<TRIPOS>ATOM
      1  C2        20.6040   10.7690   -9.6000 C.3   1156  BGC1156     0.2141
      2  C3        19.2640   10.7710   -8.8750 C.3   1156  BGC1156     0.2173
      3  C4        18.2110   11.5460   -9.6340 C.3   1156  BGC1156     0.2142
      4  C5        18.1990   11.1700  -11.1120 C.3   1156  BGC1156     0.1810
      5  C6        17.3460   12.1060  -11.9320 C.3   1156  BGC1156     0.2141
      6  C1        20.3720   10.3520  -11.0480 C.3   1156  BGC1156     0.1777
      7  O2        21.4510    9.8340   -8.9760 O.3   1156  BGC1156    -0.2176
      8  O3        19.4390   11.2740   -7.5580 O.3   1156  BGC1156    -0.2175
      9  O4        16.9140   11.2400   -9.1590 O.3   1156  BGC1156    -0.2176
     10  O5        19.5070   11.2620  -11.6240 O.3   1156  BGC1156    -0.3481
     11  O6        17.8080   13.3980  -11.6830 O.3   1156  BGC1156    -0.2176
@<TRIPOS>BOND
     1     5    11    1
     2     5     4    1
     3    10     4    1
     4    10     6    1
     5     4     3    1
     6     6     1    1
     7     3     9    1
     8     3     2    1
     9     1     7    1
    10     1     2    1
    11     2     8    1
