@<TRIPOS>MOLECULE
1w8t_GLC_A_1.pdb
 12 12 0 0 0
SMALL
GASTEIGER

@<TRIPOS>ATOM
      1  C1        23.4930    9.2700  -15.0480 C.2   1155  GLC1155     0.3505
      2  C2        22.4660   10.3180  -15.3930 C.3   1155  GLC1155     0.2823
      3  C3        22.0940   10.9210  -14.0280 C.3   1155  GLC1155     0.2270
      4  C4        21.7020    9.8590  -12.9880 C.3   1155  GLC1155     0.2276
      5  C5        22.7810    8.7670  -12.9030 C.3   1155  GLC1155     0.2344
      6  C6        22.3960    7.6940  -11.8940 C.3   1155  GLC1155     0.2281
      7  O1        24.7740    9.7520  -14.7770 O.2   1155  GLC1155    -0.2472
      8  O2        22.9710   11.3360  -16.2790 O.3   1155  GLC1155    -0.2082
      9  O3        21.0550   11.8450  -14.2710 O.3   1155  GLC1155    -0.2169
     10  O4        21.6060   10.5450  -11.7450 O.3   1155  GLC1155    -0.2163
     11  O5        22.9900    8.2220  -14.2050 O.3   1155  GLC1155    -0.4450
     12  O6        21.3920    6.9490  -12.5340 O.3   1155  GLC1155    -0.2163
@<TRIPOS>BOND
     1     8     2    1
     2     2     1    1
     3     2     3    1
     4     1     7    2
     5     1    11    1
     6     9     3    1
     7    11     5    1
     8     3     4    1
     9     4     5    1
    10     4    10    1
    11     5     6    1
    12    12     6    1
