@<TRIPOS>MOLECULE
1w8u_BMA_A_1.pdb
 12 12 0 0 0
SMALL
GASTEIGER

@<TRIPOS>ATOM
      1  C1         7.9000   -5.2580    1.1450 C.3   1143  BMA1143     0.3024
      2  C2         8.2010   -5.1680    2.6380 C.3   1143  BMA1143     0.2434
      3  C3         9.5820   -5.7260    2.8940 C.3   1143  BMA1143     0.2199
      4  C4         9.7450   -7.1170    2.3360 C.3   1143  BMA1143     0.2144
      5  C5         9.4060   -7.0250    0.8440 C.3   1143  BMA1143     0.1836
      6  C6         9.6410   -8.3070    0.0670 C.3   1143  BMA1143     0.2142
      7  O1         6.5760   -4.8700    0.8860 O.3   1143  BMA1143    -0.1869
      8  O2         7.2450   -5.8440    3.4240 O.3   1143  BMA1143    -0.2148
      9  O3         9.8460   -5.7240    4.2700 O.3   1143  BMA1143    -0.2174
     10  O4        11.0890   -7.5230    2.4000 O.3   1143  BMA1143    -0.2176
     11  O5         8.0660   -6.5620    0.7080 O.3   1143  BMA1143    -0.3236
     12  O6         8.9080   -9.3340    0.6900 O.3   1143  BMA1143    -0.2176
@<TRIPOS>BOND
     1     6    12    1
     2     6     5    1
     3    11     5    1
     4    11     1    1
     5     5     4    1
     6     7     1    1
     7     1     2    1
     8     4    10    1
     9     4     3    1
    10     2     3    1
    11     2     8    1
    12     3     9    1
