@<TRIPOS>MOLECULE
1w8y_NCF_A_1.pdb
 21 22 0 0 0
SMALL
GASTEIGER

@<TRIPOS>ATOM
      1  S1        -1.4750   -0.3050   38.9860 S.3   520  NCF520     -0.1145
      2  C2        -3.2640   -0.3950   39.0300 C.3   520  NCF520      0.0660
      3  C3        -3.9290   -1.6880   39.3900 C.3   520  NCF520      0.0640
      4  C4        -3.1210   -2.9840   39.2340 C.2   520  NCF520      0.1349
      5  C4'       -3.7030   -4.3550   39.5670 C.2   520  NCF520      0.4007
      6  O4A       -4.8570   -4.5140   39.9800 O.co2 520  NCF520     -0.2392
      7  O4B       -2.9050   -5.2560   39.3790 O.co2 520  NCF520     -0.2392
      8  N5        -1.8080   -3.0240   38.7800 N.2   520  NCF520     -0.2568
      9  C6        -0.9230   -1.9430   38.3640 C.3   520  NCF520      0.1777
     10  C7        -0.7670   -1.9930   36.7380 C.3   520  NCF520      0.1920
     11  C8        -0.8720   -3.5050   36.3350 C.2   520  NCF520      0.2316
     12  O9        -1.7990   -3.9130   35.5940 O.2   520  NCF520     -0.2863
     13  N10       -1.9150   -1.3160   36.0490 N.am  520  NCF520     -0.1959
     14  C11       -1.8590    0.0860   35.6690 C.2   520  NCF520      0.2468
     15  O12       -0.8780    0.8400   35.8730 O.2   520  NCF520     -0.2729
     16  C13       -3.1300    0.6050   34.9960 C.3   520  NCF520      0.1196
     17  C14       -2.7950    1.2130   33.6660 C.ar  520  NCF520      0.0165
     18  C15       -2.7550    0.5500   32.3390 C.ar  520  NCF520      0.0032
     19  C16       -2.3910    1.5570   31.4180 C.ar  520  NCF520      0.0072
     20  C17       -2.1710    2.8160   31.8990 C.ar  520  NCF520      0.0351
     21  S19       -2.4160    2.8360   33.6050 S.2   520  NCF520     -0.0903
@<TRIPOS>BOND
     1    19    20   ar
     2    19    18   ar
     3    20    21   ar
     4    18    17   ar
     5    21    17   ar
     6    17    16    1
     7    16    14    1
     8    12    11    2
     9    14    15    2
    10    14    13   am
    11    13    10    1
    12    11    10    1
    13    10     9    1
    14     9     8    1
    15     9     1    1
    16     8     4    2
    17     1     2    1
    18     2     3    1
    19     4     3    1
    20     4     5    1
    21     7     5   ar
    22     5     6   ar
