@<TRIPOS>MOLECULE
1w92_HEM_A_1.pdb
 43 50 0 0 0
SMALL
GASTEIGER

@<TRIPOS>ATOM
      1 FE         16.5480   53.5450   36.1430 Fe    1149  HEM1149     0.0000
      2  CHA       18.2190   56.5050   35.9850 C.2   1149  HEM1149     0.0000
      3  CHB       13.6260   55.1040   35.2400 C.2   1149  HEM1149     0.0000
      4  CHC       14.8510   50.8140   37.1300 C.2   1149  HEM1149     0.0000
      5  CHD       19.4950   51.8520   36.3070 C.2   1149  HEM1149     0.0000
      6  NA        16.0400   55.4210   35.6850 N.ar  1149  HEM1149     0.0000
      7  C1A       16.8720   56.5220   35.6850 C.ar  1149  HEM1149     0.0000
      8  C2A       16.0880   57.6930   35.3420 C.ar  1149  HEM1149     0.0000
      9  C3A       14.8270   57.3050   35.1430 C.ar  1149  HEM1149     0.0000
     10  C4A       14.7630   55.8750   35.3670 C.ar  1149  HEM1149     0.0000
     11  CMA       13.5760   58.1190   34.7490 C.3   1149  HEM1149     0.0000
     12  CAA       16.6560   59.1320   35.2110 C.3   1149  HEM1149     0.0000
     13  CBA       16.9420   59.5690   33.7770 C.3   1149  HEM1149     0.0000
     14  CGA       17.7860   60.7910   33.5470 C.2   1149  HEM1149     0.0000
     15  O1A       17.4200   61.8280   34.1510 O.co2 1149  HEM1149     0.0000
     16  O2A       18.7560   60.6830   32.7430 O.co2 1149  HEM1149     0.0000
     17  NB        14.6050   53.0620   36.1600 N.2   1149  HEM1149     0.0000
     18  C1B       13.5280   53.8360   35.7660 C.2   1149  HEM1149     0.0000
     19  C2B       12.3240   53.0710   35.9800 C.2   1149  HEM1149     0.0000
     20  C3B       12.6720   51.8940   36.4910 C.2   1149  HEM1149     0.0000
     21  C4B       14.1140   51.8650   36.6280 C.2   1149  HEM1149     0.0000
     22  CMB       10.9120   53.5960   35.6370 C.3   1149  HEM1149     0.0000
     23  CAB       11.7730   50.7240   36.9570 C.3   1149  HEM1149     0.0000
     24  CBB       11.5540   50.7270   38.2930 C.3   1149  HEM1149     0.0000
     25  NC        17.0730   51.6870   36.6320 N.ar  1149  HEM1149     0.0000
     26  C1C       16.2170   50.6640   36.9840 C.ar  1149  HEM1149     0.0000
     27  C2C       16.9810   49.4580   37.1960 C.ar  1149  HEM1149     0.0000
     28  C3C       18.2700   49.7480   36.9780 C.ar  1149  HEM1149     0.0000
     29  C4C       18.3530   51.1480   36.6300 C.ar  1149  HEM1149     0.0000
     30  CMC       16.3420   48.1210   37.6070 C.3   1149  HEM1149     0.0000
     31  CAC       19.5280   48.8570   37.0390 C.2   1149  HEM1149     0.0000
     32  CBC       19.8760   48.3580   38.2350 C.2   1149  HEM1149     0.0000
     33  ND        18.4880   54.0700   36.1300 N.2   1149  HEM1149     0.0000
     34  C1D       19.5800   53.2260   36.2520 C.2   1149  HEM1149     0.0000
     35  C2D       20.7800   54.0300   36.3040 C.2   1149  HEM1149     0.0000
     36  C3D       20.4220   55.3020   36.2040 C.2   1149  HEM1149     0.0000
     37  C4D       18.9850   55.3590   36.0930 C.2   1149  HEM1149     0.0000
     38  CMD       22.1970   53.4210   36.4480 C.3   1149  HEM1149     0.0000
     39  CAD       21.3130   56.5860   36.2550 C.3   1149  HEM1149     0.0000
     40  CBD       21.3040   57.1770   37.6750 C.3   1149  HEM1149     0.0000
     41  CGD       22.0590   58.4130   38.0280 C.2   1149  HEM1149     0.0000
     42  O1D       21.6680   59.5080   37.5380 O.co2 1149  HEM1149     0.0000
     43  O2D       23.0310   58.3630   38.8380 O.co2 1149  HEM1149     0.0000
@<TRIPOS>BOND
     1    16    14   ar
     2    14    13    1
     3    14    15   ar
     4    13    12    1
     5    11     9    1
     6     9     8   ar
     7     9    10   ar
     8    12     8    1
     9     3    10    2
    10     3    18    1
    11     8     7   ar
    12    10     6   ar
    13    22    19    1
    14     6     7   ar
    15     6     1    1
    16     7     2    2
    17    18    19    1
    18    18    17    2
    19    19    20    2
    20     2    37    1
    21    37    33    2
    22    37    36    1
    23    33     1    1
    24    33    34    1
    25     1    17    1
    26     1    25    1
    27    17    21    1
    28    36    39    1
    29    36    35    2
    30    34    35    1
    31    34     5    2
    32    39    40    1
    33    35    38    1
    34     5    29    1
    35    20    21    1
    36    20    23    1
    37    21     4    2
    38    29    25   ar
    39    29    28   ar
    40    25    26   ar
    41    23    24    1
    42    28    31    1
    43    28    27   ar
    44    26     4    1
    45    26    27   ar
    46    31    32    2
    47    27    30    1
    48    42    41   ar
    49    40    41    1
    50    41    43   ar
