@<TRIPOS>MOLECULE
1w96_S1A_A_1.pdb
 37 39 0 0 0
SMALL
GASTEIGER

@<TRIPOS>ATOM
      1  C1        12.4590   27.2090  115.5470 C.2   1567  S1A1567     0.3216
      2  C2        13.5850   27.6850  114.6350 C.3   1567  S1A1567     0.1556
      3  C3        14.7140   26.6270  114.6790 C.3   1567  S1A1567     0.2564
      4  C4        15.8690   27.0470  113.7130 C.3   1567  S1A1567     0.1998
      5  C5        16.9020   25.8850  113.4930 C.3   1567  S1A1567     0.1862
      6  C6        16.1840   24.5490  113.2420 C.3   1567  S1A1567     0.0607
      7  C7        15.1240   24.3230  114.3330 C.3   1567  S1A1567     0.1242
      8  C8        14.3960   22.9840  114.1090 C.3   1567  S1A1567     0.0491
      9  C9        13.2960   22.8050  115.1880 C.2   1567  S1A1567    -0.0261
     10  C10       13.5110   21.9970  116.2990 C.2   1567  S1A1567     0.0008
     11  C11       12.4390   21.9120  117.4080 C.3   1567  S1A1567     0.1639
     12  C12       13.0680   22.2160  118.7790 C.3   1567  S1A1567     0.1465
     13  C13       13.5800   23.6610  118.8340 C.3   1567  S1A1567     0.0324
     14  C14       12.4860   24.7040  118.6590 C.3   1567  S1A1567     0.0027
     15  C15       12.9670   26.0880  119.0190 C.3   1567  S1A1567     0.0042
     16  C16       11.8250   27.0920  118.9590 C.3   1567  S1A1567     0.0483
     17  C17       11.3310   27.4030  117.5440 C.3   1567  S1A1567     0.1911
     18  C19       14.0950   29.0430  115.0940 C.3   1567  S1A1567     0.0170
     19  C20       16.0770   28.5490  111.9000 C.3   1567  S1A1567     0.1743
     20  C21       15.5460   24.5410  111.8500 C.3   1567  S1A1567     0.0052
     21  C22       15.3650   21.8070  114.1170 C.3   1567  S1A1567     0.0072
     22  C23       10.8780   20.4620  116.3770 C.3   1567  S1A1567     0.1746
     23  C24       14.3920   21.1940  120.4480 C.3   1567  S1A1567     0.1741
     24  C25       10.3240   28.5630  117.6260 C.ar  1567  S1A1567     0.0173
     25  C26       10.7930   29.8720  117.8420 C.ar  1567  S1A1567    -0.0008
     26  C27        9.9010   30.8970  118.1430 C.ar  1567  S1A1567    -0.0002
     27  C28        8.5380   30.6230  118.2310 C.ar  1567  S1A1567    -0.0000
     28  C29        8.0690   29.3230  118.0180 C.ar  1567  S1A1567    -0.0002
     29  C30        8.9630   28.2940  117.7180 C.ar  1567  S1A1567    -0.0008
     30  O1        11.5750   26.3450  115.3440 O.2   1567  S1A1567    -0.2499
     31  O3        15.2160   26.5260  116.0160 O.3   1567  S1A1567    -0.1920
     32  O4        15.3150   27.4450  112.4540 O.3   1567  S1A1567    -0.3459
     33  O5        17.7640   25.7600  114.6300 O.3   1567  S1A1567    -0.2203
     34  O7        14.1570   25.3740  114.2690 O.3   1567  S1A1567    -0.3319
     35  O11       11.8630   20.6000  117.4350 O.3   1567  S1A1567    -0.3467
     36  O12       14.1420   21.3000  119.0250 O.3   1567  S1A1567    -0.3507
     37  O18       12.4480   27.7970  116.7310 O.3   1567  S1A1567    -0.4476
@<TRIPOS>BOND
     1    20     6    1
     2    19    32    1
     3    32     4    1
     4     6     5    1
     5     6     7    1
     6     5     4    1
     7     5    33    1
     8     4     3    1
     9     8    21    1
    10     8     7    1
    11     8     9    1
    12    34     7    1
    13    34     3    1
    14     2     3    1
    15     2    18    1
    16     2     1    1
    17     3    31    1
    18     9    10    2
    19    30     1    2
    20     1    37    1
    21    10    11    1
    22    22    35    1
    23    37    17    1
    24    11    35    1
    25    11    12    1
    26    17    24    1
    27    17    16    1
    28    24    29   ar
    29    24    25   ar
    30    29    28   ar
    31    25    26   ar
    32    28    27   ar
    33    26    27   ar
    34    14    13    1
    35    14    15    1
    36    12    13    1
    37    12    36    1
    38    16    15    1
    39    36    23    1
