@<TRIPOS>MOLECULE
1w9b_CGT_M_1.pdb
 26 27 0 0 0
SMALL
GASTEIGER

@<TRIPOS>ATOM
      1  C1        48.0120  120.5090   50.7920 C.3   999  CGT999      0.0863
      2  S1        48.1100  119.0520   49.7220 S.3   999  CGT999     -0.0939
      3  C2        47.6570  120.0770   52.2090 C.3   999  CGT999      0.1948
      4  O2        46.4330  119.3610   52.1920 O.3   999  CGT999     -0.2194
      5  C3        47.5110  121.3020   53.1020 C.3   999  CGT999      0.2131
      6  O3        47.2940  120.8890   54.4440 O.3   999  CGT999     -0.2176
      7  C4        48.7610  122.1760   53.0390 C.3   999  CGT999      0.1872
      8  O4        48.5040  123.3860   53.7330 O.3   999  CGT999     -0.2202
      9  C5        49.1500  122.4980   51.5920 C.3   999  CGT999      0.0670
     10  C7        49.3250  121.2230   50.8210 C.3   999  CGT999      0.0191
     11  C6        50.4350  123.2980   51.5040 C.3   999  CGT999      0.1847
     12  O6        51.4240  122.7800   52.3800 O.3   999  CGT999     -0.2203
     13  CB        45.6850  120.3200   48.7390 C.3   999  CGT999      0.0819
     14  CG        46.3380  121.5840   48.2500 C.ar  999  CGT999     -0.0156
     15  CD1       46.1500  122.7840   48.9310 C.ar  999  CGT999     -0.0039
     16  CD2       47.1350  121.5800   47.1090 C.ar  999  CGT999     -0.0039
     17  CE1       46.7440  123.9580   48.4820 C.ar  999  CGT999     -0.0003
     18  CE2       47.7340  122.7500   46.6510 C.ar  999  CGT999     -0.0003
     19  CZ        47.5390  123.9400   47.3380 C.ar  999  CGT999     -0.0000
     20  C13       46.6810  119.1810   48.7360 C.2   999  CGT999      0.1293
     21  N17       46.3610  118.2690   47.9000 N.2   999  CGT999     -0.0512
     22  O18       47.3090  117.1940   47.9080 O.2   999  CGT999     -0.2479
     23  S19       47.4170  116.5910   46.5440 S.3   999  CGT999      0.0672
     24  O20       48.1760  117.5810   45.7530 O.2   999  CGT999     -0.3344
     25  O21       48.1340  115.3260   46.7520 O.3   999  CGT999     -0.2572
     26  O22       46.0190  116.4130   46.0930 O.2   999  CGT999     -0.3344
@<TRIPOS>BOND
     1    24    23    2
     2    26    23    2
     3    23    25    1
     4    23    22    1
     5    18    16   ar
     6    18    19   ar
     7    16    14   ar
     8    19    17   ar
     9    21    22    1
    10    21    20    2
    11    14    13    1
    12    14    15   ar
    13    17    15   ar
    14    20    13    1
    15    20     2    1
    16     2     1    1
    17     1    10    1
    18     1     3    1
    19    10     9    1
    20    11     9    1
    21    11    12    1
    22     9     7    1
    23     4     3    1
    24     3     5    1
    25     7     5    1
    26     7     8    1
    27     5     6    1
