@<TRIPOS>MOLECULE
1w9b_MAN_M_1.pdb
 11 11 0 0 0
SMALL
GASTEIGER

@<TRIPOS>ATOM
      1  C1        41.1540   88.8240   33.3090 C.3   956  MAN956      0.1777
      2  C2        42.6290   88.5010   33.0860 C.3   956  MAN956      0.2141
      3  C3        43.4340   88.9050   34.3170 C.3   956  MAN956      0.2173
      4  C4        43.2080   90.3830   34.6110 C.3   956  MAN956      0.2142
      5  C5        41.7120   90.6660   34.7610 C.3   956  MAN956      0.1810
      6  C6        41.4280   92.1500   34.9050 C.3   956  MAN956      0.2141
      7  O2        43.1050   89.2060   31.9490 O.3   956  MAN956     -0.2176
      8  O3        44.8160   88.6650   34.0900 O.3   956  MAN956     -0.2175
      9  O4        43.8870   90.7430   35.8050 O.3   956  MAN956     -0.2176
     10  O5        40.9960   90.2090   33.5950 O.3   956  MAN956     -0.3481
     11  O6        40.1820   92.3760   35.5480 O.3   956  MAN956     -0.2176
@<TRIPOS>BOND
     1     7     2    1
     2     2     1    1
     3     2     3    1
     4     1    10    1
     5    10     5    1
     6     8     3    1
     7     3     4    1
     8     4     5    1
     9     4     9    1
    10     5     6    1
    11     6    11    1
