@<TRIPOS>MOLECULE
1w9d_MAN_M_1.pdb
 11 11 0 0 0
SMALL
GASTEIGER

@<TRIPOS>ATOM
      1  C1        41.1540   88.8220   33.2950 C.3   956  MAN956      0.1777
      2  C2        42.6310   88.5050   33.0740 C.3   956  MAN956      0.2141
      3  C3        43.4330   88.9050   34.3080 C.3   956  MAN956      0.2173
      4  C4        43.1990   90.3800   34.6120 C.3   956  MAN956      0.2142
      5  C5        41.7030   90.6560   34.7640 C.3   956  MAN956      0.1810
      6  C6        41.4160   92.1380   34.9170 C.3   956  MAN956      0.2141
      7  O2        43.1070   89.2170   31.9400 O.3   956  MAN956     -0.2176
      8  O3        44.8160   88.6720   34.0810 O.3   956  MAN956     -0.2175
      9  O4        43.8760   90.7360   35.8090 O.3   956  MAN956     -0.2176
     10  O5        40.9900   90.2050   33.5930 O.3   956  MAN956     -0.3481
     11  O6        40.1530   92.3600   35.5250 O.3   956  MAN956     -0.2176
@<TRIPOS>BOND
     1     7     2    1
     2     2     1    1
     3     2     3    1
     4     1    10    1
     5    10     5    1
     6     8     3    1
     7     3     4    1
     8     4     5    1
     9     4     9    1
    10     5     6    1
    11     6    11    1
