@<TRIPOS>MOLECULE
1w9d_SEH_M_1.pdb
 17 17 0 0 0
SMALL
GASTEIGER

@<TRIPOS>ATOM
      1  C1        47.8770  120.4970   50.9120 C.3   999  SEH999      0.0635
      2  S1        47.9680  119.0900   49.7700 S.3   999  SEH999     -0.0957
      3  C2        47.9310  119.9730   52.3450 C.3   999  SEH999      0.0129
      4  CB        45.5810  120.4040   48.7800 C.3   999  SEH999      0.0819
      5  CG        46.2860  121.6270   48.2710 C.ar  999  SEH999     -0.0156
      6  CD1       46.1320  122.8430   48.9240 C.ar  999  SEH999     -0.0039
      7  CD2       47.0950  121.5710   47.1380 C.ar  999  SEH999     -0.0039
      8  CE1       46.7650  123.9860   48.4600 C.ar  999  SEH999     -0.0003
      9  CE2       47.7340  122.7100   46.6640 C.ar  999  SEH999     -0.0003
     10  CZ        47.5700  123.9210   47.3270 C.ar  999  SEH999     -0.0000
     11  C13       46.5340  119.2380   48.7960 C.2   999  SEH999      0.1293
     12  N17       46.1730  118.3170   47.9870 N.2   999  SEH999     -0.0512
     13  O18       47.0850  117.2180   48.0140 O.2   999  SEH999     -0.2479
     14  S19       47.3040  116.6890   46.6370 S.3   999  SEH999      0.0672
     15  O20       48.0740  117.7420   45.9470 O.2   999  SEH999     -0.3344
     16  O21       48.0570  115.4380   46.8330 O.3   999  SEH999     -0.2572
     17  O22       45.9500  116.4840   46.0850 O.2   999  SEH999     -0.3344
@<TRIPOS>BOND
     1    15    14    2
     2    17    14    2
     3    14    16    1
     4    14    13    1
     5     9     7   ar
     6     9    10   ar
     7     7     5   ar
     8    10     8   ar
     9    12    13    1
    10    12    11    2
    11     5     4    1
    12     5     6   ar
    13     8     6   ar
    14     4    11    1
    15    11     2    1
    16     2     1    1
    17     1     3    1
