@<TRIPOS>MOLECULE
1w9e_III_R_1.pdb
 44 46 0 0 0
SMALL
GASTEIGER

@<TRIPOS>ATOM
      1  N          7.2450   34.5450   52.5770 N.3     3  GLU3       -0.1231
      2  CA         7.6570   35.9800   52.7680 C.3     3  GLU3        0.1699
      3  C          9.1270   36.1230   53.1830 C.2     3  GLU3        0.2592
      4  O          9.6880   37.2320   53.1960 O.2     3  GLU3       -0.2718
      5  CB         6.7360   36.6730   53.7910 C.3     3  GLU3        0.0402
      6  CG         6.0350   37.9300   53.2880 C.3     3  GLU3        0.1161
      7  CD         5.3260   37.7270   51.9530 C.2     3  GLU3        0.3649
      8  OE1        6.0000   37.7960   50.8950 O.co2   3  GLU3       -0.2457
      9  OE2        4.0930   37.4960   51.9550 O.co2   3  GLU3       -0.2457
     10  N          9.7610   35.0030   53.4910 N.am    4  PHE4       -0.1962
     11  CA        11.1680   35.0150   53.8350 C.3     4  PHE4        0.1771
     12  C         12.0540   34.6490   52.6530 C.2     4  PHE4        0.2620
     13  O         13.2480   34.8610   52.7140 O.2     4  PHE4       -0.2715
     14  CB        11.4040   34.1350   55.0570 C.3     4  PHE4        0.0574
     15  CG        10.6260   34.6010   56.2480 C.ar    4  PHE4       -0.0200
     16  CD1       10.8900   35.8470   56.8110 C.ar    4  PHE4       -0.0042
     17  CD2        9.6020   33.8280   56.7840 C.ar    4  PHE4       -0.0042
     18  CE1       10.1690   36.3000   57.8950 C.ar    4  PHE4       -0.0003
     19  CE2        8.8790   34.2830   57.8760 C.ar    4  PHE4       -0.0003
     20  CZ         9.1670   35.5190   58.4330 C.ar    4  PHE4       -0.0000
     21  N         11.4780   34.1400   51.5710 N.am    5  TYR5       -0.1960
     22  CA        12.2530   33.9420   50.3570 C.3     5  TYR5        0.1771
     23  C         11.9550   35.0660   49.3920 C.2     5  TYR5        0.2620
     24  O         10.8810   35.6670   49.4230 O.2     5  TYR5       -0.2715
     25  CB        11.9470   32.5770   49.7410 C.3     5  TYR5        0.0574
     26  CG        12.2880   31.4590   50.6880 C.ar    5  TYR5       -0.0198
     27  CD1       13.6010   31.0370   50.8480 C.ar    5  TYR5       -0.0009
     28  CD2       11.2980   30.8530   51.4610 C.ar    5  TYR5       -0.0009
     29  CE1       13.9170   30.0090   51.7350 C.ar    5  TYR5        0.0417
     30  CE2       11.5990   29.8300   52.3470 C.ar    5  TYR5        0.0417
     31  CZ        12.9100   29.4140   52.4820 C.ar    5  TYR5        0.1957
     32  OH        13.2160   28.4010   53.3600 O.3     5  TYR5       -0.2866
     33  N         12.9260   35.3560   48.5310 N.am    6  PHE6       -0.1938
     34  CA        12.7590   36.3670   47.4990 C.3     6  PHE6        0.2021
     35  C         13.0050   35.7970   46.1190 C.2     6  PHE6        0.3845
     36  O         13.1550   34.5720   46.0490 O.co2   6  PHE6       -0.2437
     37  CB        13.6750   37.5470   47.8360 C.3     6  PHE6        0.0596
     38  CG        13.2040   38.2930   49.0280 C.ar    6  PHE6       -0.0199
     39  CD1       12.3950   39.4380   48.8730 C.ar    6  PHE6       -0.0042
     40  CD2       13.4880   37.8340   50.2970 C.ar    6  PHE6       -0.0042
     41  CE1       11.9010   40.1020   49.9580 C.ar    6  PHE6       -0.0003
     42  CE2       13.0010   38.5200   51.4180 C.ar    6  PHE6       -0.0003
     43  CZ        12.2110   39.6580   51.2420 C.ar    6  PHE6       -0.0000
     44  OXT       12.9930   36.5840   45.1710 O.co2   6  PHE6       -0.2437
@<TRIPOS>BOND
     1    44    35   ar
     2    36    35   ar
     3    35    34    1
     4    34    37    1
     5    34    33    1
     6    37    38    1
     7    33    23   am
     8    39    38   ar
     9    39    41   ar
    10    38    40   ar
    11    23    24    2
    12    23    22    1
    13    25    22    1
    14    25    26    1
    15    41    43   ar
    16    40    42   ar
    17    22    21    1
    18    26    27   ar
    19    26    28   ar
    20    27    29   ar
    21     8     7   ar
    22    43    42   ar
    23    28    30   ar
    24    21    12   am
    25    29    31   ar
    26     7     9   ar
    27     7     6    1
    28    30    31   ar
    29    31    32    1
    30     1     2    1
    31    12    13    2
    32    12    11    1
    33     2     3    1
    34     2     5    1
    35     3     4    2
    36     3    10   am
    37     6     5    1
    38    10    11    1
    39    11    14    1
    40    14    15    1
    41    15    17   ar
    42    15    16   ar
    43    17    19   ar
    44    16    18   ar
    45    19    20   ar
    46    18    20   ar
