@<TRIPOS>MOLECULE
1w9i_ADP_A_1.pdb
 27 29 0 0 0
SMALL
GASTEIGER

@<TRIPOS>ATOM
      1  PB        18.9120   58.2680    5.4300 P.3   1756  ADP1756     0.5373
      2  O1B       19.1060   58.8440    3.9790 O.2   1756  ADP1756    -0.2221
      3  O2B       19.2860   59.2640    6.5790 O.3   1756  ADP1756    -0.1143
      4  O3B       19.3150   56.7720    5.6260 O.3   1756  ADP1756    -0.1143
      5  PA        16.2320   58.9770    6.4730 P.3   1756  ADP1756     0.2231
      6  O1A       16.4690   58.5240    7.9600 O.3   1756  ADP1756    -0.4370
      7  O2A       16.2350   60.5400    6.1530 O.2   1756  ADP1756    -0.5169
      8  O3A       17.2760   58.1910    5.4660 O.3   1756  ADP1756    -0.2261
      9  O5'       14.8020   58.3450    6.0440 O.3   1756  ADP1756    -0.3111
     10  C5'       14.1770   58.7380    4.8250 C.3   1756  ADP1756     0.1813
     11  C4'       12.6730   58.8540    5.0240 C.3   1756  ADP1756     0.1821
     12  O4'       12.1210   57.5570    5.2920 O.3   1756  ADP1756    -0.3135
     13  C3'       12.2330   59.7190    6.1950 C.3   1756  ADP1756     0.2184
     14  O3'       12.2260   61.1140    5.8780 O.3   1756  ADP1756    -0.2174
     15  C2'       10.8720   59.1220    6.4880 C.3   1756  ADP1756     0.2570
     16  O2'        9.8920   59.6610    5.5990 O.3   1756  ADP1756    -0.2130
     17  C1'       11.0760   57.6250    6.2650 C.3   1756  ADP1756     0.3186
     18  N9        11.5140   57.0670    7.5580 N.pl3 1756  ADP1756    -0.1439
     19  C8        12.7710   56.3220    7.7340 C.3   1756  ADP1756     0.3377
     20  N7        12.6080   55.6690    9.0090 N.2   1756  ADP1756    -0.2095
     21  C5        11.2710   55.8030    9.3970 C.2   1756  ADP1756     0.2526
     22  C6        10.6290   55.2160   10.4700 C.2   1756  ADP1756     0.4393
     23  N6        11.3010   54.3830   11.3780 N.pl3 1756  ADP1756     0.2180
     24  N1         9.3280   55.5050   10.6180 N.2   1756  ADP1756     0.0021
     25  C2         8.6740   56.3070    9.7420 C.3   1756  ADP1756     0.5254
     26  N3         9.2950   56.8680    8.6800 N.2   1756  ADP1756    -0.0055
     27  C4        10.5970   56.6090    8.5180 C.2   1756  ADP1756     0.3518
@<TRIPOS>BOND
     1     2     1    2
     2    10    11    1
     3    10     9    1
     4    11    12    1
     5    11    13    1
     6    12    17    1
     7     1     8    1
     8     1     4    1
     9     1     3    1
    10     8     5    1
    11    16    15    1
    12    14    13    1
    13     9     5    1
    14     7     5    2
    15    13    15    1
    16    17    15    1
    17    17    18    1
    18     5     6    1
    19    18    19    1
    20    18    27    1
    21    19    20    1
    22    27    26    2
    23    27    21    1
    24    26    25    1
    25    20    21    2
    26    21    22    1
    27    25    24    1
    28    22    24    2
    29    22    23    1
