@<TRIPOS>MOLECULE
1w9j_ADP_A_1.pdb
 27 29 0 0 0
SMALL
GASTEIGER

@<TRIPOS>ATOM
      1  PB        24.0230   35.1610   51.3800 P.3   1757  ADP1757     0.5373
      2  O1B       23.8180   36.5980   51.9850 O.3   1757  ADP1757    -0.1143
      3  O2B       22.8400   34.1720   51.0610 O.3   1757  ADP1757    -0.1143
      4  O3B       25.2700   34.9920   50.4350 O.2   1757  ADP1757    -0.2221
      5  PA        23.9320   33.2950   53.7220 P.3   1757  ADP1757     0.2231
      6  O1A       22.4950   33.7480   54.2250 O.3   1757  ADP1757    -0.4370
      7  O2A       24.0460   31.8530   53.0510 O.2   1757  ADP1757    -0.5169
      8  O3A       24.5950   34.3650   52.6770 O.3   1757  ADP1757    -0.2261
      9  O5'       24.8690   33.2440   55.0350 O.3   1757  ADP1757    -0.3111
     10  C5'       26.1150   32.5550   55.0360 C.3   1757  ADP1757     0.1813
     11  C4'       26.3760   31.8520   56.3600 C.3   1757  ADP1757     0.1821
     12  O4'       26.3880   32.7370   57.5020 O.3   1757  ADP1757    -0.3135
     13  C3'       25.2920   30.8290   56.6720 C.3   1757  ADP1757     0.2184
     14  O3'       25.4990   29.6310   55.9470 O.3   1757  ADP1757    -0.2174
     15  C2'       25.4620   30.7020   58.1790 C.3   1757  ADP1757     0.2570
     16  O2'       26.5680   29.8630   58.3910 O.3   1757  ADP1757    -0.2130
     17  C1'       25.7190   32.1480   58.6250 C.3   1757  ADP1757     0.3186
     18  N9        24.3690   32.6870   58.8540 N.pl3 1757  ADP1757    -0.1439
     19  C8        23.9070   33.9620   58.2450 C.3   1757  ADP1757     0.3377
     20  N7        22.8040   34.3920   59.0730 N.2   1757  ADP1757    -0.2095
     21  C5        22.7700   33.5550   60.1730 C.2   1757  ADP1757     0.2526
     22  C6        21.9460   33.6260   61.2660 C.2   1757  ADP1757     0.4393
     23  N6        20.9690   34.6190   61.4100 N.pl3 1757  ADP1757     0.2180
     24  N1        22.1060   32.6740   62.1980 N.2   1757  ADP1757     0.0021
     25  C2        23.0480   31.7040   62.1120 C.3   1757  ADP1757     0.5254
     26  N3        23.8570   31.6470   61.0440 N.2   1757  ADP1757    -0.0055
     27  C4        23.7260   32.5890   60.0890 C.2   1757  ADP1757     0.3518
@<TRIPOS>BOND
     1     4     1    2
     2     3     1    1
     3     1     2    1
     4     1     8    1
     5     8     5    1
     6     7     5    2
     7     5     6    1
     8     5     9    1
     9     9    10    1
    10    10    11    1
    11    14    13    1
    12    11    13    1
    13    11    12    1
    14    13    15    1
    15    12    17    1
    16    15    16    1
    17    15    17    1
    18    19    18    1
    19    19    20    1
    20    17    18    1
    21    18    27    1
    22    20    21    2
    23    27    21    1
    24    27    26    2
    25    21    22    1
    26    26    25    1
    27    22    23    1
    28    22    24    2
    29    25    24    1
