@<TRIPOS>MOLECULE
1w9k_ADP_A_1.pdb
 27 29 0 0 0
SMALL
GASTEIGER

@<TRIPOS>ATOM
      1  PB        34.0220  146.1510   21.4800 P.3   1756  ADP1756     0.5373
      2  O1B       33.7180  146.7750   22.9340 O.3   1756  ADP1756    -0.1143
      3  O2B       33.7600  147.0740   20.2530 O.2   1756  ADP1756    -0.2221
      4  O3B       33.7200  144.6030   21.2550 O.3   1756  ADP1756    -0.1143
      5  PA        36.7040  146.9330   20.4160 P.3   1756  ADP1756     0.2231
      6  O1A       36.4800  146.5410   18.9020 O.2   1756  ADP1756    -0.5169
      7  O2A       36.6750  148.4830   20.7730 O.3   1756  ADP1756    -0.4370
      8  O3A       35.6720  146.1000   21.4030 O.3   1756  ADP1756    -0.2261
      9  O5'       38.1360  146.3100   20.8360 O.3   1756  ADP1756    -0.3111
     10  C5'       38.7590  146.7490   22.0410 C.3   1756  ADP1756     0.1813
     11  C4'       40.2740  146.8610   21.8710 C.3   1756  ADP1756     0.1821
     12  O4'       40.8560  145.5850   21.6480 O.3   1756  ADP1756    -0.3135
     13  C3'       40.7360  147.6680   20.6780 C.3   1756  ADP1756     0.2184
     14  O3'       40.7200  149.0510   20.9740 O.3   1756  ADP1756    -0.2174
     15  C2'       42.1210  147.0890   20.4270 C.3   1756  ADP1756     0.2570
     16  O2'       43.0850  147.6280   21.3280 O.3   1756  ADP1756    -0.2130
     17  C1'       41.8620  145.6220   20.6460 C.3   1756  ADP1756     0.3186
     18  N9        41.3600  145.0710   19.3720 N.pl3 1756  ADP1756    -0.1439
     19  C8        40.1280  144.2660   19.2700 C.3   1756  ADP1756     0.3377
     20  N7        40.2640  143.5890   18.0000 N.2   1756  ADP1756    -0.2095
     21  C5        41.5790  143.7400   17.5890 C.2   1756  ADP1756     0.2526
     22  C6        42.2450  143.1700   16.5200 C.2   1756  ADP1756     0.4393
     23  N6        41.6610  142.2910   15.6290 N.pl3 1756  ADP1756     0.2180
     24  N1        43.5270  143.4800   16.3670 N.2   1756  ADP1756     0.0021
     25  C2        44.1600  144.3160   17.2130 C.3   1756  ADP1756     0.5254
     26  N3        43.5270  144.8740   18.2540 N.2   1756  ADP1756    -0.0055
     27  C4        42.2440  144.5590   18.4430 C.2   1756  ADP1756     0.3518
@<TRIPOS>BOND
     1    23    22    1
     2    24    22    2
     3    24    25    1
     4    22    21    1
     5    25    26    1
     6    21    20    2
     7    21    27    1
     8    20    19    1
     9    26    27    2
    10    27    18    1
    11     6     5    2
    12    19    18    1
    13    18    17    1
    14     3     1    2
    15     5     7    1
    16     5     9    1
    17     5     8    1
    18    15    17    1
    19    15    13    1
    20    15    16    1
    21    17    12    1
    22    13    14    1
    23    13    11    1
    24     9    10    1
    25     4     1    1
    26     8     1    1
    27     1     2    1
    28    12    11    1
    29    11    10    1
