@<TRIPOS>MOLECULE
1w9l_ADP_A_1.pdb
 27 29 0 0 0
SMALL
GASTEIGER

@<TRIPOS>ATOM
      1  PB        23.8690   33.6470   50.6780 P.3   1749  ADP1749     0.5373
      2  O1B       22.5780   32.8360   50.3440 O.3   1749  ADP1749    -0.1143
      3  O2B       23.7540   35.1180   51.2440 O.3   1749  ADP1749    -0.1143
      4  O3B       25.0840   33.5450   49.6860 O.2   1749  ADP1749    -0.2221
      5  PA        23.7540   31.7710   52.8910 P.3   1749  ADP1749     0.2231
      6  O1A       22.3150   32.2940   53.3530 O.3   1749  ADP1749    -0.4370
      7  O2A       23.9140   30.3460   52.2100 O.2   1749  ADP1749    -0.5169
      8  O3A       24.4760   32.8660   51.9550 O.3   1749  ADP1749    -0.2261
      9  O5'       24.6380   31.7340   54.2230 O.3   1749  ADP1749    -0.3111
     10  C5'       25.9570   31.1580   54.2350 C.3   1749  ADP1749     0.1813
     11  C4'       26.2040   30.4120   55.5350 C.3   1749  ADP1749     0.1821
     12  O4'       26.2310   31.2850   56.6880 O.3   1749  ADP1749    -0.3135
     13  C3'       25.1200   29.3990   55.8440 C.3   1749  ADP1749     0.2184
     14  O3'       25.2590   28.2020   55.0910 O.3   1749  ADP1749    -0.2174
     15  C2'       25.3300   29.2420   57.3400 C.3   1749  ADP1749     0.2570
     16  O2'       26.4820   28.4550   57.5780 O.3   1749  ADP1749    -0.2130
     17  C1'       25.5500   30.6880   57.7840 C.3   1749  ADP1749     0.3186
     18  N9        24.1990   31.2500   57.9640 N.pl3 1749  ADP1749    -0.1439
     19  C8        23.8030   32.5740   57.4230 C.3   1749  ADP1749     0.3377
     20  N7        22.6920   33.0010   58.2400 N.2   1749  ADP1749    -0.2095
     21  C5        22.6420   32.1360   59.3120 C.2   1749  ADP1749     0.2526
     22  C6        21.8440   32.2210   60.4230 C.2   1749  ADP1749     0.4393
     23  N6        20.9100   33.2470   60.5760 N.pl3 1749  ADP1749     0.2180
     24  N1        21.9860   31.2510   61.3300 N.2   1749  ADP1749     0.0021
     25  C2        22.8890   30.2590   61.1960 C.3   1749  ADP1749     0.5254
     26  N3        23.6900   30.1820   60.1190 N.2   1749  ADP1749    -0.0055
     27  C4        23.5570   31.1370   59.1860 C.2   1749  ADP1749     0.3518
@<TRIPOS>BOND
     1     4     1    2
     2     2     1    1
     3     1     3    1
     4     1     8    1
     5     8     5    1
     6     7     5    2
     7     5     6    1
     8     5     9    1
     9     9    10    1
    10    10    11    1
    11    14    13    1
    12    11    13    1
    13    11    12    1
    14    13    15    1
    15    12    17    1
    16    15    16    1
    17    15    17    1
    18    19    18    1
    19    19    20    1
    20    17    18    1
    21    18    27    1
    22    20    21    2
    23    27    21    1
    24    27    26    2
    25    21    22    1
    26    26    25    1
    27    22    23    1
    28    22    24    2
    29    25    24    1
