@<TRIPOS>MOLECULE
1w9o_III_S_1.pdb
 49 50 0 0 0
SMALL
GASTEIGER

@<TRIPOS>ATOM
      1  N          9.8690  -19.3880   33.5120 N.3     2  ASN2       -0.1225
      2  CA         9.4590  -19.9190   34.8480 C.3     2  ASN2        0.1785
      3  C          9.0970  -18.8110   35.8370 C.2     2  ASN2        0.2597
      4  O          9.7070  -17.7500   35.8340 O.2     2  ASN2       -0.2718
      5  CB        10.5750  -20.7740   35.4440 C.3     2  ASN2        0.1169
      6  CG        10.8620  -22.0110   34.6200 C.2     2  ASN2        0.2627
      7  OD1       11.9900  -22.2210   34.1690 O.2     2  ASN2       -0.2716
      8  ND2        9.8400  -22.8410   34.4180 N.am    2  ASN2       -0.0877
      9  N          8.1130  -19.0810   36.6820 N.am    3  GLU3       -0.1965
     10  CA         7.6660  -18.1460   37.7150 C.3     3  GLU3        0.1733
     11  C          7.9000  -18.7460   39.0950 C.2     3  GLU3        0.2616
     12  O          7.7600  -19.9580   39.2890 O.2     3  GLU3       -0.2715
     13  CB         6.1860  -17.8010   37.5340 C.3     3  GLU3        0.0429
     14  CG         5.2190  -18.9750   37.6780 C.3     3  GLU3        0.1163
     15  CD         3.8270  -18.6470   37.1500 C.2     3  GLU3        0.3649
     16  OE1        3.7230  -17.9450   36.1170 O.co2   3  GLU3       -0.2457
     17  OE2        2.8370  -19.0820   37.7770 O.co2   3  GLU3       -0.2457
     18  N          8.2630  -17.8850   40.0430 N.am    4  TYR4       -0.1960
     19  CA         8.6860  -18.3010   41.3690 C.3     4  TYR4        0.1771
     20  C          7.6170  -17.9750   42.3850 C.2     4  TYR4        0.2620
     21  O          7.0530  -16.8860   42.3640 O.2     4  TYR4       -0.2715
     22  CB         9.9830  -17.5920   41.7490 C.3     4  TYR4        0.0574
     23  CG        11.1670  -18.0470   40.9340 C.ar    4  TYR4       -0.0198
     24  CD1       12.2590  -18.6610   41.5390 C.ar    4  TYR4       -0.0009
     25  CD2       11.1880  -17.8760   39.5460 C.ar    4  TYR4       -0.0009
     26  CE1       13.3410  -19.0860   40.7860 C.ar    4  TYR4        0.0417
     27  CE2       12.2590  -18.2920   38.7900 C.ar    4  TYR4        0.0417
     28  CZ        13.3320  -18.8940   39.4080 C.ar    4  TYR4        0.1957
     29  OH        14.3930  -19.3090   38.6450 O.3     4  TYR4       -0.2866
     30  N          7.3420  -18.9330   43.2640 N.am    5  TYR5       -0.1960
     31  CA         6.4320  -18.7510   44.3880 C.3     5  TYR5        0.1771
     32  C          7.3030  -18.5020   45.6040 C.2     5  TYR5        0.2620
     33  O          8.2430  -19.2460   45.8630 O.2     5  TYR5       -0.2715
     34  CB         5.5690  -19.9970   44.5830 C.3     5  TYR5        0.0574
     35  CG         4.8280  -20.0800   45.9040 C.ar    5  TYR5       -0.0198
     36  CD1        4.2460  -18.9460   46.4900 C.ar    5  TYR5       -0.0009
     37  CD2        4.6690  -21.3060   46.5490 C.ar    5  TYR5       -0.0009
     38  CE1        3.5550  -19.0310   47.6930 C.ar    5  TYR5        0.0417
     39  CE2        3.9760  -21.4020   47.7530 C.ar    5  TYR5        0.0417
     40  CZ         3.4280  -20.2610   48.3250 C.ar    5  TYR5        0.1957
     41  OH         2.7440  -20.3620   49.5230 O.3     5  TYR5       -0.2866
     42  N          6.9960  -17.4460   46.3450 N.am    6  VAL6       -0.1941
     43  CA         7.9090  -16.9510   47.3600 C.3     6  VAL6        0.1977
     44  C          7.1280  -16.4160   48.5650 C.2     6  VAL6        0.3842
     45  O          5.9050  -16.3260   48.5220 O.co2   6  VAL6       -0.2437
     46  CB         8.8430  -15.9040   46.7060 C.3     6  VAL6        0.0311
     47  CG1        8.2950  -14.4640   46.8290 C.3     6  VAL6        0.0023
     48  CG2       10.2600  -16.0390   47.2200 C.3     6  VAL6        0.0023
     49  OXT        7.6750  -16.0940   49.6260 O.co2   6  VAL6       -0.2437
@<TRIPOS>BOND
     1     1     2    1
     2     7     6    2
     3     8     6   am
     4     6     5    1
     5     2     5    1
     6     2     3    1
     7     4     3    2
     8     3     9   am
     9    16    15   ar
    10     9    10    1
    11    15    14    1
    12    15    17   ar
    13    13    14    1
    14    13    10    1
    15    10    11    1
    16    29    28    1
    17    27    28   ar
    18    27    25   ar
    19    11    12    2
    20    11    18   am
    21    28    26   ar
    22    25    23   ar
    23    18    19    1
    24    26    24   ar
    25    23    24   ar
    26    23    22    1
    27    19    22    1
    28    19    20    1
    29    21    20    2
    30    20    30   am
    31    30    31    1
    32    31    34    1
    33    31    32    1
    34    34    35    1
    35    32    33    2
    36    32    42   am
    37    35    36   ar
    38    35    37   ar
    39    42    43    1
    40    36    38   ar
    41    37    39   ar
    42    46    47    1
    43    46    48    1
    44    46    43    1
    45    43    44    1
    46    38    40   ar
    47    39    40   ar
    48    40    41    1
    49    45    44   ar
    50    44    49   ar
