@<TRIPOS>MOLECULE
1w9q_III_S_1.pdb
 45 46 0 0 0
SMALL
GASTEIGER

@<TRIPOS>ATOM
      1  N          9.8180  -19.7050   33.4980 N.3     2  ASN2       -0.1225
      2  CA         9.5540  -20.2530   34.8650 C.3     2  ASN2        0.1785
      3  C          9.1340  -19.1790   35.8610 C.2     2  ASN2        0.2597
      4  O          9.8400  -18.1870   36.0600 O.2     2  ASN2       -0.2718
      5  CB        10.7970  -20.9370   35.4310 C.3     2  ASN2        0.1169
      6  CG        11.2760  -22.1160   34.5900 C.2     2  ASN2        0.2627
      7  OD1       12.4810  -22.3050   34.4230 O.2     2  ASN2       -0.2716
      8  ND2       10.3430  -22.9340   34.0920 N.am    2  ASN2       -0.0877
      9  N          7.9990  -19.3950   36.5120 N.am    3  GLU3       -0.1965
     10  CA         7.5740  -18.4790   37.5710 C.3     3  GLU3        0.1733
     11  C          7.8920  -18.9960   38.9820 C.2     3  GLU3        0.2616
     12  O          7.6780  -20.1770   39.3050 O.2     3  GLU3       -0.2715
     13  CB         6.0970  -18.0870   37.4210 C.3     3  GLU3        0.0429
     14  CG         5.1170  -19.2530   37.2950 C.3     3  GLU3        0.1163
     15  CD         3.6770  -18.7920   37.0950 C.2     3  GLU3        0.3649
     16  OE1        2.7720  -19.3560   37.7520 O.co2   3  GLU3       -0.2457
     17  OE2        3.4490  -17.8590   36.2890 O.co2   3  GLU3       -0.2457
     18  N          8.4020  -18.0890   39.8130 N.am    4  PHE4       -0.1960
     19  CA         8.7950  -18.3930   41.1820 C.3     4  PHE4        0.1771
     20  C          7.6550  -18.0650   42.1290 C.2     4  PHE4        0.2619
     21  O          6.9930  -17.0410   41.9510 O.2     4  PHE4       -0.2715
     22  CB        10.0010  -17.5370   41.5480 C.3     4  PHE4        0.0574
     23  CG        11.2760  -17.9880   40.9070 C.ar    4  PHE4       -0.0200
     24  CD1       12.2340  -18.6670   41.6580 C.ar    4  PHE4       -0.0042
     25  CD2       11.5180  -17.7580   39.5530 C.ar    4  PHE4       -0.0042
     26  CE1       13.4230  -19.0940   41.0820 C.ar    4  PHE4       -0.0003
     27  CE2       12.7080  -18.1870   38.9640 C.ar    4  PHE4       -0.0003
     28  CZ        13.6650  -18.8530   39.7380 C.ar    4  PHE4       -0.0000
     29  N          7.4410  -18.9350   43.1260 N.am    5  ALA5       -0.1963
     30  CA         6.4590  -18.7120   44.1880 C.3     5  ALA5        0.1728
     31  C          7.1750  -18.2460   45.4530 C.2     5  ALA5        0.2617
     32  O          7.9680  -18.9840   46.0480 O.2     5  ALA5       -0.2715
     33  CB         5.6530  -19.9750   44.4700 C.3     5  ALA5        0.0334
     34  N          6.8920  -17.0190   45.8610 N.am    6  PHE6       -0.1938
     35  CA         7.6030  -16.3940   46.9720 C.3     6  PHE6        0.2021
     36  C          6.7310  -16.2630   48.2070 C.2     6  PHE6        0.3845
     37  O          5.5090  -16.3760   48.1250 O.co2   6  PHE6       -0.2437
     38  CB         8.1380  -15.0190   46.5640 C.3     6  PHE6        0.0596
     39  CG         9.2940  -15.0740   45.6100 C.ar    6  PHE6       -0.0199
     40  CD1       10.0680  -16.2280   45.4880 C.ar    6  PHE6       -0.0042
     41  CD2        9.6320  -13.9580   44.8470 C.ar    6  PHE6       -0.0042
     42  CE1       11.1380  -16.2750   44.6030 C.ar    6  PHE6       -0.0003
     43  CE2       10.7170  -14.0030   43.9420 C.ar    6  PHE6       -0.0003
     44  CZ        11.4610  -15.1540   43.8280 C.ar    6  PHE6       -0.0000
     45  OXT        7.2870  -16.0280   49.2740 O.co2   6  PHE6       -0.2437
@<TRIPOS>BOND
     1     1     2    1
     2     8     6   am
     3     7     6    2
     4     6     5    1
     5     2     5    1
     6     2     3    1
     7     3     4    2
     8     3     9   am
     9    17    15   ar
    10     9    10    1
    11    15    14    1
    12    15    16   ar
    13    14    13    1
    14    13    10    1
    15    10    11    1
    16    27    25   ar
    17    27    28   ar
    18    11    12    2
    19    11    18   am
    20    25    23   ar
    21    28    26   ar
    22    18    19    1
    23    23    22    1
    24    23    24   ar
    25    26    24   ar
    26    19    22    1
    27    19    20    1
    28    21    20    2
    29    20    29   am
    30    29    30    1
    31    44    43   ar
    32    44    42   ar
    33    43    41   ar
    34    30    33    1
    35    30    31    1
    36    42    40   ar
    37    41    39   ar
    38    31    34   am
    39    31    32    2
    40    40    39   ar
    41    39    38    1
    42    34    35    1
    43    38    35    1
    44    35    36    1
    45    37    36   ar
    46    36    45   ar
