@<TRIPOS>MOLECULE
1w9t_XYP_A_1.pdb
 10 10 0 0 0
SMALL
GASTEIGER

@<TRIPOS>ATOM
      1  O4A        7.6220   20.6610   -0.6110 O.3   1144  XYP1144    -0.1869
      2  C1B        8.4090   19.5020   -0.8680 C.3   1144  XYP1144     0.3024
      3  C2B        9.7360   19.4340   -0.1280 C.3   1144  XYP1144     0.2434
      4  C3B       10.4180   18.0790   -0.3720 C.3   1144  XYP1144     0.2199
      5  C4B        9.4540   17.0220    0.0720 C.3   1144  XYP1144     0.2143
      6  C5B        8.2040   17.1840   -0.8030 C.3   1144  XYP1144     0.1804
      7  O2B       10.6000   20.3860   -0.7020 O.3   1144  XYP1144    -0.2148
      8  O3B       11.6660   17.8770    0.2880 O.3   1144  XYP1144    -0.2174
      9  O4B       10.0350   15.7170   -0.1020 O.3   1144  XYP1144    -0.2176
     10  O5B        7.6190   18.4460   -0.5370 O.3   1144  XYP1144    -0.3237
@<TRIPOS>BOND
     1     2     1    1
     2     2    10    1
     3     2     3    1
     4     6    10    1
     5     6     5    1
     6     7     3    1
     7     4     3    1
     8     4     5    1
     9     4     8    1
    10     9     5    1
