@<TRIPOS>MOLECULE
1w9t_XYS_A_1.pdb
 10 10 0 0 0
SMALL
GASTEIGER

@<TRIPOS>ATOM
      1  C1         5.5060    9.7580   15.0010 C.3   1146  XYS1146     0.3024
      2  C2         4.9140   11.0250   15.6240 C.3   1146  XYS1146     0.2434
      3  C3         3.7910   10.6520   16.6170 C.3   1146  XYS1146     0.2199
      4  C4         2.8570    9.6250   15.9480 C.3   1146  XYS1146     0.2143
      5  C5         3.6170    8.4180   15.3640 C.3   1146  XYS1146     0.1804
      6  O1         6.3280    9.0310   15.9080 O.3   1146  XYS1146    -0.1869
      7  O2         5.9280   11.7530   16.3060 O.3   1146  XYS1146    -0.2148
      8  O3         3.0350   11.8030   16.9810 O.3   1146  XYS1146    -0.2174
      9  O5         4.5070    8.9840   14.4030 O.3   1146  XYS1146    -0.3237
     10  O4         1.8520    9.2020   16.8720 O.3   1146  XYS1146    -0.2176
@<TRIPOS>BOND
     1     9     1    1
     2     9     5    1
     3     1     2    1
     4     1     6    1
     5     5     4    1
     6     2     7    1
     7     2     3    1
     8     4     3    1
     9     4    10    1
    10     3     8    1
