@<TRIPOS>MOLECULE
1w9w_GLC_A_1.pdb
 11 11 0 0 0
SMALL
GASTEIGER

@<TRIPOS>ATOM
      1  C1        44.1710    9.4420  -18.2250 C.3   604  GLC604      0.1777
      2  C2        45.6200    8.8760  -18.1980 C.3   604  GLC604      0.2141
      3  C3        46.0410    8.0940  -19.4290 C.3   604  GLC604      0.2173
      4  C4        44.8710    7.2400  -19.9410 C.3   604  GLC604      0.2142
      5  C5        43.6980    8.1650  -20.2970 C.3   604  GLC604      0.1810
      6  C6        42.3590    7.4730  -20.5840 C.3   604  GLC604      0.2141
      7  O2        46.5980    9.8150  -17.7950 O.3   604  GLC604     -0.2176
      8  O3        46.9800    7.1570  -18.9290 O.3   604  GLC604     -0.2175
      9  O4        45.2870    6.3460  -21.0000 O.3   604  GLC604     -0.2176
     10  O5        43.4850    9.3050  -19.4230 O.3   604  GLC604     -0.3481
     11  O6        41.5990    8.2450  -21.5260 O.3   604  GLC604     -0.2176
@<TRIPOS>BOND
     1    11     6    1
     2     9     4    1
     3     6     5    1
     4     5     4    1
     5     5    10    1
     6     4     3    1
     7     3     8    1
     8     3     2    1
     9    10     1    1
    10     1     2    1
    11     2     7    1
