@<TRIPOS>MOLECULE
1w9w_BGC_A_1.pdb
 11 11 0 0 0
SMALL
GASTEIGER

@<TRIPOS>ATOM
      1  C2        52.9290    5.9510  -11.0180 C.3   601  BGC601      0.2141
      2  C3        52.7230    6.8660   -9.8030 C.3   601  BGC601      0.2173
      3  C4        53.9450    7.7370   -9.5370 C.3   601  BGC601      0.2142
      4  C5        54.4580    8.4160  -10.8220 C.3   601  BGC601      0.1810
      5  C6        55.8670    9.0200  -10.5920 C.3   601  BGC601      0.2141
      6  C1        53.3800    6.8370  -12.1730 C.3   601  BGC601      0.1777
      7  O2        51.7200    5.3260  -11.3610 O.3   601  BGC601     -0.2176
      8  O3        52.3200    6.2170   -8.6140 O.3   601  BGC601     -0.2175
      9  O4        53.6110    8.7740   -8.6400 O.3   601  BGC601     -0.2176
     10  O5        54.5610    7.4900  -11.8900 O.3   601  BGC601     -0.3481
     11  O6        56.2590    9.7780  -11.7280 O.3   601  BGC601     -0.2176
@<TRIPOS>BOND
     1     6    10    1
     2     6     1    1
     3    10     4    1
     4    11     5    1
     5     7     1    1
     6     1     2    1
     7     4     5    1
     8     4     3    1
     9     2     3    1
    10     2     8    1
    11     3     9    1
