@<TRIPOS>MOLECULE
1w9x_GLC_A_1.pdb
 11 11 0 0 0
SMALL
GASTEIGER

@<TRIPOS>ATOM
      1  C1        23.9250   21.8770   80.5400 C.3   1491  GLC1491     0.1777
      2  C2        22.6940   22.1950   81.4030 C.3   1491  GLC1491     0.2141
      3  C3        22.3600   23.6810   81.2320 C.3   1491  GLC1491     0.2173
      4  C4        23.5510   24.5250   81.6840 C.3   1491  GLC1491     0.2142
      5  C5        24.8330   24.0600   80.9330 C.3   1491  GLC1491     0.1810
      6  C6        26.1130   24.7500   81.4130 C.3   1491  GLC1491     0.2141
      7  O2        21.6380   21.4080   80.9420 O.3   1491  GLC1491    -0.2176
      8  O3        21.1250   24.0510   81.8320 O.3   1491  GLC1491    -0.2175
      9  O4        23.2700   25.8700   81.3460 O.3   1491  GLC1491    -0.2176
     10  O5        25.0200   22.6410   81.0290 O.3   1491  GLC1491    -0.3481
     11  O6        26.3540   24.2910   82.7220 O.3   1491  GLC1491    -0.2176
@<TRIPOS>BOND
     1     1    10    1
     2     1     2    1
     3     5    10    1
     4     5     6    1
     5     5     4    1
     6     7     2    1
     7     3     2    1
     8     3     4    1
     9     3     8    1
    10     9     4    1
    11     6    11    1
