@<TRIPOS>MOLECULE
1w9x_AC1_A_1.pdb
 21 22 0 0 0
SMALL
GASTEIGER

@<TRIPOS>ATOM
      1  C1        23.3270   26.7540   82.5020 C.3   1492  AC11492     0.1775
      2  O2        20.9490   26.6640   82.3010 O.3   1492  AC11492    -0.2177
      3  C2        22.0020   27.5500   82.6080 C.3   1492  AC11492     0.2129
      4  C4        25.0150   33.2590   82.8750 C.3   1492  AC11492     0.1872
      5  C3A       21.9790   28.6940   81.5830 C.3   1492  AC11492     0.2028
      6  O3A       20.8180   29.4270   81.8450 O.3   1492  AC11492    -0.2187
      7  C4A       23.2770   29.5500   81.6200 C.3   1492  AC11492     0.1327
      8  N4A       23.2600   30.8060   80.7920 N.3   1492  AC11492    -0.2131
      9  C5A       24.4810   28.5880   81.3730 C.3   1492  AC11492     0.1339
     10  O5        24.4470   27.6350   82.4590 O.3   1492  AC11492    -0.3519
     11  C6A       25.8890   29.2370   81.3140 C.3   1492  AC11492     0.0336
     12  C1B       22.6660   32.0470   81.3740 C.3   1492  AC11492     0.1060
     13  C2B       23.4620   33.2930   80.8890 C.3   1492  AC11492     0.2005
     14  O2B       23.2970   33.5000   79.5070 O.3   1492  AC11492    -0.2188
     15  C3B       24.9410   33.1180   81.3260 C.3   1492  AC11492     0.2136
     16  O3B       25.8350   34.0050   80.7100 O.3   1492  AC11492    -0.2176
     17  O4        26.1790   32.6090   83.3520 O.3   1492  AC11492    -0.2202
     18  C5B       23.7940   32.6530   83.5560 C.3   1492  AC11492     0.0675
     19  C7B       22.8310   31.9790   82.8760 C.3   1492  AC11492     0.0253
     20  C6B       23.6590   32.9030   85.0430 C.3   1492  AC11492     0.1847
     21  O6B       23.0480   34.1690   85.1740 O.3   1492  AC11492    -0.2203
@<TRIPOS>BOND
     1    14    13    1
     2    16    15    1
     3     8    12    1
     4     8     7    1
     5    13    15    1
     6    13    12    1
     7    11     9    1
     8    15     4    1
     9     9     7    1
    10     9    10    1
    11    12    19    1
    12     5     7    1
    13     5     6    1
    14     5     3    1
    15     2     3    1
    16    10     1    1
    17     1     3    1
    18     4    17    1
    19     4    18    1
    20    19    18    1
    21    18    20    1
    22    20    21    1
