@<TRIPOS>MOLECULE
1wa5_GTP_A_1.pdb
 32 34 0 0 0
SMALL
GASTEIGER

@<TRIPOS>ATOM
      1  PG        48.1460   18.5600   40.5760 P.3   1177  GTP1177     0.5373
      2  O1G       47.5420   19.9160   40.5180 O.3   1177  GTP1177    -0.1143
      3  O2G       48.9020   18.5460   41.7660 O.3   1177  GTP1177    -0.1143
      4  O3G       49.0120   18.0250   39.5430 O.2   1177  GTP1177    -0.2221
      5  O3B       46.9880   17.4590   40.8330 O.3   1177  GTP1177    -0.2258
      6  PB        46.9720   16.0830   41.6880 P.3   1177  GTP1177     0.2277
      7  O1B       47.0730   15.1120   40.4930 O.2   1177  GTP1177    -0.5168
      8  O2B       48.1160   15.5820   42.4570 O.3   1177  GTP1177    -0.4368
      9  O3A       45.5780   16.0580   42.3090 O.3   1177  GTP1177    -0.2700
     10  PA        45.3000   15.5260   43.6930 P.3   1177  GTP1177     0.2189
     11  O1A       45.7760   14.2590   44.2510 O.2   1177  GTP1177    -0.5170
     12  O2A       45.7280   16.4110   44.7190 O.3   1177  GTP1177    -0.4371
     13  O5'       43.7500   15.0550   43.6220 O.3   1177  GTP1177    -0.3112
     14  C5'       42.5610   15.8160   43.1160 C.3   1177  GTP1177     0.1813
     15  C4'       41.1890   15.5710   43.7440 C.3   1177  GTP1177     0.1799
     16  O4'       40.6370   14.1350   43.3470 O.3   1177  GTP1177    -0.3326
     17  C3'       40.9650   15.6400   45.2790 C.3   1177  GTP1177     0.2158
     18  O3'       39.5660   16.2170   45.6950 O.3   1177  GTP1177    -0.2175
     19  C2'       41.0690   14.0590   45.5920 C.3   1177  GTP1177     0.2310
     20  O2'       40.3380   13.7200   46.7370 O.3   1177  GTP1177    -0.2158
     21  C1'       40.5200   13.3490   44.4390 C.3   1177  GTP1177     0.2293
     22  N9        40.8590   11.9320   44.0780 N.pl3 1177  GTP1177    -0.2354
     23  C8        42.1560   11.3720   43.8180 C.3   1177  GTP1177     0.2246
     24  N7        42.0340   10.0380   43.5220 N.2   1177  GTP1177    -0.2322
     25  C5        40.7000    9.7780   43.6070 C.2   1177  GTP1177     0.2182
     26  C6        40.0150    8.5410   43.3810 C.1   1177  GTP1177     0.2372
     27  O6        40.5900    7.4880   43.0800 O.2   1177  GTP1177    -0.2069
     28  N1        38.5450    8.5330   43.5380 N.2   1177  GTP1177    -0.2485
     29  C2        37.9180    9.6540   43.8650 C.1   1177  GTP1177     0.2531
     30  N2        36.5250    9.5000   43.9780 N.pl3 1177  GTP1177    -0.0226
     31  N3        38.5690   10.8310   44.0690 N.2   1177  GTP1177    -0.3074
     32  C4        39.9430   10.8830   43.9320 C.2   1177  GTP1177     0.2300
@<TRIPOS>BOND
     1     4     1    2
     2     7     6    2
     3     2     1    1
     4     1     5    1
     5     1     3    1
     6     5     6    1
     7     6     9    1
     8     6     8    1
     9     9    10    1
    10    27    26    2
    11    14    13    1
    12    14    15    1
    13    16    15    1
    14    16    21    1
    15    26    28    2
    16    26    25    1
    17    24    25    2
    18    24    23    1
    19    28    29    2
    20    25    32    1
    21    13    10    1
    22    10    11    2
    23    10    12    1
    24    15    17    1
    25    23    22    1
    26    29    30    1
    27    29    31    2
    28    32    31    2
    29    32    22    1
    30    22    21    1
    31    21    19    1
    32    17    19    1
    33    17    18    1
    34    19    20    1
