@<TRIPOS>MOLECULE
1waf_GMP_A_1.pdb
 20 22 0 0 0
SMALL
GASTEIGER

@<TRIPOS>ATOM
      1  O5'      -14.2730  -12.4690    5.2650 O.3   999  GMP999     -0.2176
      2  C5'      -14.7200  -13.8530    5.1870 C.3   999  GMP999      0.2142
      3  C4'      -13.6470  -14.8770    5.7090 C.3   999  GMP999      0.1828
      4  O4'      -12.3740  -14.8690    4.9500 O.3   999  GMP999     -0.3325
      5  C3'      -13.3110  -14.4960    7.1920 C.3   999  GMP999      0.2159
      6  O3'      -13.0370  -15.7030    7.9330 O.3   999  GMP999     -0.2175
      7  C2'      -12.0060  -13.6820    6.9930 C.3   999  GMP999      0.2310
      8  O2'      -11.3440  -13.6670    8.3050 O.3   999  GMP999     -0.2158
      9  C1'      -11.2980  -14.5070    5.8330 C.3   999  GMP999      0.2293
     10  N9       -10.2880  -13.6980    5.0980 N.pl3 999  GMP999     -0.2354
     11  C8        -8.9420  -14.0080    5.0030 C.3   999  GMP999      0.2246
     12  N7        -8.1970  -13.0660    4.4810 N.2   999  GMP999     -0.2322
     13  C5        -9.1270  -12.0450    4.1910 C.2   999  GMP999      0.2182
     14  C6        -8.8950  -10.7370    3.5860 C.1   999  GMP999      0.2372
     15  O6        -7.7960  -10.3310    3.1350 O.2   999  GMP999     -0.2069
     16  N1       -10.1280   -9.9700    3.4580 N.2   999  GMP999     -0.2485
     17  C2       -11.4100  -10.4210    3.8470 C.1   999  GMP999      0.2531
     18  N2       -12.4720   -9.5850    3.6520 N.pl3 999  GMP999     -0.0226
     19  N3       -11.5780  -11.6670    4.4020 N.2   999  GMP999     -0.3074
     20  C4       -10.4230  -12.4180    4.5540 C.2   999  GMP999      0.2300
@<TRIPOS>BOND
     1    15    14    2
     2    16    14    2
     3    16    17    2
     4    14    13    1
     5    18    17    1
     6    17    19    2
     7    13    12    2
     8    13    20    1
     9    19    20    2
    10    12    11    1
    11    20    10    1
    12     4     3    1
    13     4     9    1
    14    11    10    1
    15    10     9    1
    16     2     1    1
    17     2     3    1
    18     3     5    1
    19     9     7    1
    20     7     5    1
    21     7     8    1
    22     5     6    1
