@<TRIPOS>MOLECULE
1waj_5GP_A_1.pdb
 24 26 0 0 0
SMALL
GASTEIGER

@<TRIPOS>ATOM
      1  P          0.9650    7.7410   50.8530 P.3   904  5GP904      0.5327
      2  O1P        0.0880    6.6160   50.4680 O.3   904  5GP904     -0.1145
      3  O2P        1.5840    8.4760   49.7260 O.2   904  5GP904     -0.2224
      4  O3P        0.4000    8.6180   51.9090 O.3   904  5GP904     -0.1145
      5  O5'        2.2110    7.0250   51.5710 O.3   904  5GP904     -0.2675
      6  C5'        2.9310    7.7760   52.6100 C.3   904  5GP904      0.1859
      7  C4'        3.9260    7.1430   53.7340 C.3   904  5GP904      0.1801
      8  O4'        5.0930    6.3060   53.2850 O.3   904  5GP904     -0.3326
      9  C3'        4.6030    8.4390   54.4060 C.3   904  5GP904      0.2158
     10  O3'        4.7610    8.2420   55.8800 O.3   904  5GP904     -0.2175
     11  C2'        6.0100    8.4140   53.6280 C.3   904  5GP904      0.2310
     12  O2'        6.9790    9.2560   54.2570 O.3   904  5GP904     -0.2158
     13  C1'        6.3330    6.9220   53.8180 C.3   904  5GP904      0.2293
     14  N9         7.5910    6.4200   53.1280 N.pl3 904  5GP904     -0.2354
     15  C8         8.8380    6.2000   53.6680 C.3   904  5GP904      0.2246
     16  N7         9.7080    5.6540   52.8440 N.2   904  5GP904     -0.2322
     17  C5         8.9960    5.4860   51.6470 C.2   904  5GP904      0.2182
     18  C6         9.3850    4.8470   50.3300 C.1   904  5GP904      0.2372
     19  O6        10.4310    4.2750   49.8490 O.2   904  5GP904     -0.2069
     20  N1         8.2440    4.8860   49.5120 N.2   904  5GP904     -0.2485
     21  C2         6.9890    5.4260   49.8590 C.1   904  5GP904      0.2531
     22  N2         6.0290    5.3500   48.9170 N.pl3 904  5GP904     -0.0226
     23  N3         6.6700    5.9910   51.0330 N.2   904  5GP904     -0.3074
     24  C4         7.7080    5.9750   51.8590 C.2   904  5GP904      0.2300
@<TRIPOS>BOND
     1    22    21    1
     2    20    21    2
     3    20    18    2
     4     3     1    2
     5    19    18    2
     6    21    23    2
     7    18    17    1
     8     2     1    1
     9     1     5    1
    10     1     4    1
    11    23    24    2
    12     5     6    1
    13    17    24    1
    14    17    16    2
    15    24    14    1
    16     6     7    1
    17    16    15    1
    18    14    15    1
    19    14    13    1
    20     8     7    1
    21     8    13    1
    22    11    13    1
    23    11    12    1
    24    11     9    1
    25     7     9    1
    26     9    10    1
