@<TRIPOS>MOLECULE
1wap_TRP_A_1.pdb
 15 16 0 0 0
SMALL
GASTEIGER

@<TRIPOS>ATOM
      1  N        -28.4390   21.5250   28.1250 N.3    81  TRP81      -0.1205
      2  CA       -29.3820   20.5350   27.5520 C.3    81  TRP81       0.1984
      3  C        -28.6820   19.1930   27.3940 C.2    81  TRP81       0.3822
      4  O        -27.4440   19.1560   27.2060 O.co2  81  TRP81      -0.2440
      5  CB       -29.8290   21.0590   26.1800 C.3    81  TRP81       0.0549
      6  CG       -30.8600   20.2100   25.5260 C.2    81  TRP81      -0.0138
      7  CD1      -30.5950   19.2050   24.6150 C.2    81  TRP81       0.0907
      8  CD2      -32.2710   20.2260   25.7110 C.3    81  TRP81       0.0819
      9  NE1      -31.7920   18.6270   24.2140 N.2    81  TRP81      -0.2482
     10  CE2      -32.8330   19.2650   24.8470 C.2    81  TRP81       0.0665
     11  CE3      -33.1280   21.0510   26.4590 C.2    81  TRP81      -0.0164
     12  CZ2      -34.1890   19.0230   24.7780 C.2    81  TRP81       0.0153
     13  CZ3      -34.4910   20.8120   26.3840 C.2    81  TRP81      -0.0038
     14  CH2      -35.0290   19.8220   25.5180 C.2    81  TRP81       0.0009
     15  OXT      -29.3470   18.1580   27.6740 O.co2  81  TRP81      -0.2440
@<TRIPOS>BOND
     1     9     7    1
     2     9    10    2
     3     7     6    2
     4    12    10    1
     5    12    14    2
     6    10     8    1
     7    14    13    1
     8     6     8    1
     9     6     5    1
    10     8    11    1
    11     5     2    1
    12    13    11    2
    13     4     3   ar
    14     3     2    1
    15     3    15   ar
    16     2     1    1
