@<TRIPOS>MOLECULE
1waw_III_B_1.pdb
 48 51 0 0 0
SMALL
GASTEIGER

@<TRIPOS>ATOM
      1  C          6.2010  -10.1980   18.4010 C.2   1392  0AR1392     0.2495
      2  N          7.9460   -8.5170   18.1970 N.2   1392  0AR1392    -0.1973
      3  O          6.0820  -10.1100   19.6220 O.2   1392  0AR1392    -0.2727
      4  CA         7.5480   -9.8630   17.7540 C.3   1392  0AR1392     0.1905
      5  CB         8.5650  -10.8950   18.2480 C.3   1392  0AR1392     0.0383
      6  CD        10.8560  -11.8930   17.9940 C.3   1392  0AR1392     0.2202
      7  NE        11.3400  -11.2680   19.2330 N.pl3 1392  0AR1392    -0.0911
      8  CG         9.8100  -10.9720   17.3610 C.3   1392  0AR1392     0.0494
      9  CZ        12.3250  -11.7960   19.9540 C.2   1392  0AR1392     0.4924
     10  C0B       13.7000  -11.5630   21.8570 C.2   1392  0AR1392     0.3195
     11  O0C       14.3330  -12.5890   21.6080 O.2   1392  0AR1392    -0.2534
     12  C1B       14.0440  -10.7180   23.0850 C.3   1392  0AR1392     0.1176
     13  NH1       12.8780  -12.9550   19.6010 N.pl3 1392  0AR1392     0.1297
     14  NH2       12.7120  -11.1500   21.0510 N.am  1392  0AR1392     0.0044
     15  N          5.1600  -10.5640   17.6540 N.am  1393  DPR1393    -0.2658
     16  CA         3.8800  -10.9160   18.2960 C.3   1393  DPR1393     0.1823
     17  CB         3.1930  -11.7490   17.2110 C.3   1393  DPR1393     0.0388
     18  CG         3.5200  -10.9040   15.9800 C.3   1393  DPR1393     0.0244
     19  CD         5.0250  -10.7430   16.1980 C.3   1393  DPR1393     0.0945
     20  C          2.9900   -9.7120   18.6280 C.1   1393  DPR1393     0.1445
     21  O          1.8110   -9.9000   18.9260 O.2   1393  DPR1393    -0.2254
     22  N          3.5390   -8.5000   18.6280 N.2   1394  ASP1394    -0.1974
     23  CA         2.7030   -7.3270   18.9330 C.3   1394  ASP1394     0.1947
     24  C          3.3330   -6.0530   18.3720 C.2   1394  ASP1394     0.2514
     25  O          3.3810   -5.7970   17.1700 O.2   1394  ASP1394    -0.2727
     26  CB         2.6120   -7.0030   20.4250 C.3   1394  ASP1394     0.0887
     27  CG         3.7060   -5.9520   20.6270 C.3   1394  ASP1394     0.2334
     28  OD1        4.9380   -6.5460   21.0450 O.3   1394  ASP1394    -0.2005
     29  N          3.8770   -5.2930   19.3230 N.am  1395  HIS1395    -0.2404
     30  CA         4.5100   -4.0210   18.9420 C.3   1395  HIS1395     0.1897
     31  C          5.8680   -4.3920   18.3400 C.1   1395  HIS1395     0.1455
     32  O          6.3780   -3.7150   17.4470 O.2   1395  HIS1395    -0.2253
     33  CB         4.6740   -3.1100   20.1620 C.3   1395  HIS1395     0.0805
     34  CG         4.7580   -1.6260   19.7880 C.2   1395  HIS1395     0.0658
     35  ND1        4.3930   -0.6200   20.5780 N.2   1395  HIS1395    -0.2309
     36  CD2        5.1780   -1.1070   18.6380 C.3   1395  HIS1395     0.1683
     37  CE1        4.5830    0.5180   19.9160 C.2   1395  HIS1395     0.1939
     38  NE2        5.0700    0.2180   18.7160 N.2   1395  HIS1395    -0.2440
     39  C1'       10.4430   -8.2780   21.0730 C.2   1396  UN11396     0.3649
     40  O1'       10.0920   -8.9110   20.0770 O.co2 1396  UN11396    -0.2457
     41  O2'       11.4890   -8.5920   21.6380 O.co2 1396  UN11396    -0.2457
     42  O58        6.2030   -7.5400   17.1700 O.2   1396  UN11396    -0.2251
     43  C1         9.5840   -7.1290   21.6080 C.3   1396  UN11396     0.1142
     44  C3         7.2230   -7.4540   17.8510 C.1   1396  UN11396     0.1495
     45  C4         7.6640   -6.0810   18.3660 C.3   1396  UN11396     0.2190
     46  C5         8.7810   -6.1550   19.4120 C.3   1396  UN11396     0.0429
     47  C6         8.3710   -6.8420   20.7180 C.3   1396  UN11396     0.0150
     48  N4         6.4170   -5.4830   18.8690 N.2   1396  UN11396    -0.1899
@<TRIPOS>BOND
     1    18    19    1
     2    18    17    1
     3    19    15    1
     4    42    44    2
     5    25    24    2
     6    17    16    1
     7     8     6    1
     8     8     5    1
     9    32    31    2
    10    15    16    1
    11    15     1   am
    12     4     2    1
    13     4     5    1
    14     4     1    1
    15    44     2    2
    16    44    45    1
    17     6     7    1
    18    16    20    1
    19    31    48    2
    20    31    30    1
    21    45    48    1
    22    45    46    1
    23    24    23    1
    24    24    29   am
    25     1     3    2
    26    20    22    2
    27    20    21    2
    28    22    23    1
    29    36    38    1
    30    36    34    1
    31    38    37    2
    32    23    26    1
    33    30    29    1
    34    30    33    1
    35     7     9    1
    36    29    27    1
    37    46    47    1
    38    13     9    2
    39    34    33    1
    40    34    35    2
    41    37    35    1
    42     9    14    1
    43    40    39   ar
    44    26    27    1
    45    27    28    1
    46    47    43    1
    47    14    10   am
    48    39    43    1
    49    39    41   ar
    50    11    10    2
    51    10    12    1
