@<TRIPOS>MOLECULE
1wax_LO1_A_1.pdb
 14 14 0 0 0
SMALL
GASTEIGER

@<TRIPOS>ATOM
      1  C1        42.4890   16.7100   64.1080 C.2   1300  LO11300     0.4422
      2  O1        43.6980   17.1380   64.1070 O.co2 1300  LO11300    -0.2353
      3  OXT       41.4680   17.3540   63.6650 O.co2 1300  LO11300    -0.2353
      4  C2        42.2500   15.3770   64.6800 C.2   1300  LO11300     0.3491
      5  O2        41.7020   14.5610   63.9600 O.2   1300  LO11300    -0.2607
      6  C1'       42.6030   14.0600   66.7720 C.ar  1300  LO11300     0.0739
      7  C2'       43.5000   13.9710   67.8270 C.ar  1300  LO11300     0.0163
      8  C3'       43.4860   12.8690   68.6610 C.ar  1300  LO11300    -0.0015
      9  C4'       42.5770   11.8590   68.4510 C.ar  1300  LO11300    -0.0031
     10  C5'       41.6690   11.9400   67.4130 C.ar  1300  LO11300    -0.0015
     11  C6'       41.6730   13.0350   66.5680 C.ar  1300  LO11300     0.0163
     12  C         42.5730   10.6750   69.3680 C.3   1300  LO11300     0.1356
     13  N1        41.5260   10.9510   70.3490 N.3   1300  LO11300    -0.1262
     14  N7        42.6730   15.2070   65.9650 N.am  1300  LO11300    -0.1698
@<TRIPOS>BOND
     1     3     1   ar
     2     5     4    2
     3     2     1   ar
     4     1     4    1
     5     4    14   am
     6    14     6    1
     7    11     6   ar
     8    11    10   ar
     9     6     7   ar
    10    10     9   ar
    11     7     8   ar
    12     9     8   ar
    13     9    12    1
    14    12    13    1
