@<TRIPOS>MOLECULE
1way_L02_B_1.pdb
 18 20 0 0 0
SMALL
GASTEIGER

@<TRIPOS>ATOM
      1  N1         9.4380   19.8340   51.9440 N.2   1248  L021248    -0.1567
      2  N3         9.4610   21.0800   51.3350 N.2   1248  L021248    -0.1526
      3  C4         9.8790   20.9360   50.0980 C.2   1248  L021248     0.0861
      4  C5        10.1470   19.5610   49.8810 C.3   1248  L021248     0.0906
      5  C6         9.8620   18.9330   51.0430 C.2   1248  L021248     0.0640
      6  C7         9.9790   17.4840   51.3890 C.3   1248  L021248     0.0411
      7  C8        10.6700   16.6400   50.3270 C.3   1248  L021248     0.0245
      8  C10       10.7680   15.2030   50.8610 C.3   1248  L021248     0.0891
      9  N12        9.4150   14.6860   51.1170 N.3   1248  L021248    -0.2180
     10  C13        8.8100   15.4700   52.2180 C.3   1248  L021248     0.0891
     11  C15        8.6070   16.9220   51.7550 C.3   1248  L021248     0.0245
     12  C20       10.9360   22.0640   48.0980 C.ar  1248  L021248     0.0021
     13  C21        9.9980   22.0590   49.1420 C.ar  1248  L021248     0.0157
     14  C22        9.1070   23.1330   49.3190 C.ar  1248  L021248     0.0021
     15  C24        9.1440   24.2110   48.4660 C.ar  1248  L021248     0.0114
     16  C26       10.0640   24.2360   47.4190 C.ar  1248  L021248     0.0577
     17  C28       10.9560   23.1630   47.2360 C.ar  1248  L021248     0.0114
     18 CL1        10.0900   25.6240   46.3620 Cl    1248  L021248    -0.0822
@<TRIPOS>BOND
     1    18    16    1
     2    17    16   ar
     3    17    12   ar
     4    16    15   ar
     5    12    13   ar
     6    15    14   ar
     7    13    14   ar
     8    13     3    1
     9     4     3    1
    10     4     5    1
    11     3     2    2
    12     7     8    1
    13     7     6    1
    14     8     9    1
    15     5     6    1
    16     5     1    2
    17     9    10    1
    18     2     1    1
    19     6    11    1
    20    11    10    1
