@<TRIPOS>MOLECULE
1wb0_VR0_B_1.pdb
 15 14 0 0 0
SMALL
GASTEIGER

@<TRIPOS>ATOM
      1  C1        11.4070    1.5140   11.5580 C.3   1388  VR01388     0.1418
      2  NH2       16.1240    3.0640   12.4230 N.pl3 1388  VR01388     0.1298
      3  O1        13.7400    2.3340   12.6280 O.2   1388  VR01388    -0.2284
      4  O         23.4180    3.8540   11.1000 O.2   1388  VR01388    -0.2867
      5  CG        19.1640    3.7710    9.8300 C.3   1388  VR01388     0.0489
      6  CD        18.0480    4.1900   10.7770 C.3   1388  VR01388     0.2202
      7  CB        20.5050    4.3610   10.2870 C.3   1388  VR01388     0.0307
      8  NH3       12.5590    1.9800   10.7560 N.am  1388  VR01388    -0.1697
      9  NE        16.7530    3.6880   10.2830 N.pl3 1388  VR01388    -0.0911
     10  NH1       14.6680    2.7910   10.6250 N.am  1388  VR01388     0.0241
     11  N         21.6290    2.3160    9.6500 N.3   1388  VR01388    -0.1245
     12  CZ        15.8410    3.2080   11.1210 C.2   1388  VR01388     0.4938
     13  C6        13.6660    2.3480   11.3970 C.2   1388  VR01388     0.4188
     14  C         22.9990    4.3010   10.0260 C.2   1388  VR01388     0.2260
     15  CA        21.6620    3.7740    9.4700 C.3   1388  VR01388     0.1563
@<TRIPOS>BOND
     1    15    11    1
     2    15    14    1
     3    15     7    1
     4     5     7    1
     5     5     6    1
     6    14     4    2
     7     9     6    1
     8     9    12    1
     9    10    12    1
    10    10    13   am
    11     8    13   am
    12     8     1    1
    13    12     2    2
    14    13     3    2
