@<TRIPOS>MOLECULE
1wb0_MEA_B_1.pdb
 12 12 0 0 0
SMALL
GASTEIGER

@<TRIPOS>ATOM
      1  C1        24.9310    5.7090    9.8990 C.3   1389  MEA1389     0.1079
      2  N         23.6870    5.2010    9.2700 N.3   1389  MEA1389    -0.2097
      3  CA        23.2100    5.6730    7.9380 C.3   1389  MEA1389     0.1415
      4  C         24.2640    5.3580    6.8420 C.2   1389  MEA1389     0.2247
      5  O         24.7760    6.2650    6.1800 O.2   1389  MEA1389    -0.2868
      6  CB        22.9580    7.1920    7.9710 C.3   1389  MEA1389     0.0517
      7  CG        21.8380    7.5730    8.9380 C.ar  1389  MEA1389    -0.0203
      8  CD1       22.1400    7.9420   10.2690 C.ar  1389  MEA1389    -0.0042
      9  CE1       21.1050    8.3120   11.1430 C.ar  1389  MEA1389    -0.0003
     10  CZ        19.7670    8.3120   10.6980 C.ar  1389  MEA1389    -0.0000
     11  CE2       19.4660    7.9430    9.3740 C.ar  1389  MEA1389    -0.0003
     12  CD2       20.5040    7.5740    8.4940 C.ar  1389  MEA1389    -0.0042
@<TRIPOS>BOND
     1     5     4    2
     2     4     3    1
     3     3     6    1
     4     3     2    1
     5     6     7    1
     6    12     7   ar
     7    12    11   ar
     8     7     8   ar
     9     2     1    1
    10    11    10   ar
    11     8     9   ar
    12    10     9   ar
