@<TRIPOS>MOLECULE
1wb4_SXX_A_1.pdb
 16 16 0 0 0
SMALL
GASTEIGER

@<TRIPOS>ATOM
      1  C1        11.6960  113.4440   16.8220 C.ar  2086  SXX2086     0.2627
      2  C2        11.4520  112.3130   15.9630 C.ar  2086  SXX2086     0.1805
      3  C3        10.6350  112.4380   14.8330 C.ar  2086  SXX2086     0.0404
      4  C4        10.0150  113.6820   14.5650 C.ar  2086  SXX2086     0.0065
      5  C5        10.2770  114.8190   15.3700 C.ar  2086  SXX2086     0.0404
      6  C6        11.0820  114.6930   16.5190 C.ar  2086  SXX2086     0.1805
      7  O7        12.4710  113.3530   17.9440 O.3   2086  SXX2086    -0.2801
      8  O8        11.3260  115.6890   17.4330 O.3   2086  SXX2086    -0.4681
      9  O9        12.0330  111.1830   16.3910 O.3   2086  SXX2086    -0.4681
     10  C10        9.1160  113.7150   13.3810 C.2   2086  SXX2086     0.0070
     11  C11        8.4540  114.8090   12.9810 C.2   2086  SXX2086     0.0861
     12  C12        7.5750  114.7590   11.7700 C.2   2086  SXX2086     0.3880
     13  O13        6.9970  115.9330   11.4730 O.co2 2086  SXX2086    -0.2405
     14  O14        7.3620  113.7390   11.0800 O.co2 2086  SXX2086    -0.2405
     15  C15       11.7930  109.9610   15.6850 C.3   2086  SXX2086     0.2526
     16  C14       10.5010  116.8880   17.4890 C.3   2086  SXX2086     0.2526
@<TRIPOS>BOND
     1    14    12   ar
     2    13    12   ar
     3    12    11    1
     4    11    10    2
     5    10     4    1
     6     4     3   ar
     7     4     5   ar
     8     3     2   ar
     9     5     6   ar
    10    15     9    1
    11     2     9    1
    12     2     1   ar
    13     6     1   ar
    14     6     8    1
    15     1     7    1
    16     8    16    1
