@<TRIPOS>MOLECULE
1wb5_SYR_A_1.pdb
 15 15 0 0 0
SMALL
GASTEIGER

@<TRIPOS>ATOM
      1  O3         9.6320  114.0920   12.4970 O.2   2086  SYR2086    -0.2449
      2  C8         9.6520  114.8650   13.4110 C.2   2086  SYR2086     0.3415
      3  O4         9.1270  116.0850   13.3280 O.3   2086  SYR2086    -0.4413
      4  C10        8.5790  116.4940   12.0770 C.3   2086  SYR2086     0.2560
      5  C6        10.2570  114.5430   14.7280 C.ar  2086  SYR2086     0.0819
      6  C5        10.7300  113.2560   14.9780 C.ar  2086  SYR2086     0.0469
      7  C4        11.3130  112.9150   16.2080 C.ar  2086  SYR2086     0.1807
      8  O2        11.7980  111.6250   16.5060 O.3   2086  SYR2086    -0.4681
      9  C7        11.5450  110.6280   15.5380 C.3   2086  SYR2086     0.2526
     10  C1        10.3680  115.5040   15.7330 C.ar  2086  SYR2086     0.0469
     11  C2        10.9460  115.1970   16.9750 C.ar  2086  SYR2086     0.1807
     12  O5        11.0770  116.1300   18.0240 O.3   2086  SYR2086    -0.4681
     13  C9        10.3970  117.3560   17.8500 C.3   2086  SYR2086     0.2526
     14  C3        11.4220  113.8990   17.1980 C.ar  2086  SYR2086     0.2627
     15  O1        12.0080  113.5870   18.4190 O.3   2086  SYR2086    -0.2801
@<TRIPOS>BOND
     1     4     3    1
     2     1     2    2
     3     3     2    1
     4     2     5    1
     5     5     6   ar
     6     5    10   ar
     7     6     7   ar
     8     9     8    1
     9    10    11   ar
    10     7     8    1
    11     7    14   ar
    12    11    14   ar
    13    11    12    1
    14    14    15    1
    15    13    12    1
