@<TRIPOS>MOLECULE
1wb6_VXX_A_1.pdb
 13 13 0 0 0
SMALL
GASTEIGER

@<TRIPOS>ATOM
      1  C1        10.5530  114.3810   14.4940 C.ar  2086  VXX2086     0.0789
      2  CO1       10.8640  115.4480   15.3470 C.ar  2086  VXX2086     0.0099
      3  CO2       10.9020  113.0730   14.8250 C.ar  2086  VXX2086     0.0467
      4  CM1       11.4980  115.2150   16.5760 C.ar  2086  VXX2086     0.0454
      5  CM2       11.5520  112.8350   16.0290 C.ar  2086  VXX2086     0.1776
      6  OM        11.9350  111.5970   16.4480 O.3   2086  VXX2086    -0.4682
      7  CZ        11.8610  113.9250   16.9280 C.ar  2086  VXX2086     0.2293
      8  CC         9.8580  114.6570   13.2400 C.2   2086  VXX2086     0.3414
      9  CV        11.6160  110.4260   15.6740 C.3   2086  VXX2086     0.2526
     10  O1         9.5460  113.7960   12.4470 O.2   2086  VXX2086    -0.2449
     11  O2         9.5040  116.0170   13.0630 O.3   2086  VXX2086    -0.4413
     12  O3        12.4970  113.6040   18.0970 O.3   2086  VXX2086    -0.2833
     13  C9         8.7070  116.3740   11.9370 C.3   2086  VXX2086     0.2560
@<TRIPOS>BOND
     1    13    11    1
     2    10     8    2
     3    11     8    1
     4     8     1    1
     5     1     3   ar
     6     1     2   ar
     7     3     5   ar
     8     2     4   ar
     9     9     6    1
    10     5     6    1
    11     5     7   ar
    12     4     7   ar
    13     7    12    1
