@<TRIPOS>MOLECULE
1wb9_ADP_A_1.pdb
 27 29 0 0 0
SMALL
GASTEIGER

@<TRIPOS>ATOM
      1  PB       134.8930   46.4970    7.9490 P.3   1801  ADP1801     0.5373
      2  O1B      133.7270   45.6220    7.4140 O.3   1801  ADP1801    -0.1143
      3  O2B      134.4890   47.9660    7.8640 O.3   1801  ADP1801    -0.1143
      4  O3B      136.0110   46.2550    7.0090 O.2   1801  ADP1801    -0.2221
      5  PA       135.0000   46.9110   10.7670 P.3   1801  ADP1801     0.2231
      6  O1A      133.5310   47.1490   10.8290 O.2   1801  ADP1801    -0.5169
      7  O2A      135.8480   48.1520   10.9750 O.3   1801  ADP1801    -0.4370
      8  O3A      135.4210   46.1350    9.4260 O.3   1801  ADP1801    -0.2261
      9  O5'      135.4030   45.9750   11.9850 O.3   1801  ADP1801    -0.3111
     10  C5'      134.7090   44.7720   12.2100 C.3   1801  ADP1801     0.1813
     11  C4'      134.9140   44.3810   13.6530 C.3   1801  ADP1801     0.1821
     12  O4'      136.2810   44.0760   13.8330 O.3   1801  ADP1801    -0.3135
     13  C3'      134.5640   45.5130   14.6050 C.3   1801  ADP1801     0.2184
     14  O3'      133.3950   45.1780   15.2990 O.3   1801  ADP1801    -0.2174
     15  C2'      135.7110   45.5840   15.5740 C.3   1801  ADP1801     0.2570
     16  O2'      135.2350   45.1750   16.8320 O.3   1801  ADP1801    -0.2130
     17  C1'      136.7610   44.6040   15.0470 C.3   1801  ADP1801     0.3186
     18  N9       138.0590   45.2870   14.8400 N.pl3 1801  ADP1801    -0.1439
     19  C8       138.3450   46.2960   13.9440 C.3   1801  ADP1801     0.3377
     20  N7       139.6370   46.6740   14.0940 N.2   1801  ADP1801    -0.2095
     21  C5       140.1820   45.9290   15.0810 C.2   1801  ADP1801     0.2526
     22  C6       141.4620   45.8720   15.6270 C.2   1801  ADP1801     0.4393
     23  N6       142.4520   46.5840   15.1020 N.pl3 1801  ADP1801     0.2180
     24  N1       141.7170   44.9700   16.6410 N.2   1801  ADP1801     0.0021
     25  C2       140.7300   44.1320   17.1060 C.3   1801  ADP1801     0.5254
     26  N3       139.4600   44.1720   16.5470 N.2   1801  ADP1801    -0.0055
     27  C4       139.1980   45.0480   15.5540 C.2   1801  ADP1801     0.3518
@<TRIPOS>BOND
     1     4     1    2
     2     2     1    1
     3     3     1    1
     4     1     8    1
     5     8     5    1
     6     5     6    2
     7     5     7    1
     8     5     9    1
     9     9    10    1
    10    10    11    1
    11    11    12    1
    12    11    13    1
    13    12    17    1
    14    19    20    1
    15    19    18    1
    16    20    21    2
    17    13    14    1
    18    13    15    1
    19    18    17    1
    20    18    27    1
    21    17    15    1
    22    21    27    1
    23    21    22    1
    24    23    22    1
    25    27    26    2
    26    15    16    1
    27    22    24    2
    28    26    25    1
    29    24    25    1
