@<TRIPOS>MOLECULE
1wbb_ADP_A_1.pdb
 27 29 0 0 0
SMALL
GASTEIGER

@<TRIPOS>ATOM
      1  PB       134.5460   46.9200    7.9930 P.3   1801  ADP1801     0.5373
      2  O1B      133.4100   46.0380    7.4540 O.3   1801  ADP1801    -0.1143
      3  O2B      134.0620   48.3770    8.0040 O.3   1801  ADP1801    -0.1143
      4  O3B      135.6960   46.7220    7.0890 O.2   1801  ADP1801    -0.2221
      5  PA       134.7830   47.3950   10.7600 P.3   1801  ADP1801     0.2231
      6  O1A      133.3480   47.7060   10.8100 O.3   1801  ADP1801    -0.4370
      7  O2A      135.6780   48.6250   10.7420 O.2   1801  ADP1801    -0.5169
      8  O3A      135.0400   46.4850    9.4650 O.3   1801  ADP1801    -0.2261
      9  O5'      135.2030   46.5410   12.0490 O.3   1801  ADP1801    -0.3111
     10  C5'      134.6590   45.2520   12.2820 C.3   1801  ADP1801     0.1813
     11  C4'      134.7510   44.9190   13.7660 C.3   1801  ADP1801     0.1821
     12  O4'      136.0510   44.4460   14.0460 O.3   1801  ADP1801    -0.3135
     13  C3'      134.5020   46.1180   14.6790 C.3   1801  ADP1801     0.2184
     14  O3'      133.2180   46.0480   15.2420 O.3   1801  ADP1801    -0.2174
     15  C2'      135.5630   46.0310   15.7400 C.3   1801  ADP1801     0.2570
     16  O2'      135.0200   45.5320   16.9460 O.3   1801  ADP1801    -0.2130
     17  C1'      136.5870   45.0430   15.2060 C.3   1801  ADP1801     0.3186
     18  N9       137.8590   45.7460   14.9440 N.pl3 1801  ADP1801    -0.1439
     19  C8       138.1170   46.7200   14.0110 C.3   1801  ADP1801     0.3377
     20  N7       139.4080   47.1060   14.1260 N.2   1801  ADP1801    -0.2095
     21  C5       139.9740   46.3850   15.1210 C.2   1801  ADP1801     0.2526
     22  C6       141.2470   46.3630   15.6550 C.2   1801  ADP1801     0.4393
     23  N6       142.2000   47.1270   15.1550 N.pl3 1801  ADP1801     0.2180
     24  N1       141.5360   45.5060   16.6870 N.2   1801  ADP1801     0.0021
     25  C2       140.5660   44.6650   17.1940 C.3   1801  ADP1801     0.5254
     26  N3       139.2960   44.6870   16.6540 N.2   1801  ADP1801    -0.0055
     27  C4       139.0110   45.5360   15.6430 C.2   1801  ADP1801     0.3518
@<TRIPOS>BOND
     1     4     1    2
     2     2     1    1
     3     1     3    1
     4     1     8    1
     5     8     5    1
     6     7     5    2
     7     5     6    1
     8     5     9    1
     9     9    10    1
    10    10    11    1
    11    11    12    1
    12    11    13    1
    13    19    20    1
    14    19    18    1
    15    12    17    1
    16    20    21    2
    17    13    14    1
    18    13    15    1
    19    18    17    1
    20    18    27    1
    21    21    27    1
    22    21    22    1
    23    23    22    1
    24    17    15    1
    25    27    26    2
    26    22    24    2
    27    15    16    1
    28    26    25    1
    29    24    25    1
