@<TRIPOS>MOLECULE
1wbd_ADP_A_1.pdb
 27 29 0 0 0
SMALL
GASTEIGER

@<TRIPOS>ATOM
      1  PB       134.9580   46.5040    7.9550 P.3   1801  ADP1801     0.5373
      2  O1B      133.9220   45.4640    7.4590 O.3   1801  ADP1801    -0.1143
      3  O2B      134.3510   47.8930    7.9180 O.3   1801  ADP1801    -0.1143
      4  O3B      136.1070   46.3570    7.0440 O.2   1801  ADP1801    -0.2221
      5  PA       135.0280   46.8700   10.8130 P.3   1801  ADP1801     0.2231
      6  O1A      133.5760   47.1200   10.7920 O.2   1801  ADP1801    -0.5169
      7  O2A      135.8310   48.1820   10.9200 O.3   1801  ADP1801    -0.4370
      8  O3A      135.4420   46.0960    9.4640 O.3   1801  ADP1801    -0.2261
      9  O5'      135.3340   45.9340   12.0550 O.3   1801  ADP1801    -0.3111
     10  C5'      134.8270   44.6120   12.0990 C.3   1801  ADP1801     0.1813
     11  C4'      134.9190   44.0500   13.5020 C.3   1801  ADP1801     0.1821
     12  O4'      136.2850   43.8310   13.8230 O.3   1801  ADP1801    -0.3135
     13  C3'      134.3430   45.0080   14.5360 C.3   1801  ADP1801     0.2184
     14  O3'      133.7060   44.3150   15.5880 O.3   1801  ADP1801    -0.2174
     15  C2'      135.5640   45.6710   15.1030 C.3   1801  ADP1801     0.2570
     16  O2'      135.3200   45.9860   16.4460 O.3   1801  ADP1801    -0.2130
     17  C1'      136.6660   44.6120   14.9280 C.3   1801  ADP1801     0.3186
     18  N9       137.9820   45.2840   14.7720 N.pl3 1801  ADP1801    -0.1439
     19  C8       138.2840   46.3550   13.9650 C.3   1801  ADP1801     0.3377
     20  N7       139.5750   46.6850   14.1450 N.2   1801  ADP1801    -0.2095
     21  C5       140.1050   45.8640   15.0610 C.2   1801  ADP1801     0.2526
     22  C6       141.3880   45.7710   15.5920 C.2   1801  ADP1801     0.4393
     23  N6       142.3190   46.6320   15.1960 N.pl3 1801  ADP1801     0.2180
     24  N1       141.6640   44.7720   16.5310 N.2   1801  ADP1801     0.0021
     25  C2       140.6650   43.9010   16.9230 C.3   1801  ADP1801     0.5254
     26  N3       139.3890   43.9900   16.3820 N.2   1801  ADP1801    -0.0055
     27  C4       139.1230   44.9590   15.4620 C.2   1801  ADP1801     0.3518
@<TRIPOS>BOND
     1     4     1    2
     2     2     1    1
     3     3     1    1
     4     1     8    1
     5     8     5    1
     6     6     5    2
     7     5     7    1
     8     5     9    1
     9     9    10    1
    10    10    11    1
    11    11    12    1
    12    11    13    1
    13    12    17    1
    14    19    20    1
    15    19    18    1
    16    20    21    2
    17    13    15    1
    18    13    14    1
    19    18    17    1
    20    18    27    1
    21    17    15    1
    22    21    27    1
    23    21    22    1
    24    15    16    1
    25    23    22    1
    26    27    26    2
    27    22    24    2
    28    26    25    1
    29    24    25    1
