@<TRIPOS>MOLECULE
1wbg_L03_B_1.pdb
 14 15 0 0 0
SMALL
GASTEIGER

@<TRIPOS>ATOM
      1  C1         7.5190   20.2210   53.0210 C.3   1248  L031248     0.0862
      2  S2         8.5770   18.8600   52.4570 S.3   1248  L031248    -0.0272
      3  C3         9.3840   19.5630   51.0620 C.1   1248  L031248     0.1462
      4  N4        10.1790   18.9490   50.2190 N.2   1248  L031248    -0.0649
      5  N5        10.5760   19.7780   49.3130 N.2   1248  L031248    -0.0707
      6  C6        10.0870   20.9810   49.5620 C.1   1248  L031248     0.1191
      7  N7         9.2790   20.8610   50.6640 N.2   1248  L031248    -0.2888
      8  C8        10.2170   22.1840   48.7220 C.ar  1248  L031248     0.0765
      9  C9        11.1470   22.2490   47.6720 C.ar  1248  L031248     0.0120
     10  C10       11.1690   23.3750   46.8460 C.ar  1248  L031248     0.0121
     11  C11       10.2670   24.4170   47.0440 C.ar  1248  L031248     0.0577
     12 CL12       10.2920   25.8450   46.0240 Cl    1248  L031248    -0.0822
     13  C13        9.3370   24.3230   48.0760 C.ar  1248  L031248     0.0121
     14  C14        9.2980   23.2200   48.9040 C.ar  1248  L031248     0.0120
@<TRIPOS>BOND
     1    12    11    1
     2    10    11   ar
     3    10     9   ar
     4    11    13   ar
     5     9     8   ar
     6    13    14   ar
     7     8    14   ar
     8     8     6    1
     9     5     6    2
    10     5     4    1
    11     6     7    2
    12     4     3    2
    13     7     3    2
    14     3     2    1
    15     2     1    1
