@<TRIPOS>MOLECULE
1wbi_BTN_A_1.pdb
 16 17 0 0 0
SMALL
GASTEIGER

@<TRIPOS>ATOM
      1  C11       53.2470   35.9130   -1.7040 C.2   1001  BTN1001     0.3649
      2  O11       52.4940   36.6670   -1.0140 O.co2 1001  BTN1001    -0.2457
      3  O12       52.8330   34.7610   -2.0140 O.co2 1001  BTN1001    -0.2457
      4  C10       54.5820   36.4590   -2.0910 C.3   1001  BTN1001     0.1141
      5  C9        55.3060   35.6390   -3.1300 C.3   1001  BTN1001     0.0118
      6  C8        56.0120   34.4000   -2.5370 C.3   1001  BTN1001     0.0015
      7  C7        56.8020   33.6800   -3.6380 C.3   1001  BTN1001     0.0129
      8  C2        57.6640   32.4680   -3.1630 C.3   1001  BTN1001     0.0729
      9  S1        59.1330   32.9120   -2.3340 S.3   1001  BTN1001    -0.1369
     10  C6        59.6730   31.1940   -2.4070 C.3   1001  BTN1001     0.0848
     11  C5        59.2510   30.6850   -3.7770 C.3   1001  BTN1001     0.1509
     12  N1        60.2710   30.9290   -4.7500 N.2   1001  BTN1001    -0.1859
     13  C3        59.8060   31.7710   -5.6750 C.1   1001  BTN1001     0.2386
     14  O3        60.5410   32.1690   -6.7160 O.2   1001  BTN1001    -0.2023
     15  N2        58.6080   32.1830   -5.4200 N.2   1001  BTN1001    -0.1860
     16  C4        58.0650   31.5100   -4.2750 C.3   1001  BTN1001     0.1500
@<TRIPOS>BOND
     1    14    13    2
     2    13    15    2
     3    13    12    2
     4    15    16    1
     5    12    11    1
     6    16    11    1
     7    16     8    1
     8    11    10    1
     9     7     8    1
    10     7     6    1
    11     8     9    1
    12     5     6    1
    13     5     4    1
    14    10     9    1
    15     4     1    1
    16     3     1   ar
    17     1     2   ar
