@<TRIPOS>MOLECULE
1wbk_568_B_1.pdb
 45 49 0 0 0
SMALL
GASTEIGER

@<TRIPOS>ATOM
      1  O1         8.3920   28.2340    6.9480 O.3   1100  5681100    -0.3517
      2  C2         8.3160   27.4230    5.7600 C.3   1100  5681100     0.1637
      3  C3         8.9970   26.0610    6.0550 C.3   1100  5681100     0.1274
      4  C4         9.4390   26.3080    7.5230 C.3   1100  5681100     0.0565
      5  C5         8.5430   27.3770    8.0760 C.3   1100  5681100     0.1499
      6  C6         9.5020   28.1690    8.9720 C.3   1100  5681100     0.2114
      7  O7         8.8860   29.4350    9.2940 O.3   1100  5681100    -0.2177
      8  N8        10.1930   25.8190    5.2210 N.am  1100  5681100    -0.2024
      9  C9        10.9320   24.6860    5.2830 C.2   1100  5681100     0.2713
     10  O10       10.6510   23.7460    6.0360 O.2   1100  5681100    -0.2706
     11  C11       12.1370   24.5860    4.3610 C.3   1100  5681100     0.2258
     12  O12       11.8900   23.5500    3.3540 O.3   1100  5681100    -0.3397
     13  C13       11.3050   24.0400    2.1230 C.3   1100  5681100     0.1692
     14  C14        9.8010   24.3260    2.1710 C.ar  1100  5681100     0.0073
     15  C15        8.8970   23.3270    2.6520 C.ar  1100  5681100    -0.0019
     16  C16        7.5070   23.6040    2.7120 C.ar  1100  5681100    -0.0002
     17  C17        7.0070   24.8680    2.2960 C.ar  1100  5681100    -0.0000
     18  C18        7.9040   25.8590    1.8200 C.ar  1100  5681100    -0.0002
     19  C19        9.2950   25.5880    1.7550 C.ar  1100  5681100    -0.0019
     20  C20       13.4560   24.3360    5.1630 C.3   1100  5681100     0.2209
     21  O21       14.6010   25.0920    4.6350 O.3   1100  5681100    -0.2171
     22  C22       13.9290   22.8920    5.0270 C.3   1100  5681100     0.2209
     23  O23       14.2790   22.5670    3.6450 O.3   1100  5681100    -0.2171
     24  C24       15.1710   22.6500    5.9110 C.3   1100  5681100     0.2258
     25  C25       15.3230   21.1460    5.8770 C.2   1100  5681100     0.2716
     26  N26       16.5120   20.6570    5.4620 N.am  1100  5681100    -0.1979
     27  C27       16.7500   19.2200    5.2880 C.3   1100  5681100     0.1478
     28  C28       18.1820   18.8100    5.7570 C.3   1100  5681100     0.1802
     29  C29       18.5780   17.5850    4.8890 C.3   1100  5681100     0.0611
     30  C30       17.8070   17.8630    3.6140 C.ar  1100  5681100    -0.0218
     31  C31       16.7670   18.7870    3.8320 C.ar  1100  5681100    -0.0040
     32  C32       15.9110   19.1960    2.7710 C.ar  1100  5681100    -0.0029
     33  C33       16.1350   18.6530    1.4730 C.ar  1100  5681100    -0.0003
     34  C34       17.1910   17.7220    1.2610 C.ar  1100  5681100    -0.0003
     35  C35       18.0400   17.3160    2.3260 C.ar  1100  5681100    -0.0044
     36  O36       19.0480   19.9210    5.4590 O.3   1100  5681100    -0.2206
     37  O37       14.3390   20.4560    6.1640 O.2   1100  5681100    -0.2706
     38  O38       14.8810   23.1460    7.2730 O.3   1100  5681100    -0.3397
     39  C39       16.0220   23.5510    8.0770 C.3   1100  5681100     0.1692
     40  C40       16.6860   22.3180    8.7070 C.ar  1100  5681100     0.0073
     41  C41       18.0760   22.1030    8.5420 C.ar  1100  5681100    -0.0019
     42  C42       18.6860   20.9540    9.1120 C.ar  1100  5681100    -0.0002
     43  C43       17.9130   20.0100    9.8370 C.ar  1100  5681100    -0.0000
     44  C44       16.5180   20.2180   10.0090 C.ar  1100  5681100    -0.0002
     45  C45       15.9000   21.3710    9.4400 C.ar  1100  5681100    -0.0019
@<TRIPOS>BOND
     1    34    33   ar
     2    34    35   ar
     3    33    32   ar
     4    19    18   ar
     5    19    14   ar
     6    18    17   ar
     7    13    14    1
     8    13    12    1
     9    14    15   ar
    10    17    16   ar
    11    35    30   ar
    12    15    16   ar
    13    32    31   ar
    14    12    11    1
    15    30    31   ar
    16    30    29    1
    17    23    22    1
    18    31    27    1
    19    11    20    1
    20    11     9    1
    21    21    20    1
    22    29    28    1
    23    22    20    1
    24    22    24    1
    25     8     9   am
    26     8     3    1
    27     9    10    2
    28    27    26    1
    29    27    28    1
    30    36    28    1
    31    26    25   am
    32     2     3    1
    33     2     1    1
    34    25    24    1
    35    25    37    2
    36    24    38    1
    37     3     4    1
    38     1     5    1
    39    38    39    1
    40     4     5    1
    41     5     6    1
    42    39    40    1
    43    41    40   ar
    44    41    42   ar
    45    40    45   ar
    46     6     7    1
    47    42    43   ar
    48    45    44   ar
    49    43    44   ar
