@<TRIPOS>MOLECULE
1wbl_NAG_A_1.pdb
 14 14 0 0 0
SMALL
GASTEIGER

@<TRIPOS>ATOM
      1  C1       140.6060    1.8490    3.7420 C.3   501  NAG501      0.1665
      2  C2       141.3970    3.1010    3.6720 C.3   501  NAG501      0.1576
      3  C3       142.8990    2.8170    3.7420 C.3   501  NAG501      0.2069
      4  C4       143.2490    1.9350    4.8850 C.3   501  NAG501      0.2134
      5  C5       142.3590    0.7180    4.8980 C.3   501  NAG501      0.1809
      6  C6       142.5110   -0.0580    6.1800 C.3   501  NAG501      0.2141
      7  C7       141.0360    4.7650    1.9310 C.2   501  NAG501      0.2420
      8  C8       140.6410    4.9950    0.4890 C.3   501  NAG501      0.0964
      9  N2       141.0360    3.4980    2.3210 N.am  501  NAG501     -0.2019
     10  O3       143.7000    3.9890    3.8690 O.3   501  NAG501     -0.2184
     11  O4       144.5900    1.5410    4.6950 O.3   501  NAG501     -0.2176
     12  O5       141.0080    1.1020    4.8400 O.3   501  NAG501     -0.3489
     13  O6       141.8530    0.6410    7.2250 O.3   501  NAG501     -0.2176
     14  O7       141.2670    5.6930    2.6990 O.2   501  NAG501     -0.2733
@<TRIPOS>BOND
     1     8     7    1
     2     7     9   am
     3     7    14    2
     4     9     2    1
     5     2     1    1
     6     2     3    1
     7     1    12    1
     8     3    10    1
     9     3     4    1
    10    11     4    1
    11    12     5    1
    12     4     5    1
    13     5     6    1
    14     6    13    1
