@<TRIPOS>MOLECULE
1wbl_AMG_A_1.pdb
 13 13 0 0 0
SMALL
GASTEIGER

@<TRIPOS>ATOM
      1  C1       127.3190    8.0570   -2.6120 C.3   400  AMG400      0.2695
      2  C2       125.9800    7.7600   -1.8890 C.3   400  AMG400      0.2406
      3  C3       126.1440    7.9760   -0.3940 C.3   400  AMG400      0.2198
      4  C4       127.2890    7.0930    0.1180 C.3   400  AMG400      0.2144
      5  C5       128.6070    7.3820   -0.6320 C.3   400  AMG400      0.1835
      6  C6       129.7040    6.3800   -0.1690 C.3   400  AMG400      0.2142
      7  C7       128.9890    9.6790   -2.9110 C.3   400  AMG400      0.1769
      8  O1       127.6690    9.4160   -2.4590 O.3   400  AMG400     -0.3259
      9  O2       124.9090    8.5680   -2.3390 O.3   400  AMG400     -0.2149
     10  O3       124.9290    7.6850    0.2730 O.3   400  AMG400     -0.2174
     11  O4       126.9580    5.7290   -0.0530 O.3   400  AMG400     -0.2176
     12  O5       128.3430    7.2220   -2.0420 O.3   400  AMG400     -0.3256
     13  O6       131.0430    6.8290   -0.3830 O.3   400  AMG400     -0.2176
@<TRIPOS>BOND
     1     7     8    1
     2     1     8    1
     3     1    12    1
     4     1     2    1
     5     9     2    1
     6    12     5    1
     7     2     3    1
     8     5     6    1
     9     5     4    1
    10     3     4    1
    11     3    10    1
    12    13     6    1
    13    11     4    1
