@<TRIPOS>MOLECULE
1wbm_BLL_B_1.pdb
 48 53 0 0 0
SMALL
GASTEIGER

@<TRIPOS>ATOM
      1  C01        9.1740   24.2450    2.0200 C.ar  1100  BLL1100    -0.0222
      2  C02        8.4700   25.4670    1.6620 C.ar  1100  BLL1100    -0.0043
      3  C03        7.0430   25.6560    1.9030 C.ar  1100  BLL1100    -0.0003
      4  C04        6.2750   24.5890    2.5320 C.ar  1100  BLL1100    -0.0000
      5  C05        6.9400   23.3460    2.9090 C.ar  1100  BLL1100    -0.0003
      6  C06        8.3680   23.1770    2.6560 C.ar  1100  BLL1100    -0.0043
      7  C07       16.7310   21.8720    9.1080 C.ar  1100  BLL1100    -0.0222
      8  C08       15.6900   21.0830    9.8120 C.ar  1100  BLL1100    -0.0043
      9  C09       16.0030   19.7570   10.3370 C.ar  1100  BLL1100    -0.0003
     10  C10       17.3390   19.2010   10.1740 C.ar  1100  BLL1100    -0.0000
     11  C11       18.3710   19.9660    9.4860 C.ar  1100  BLL1100    -0.0003
     12  C12       18.0700   21.2890    8.9560 C.ar  1100  BLL1100    -0.0043
     13  C13       16.4420   23.2780    8.5280 C.3   1100  BLL1100     0.0269
     14  C14       15.1900   23.4440    7.7480 C.3   1100  BLL1100     0.0165
     15  C15       15.2500   23.0440    6.3270 C.3   1100  BLL1100     0.1114
     16  C16       14.1880   23.7430    5.3820 C.3   1100  BLL1100     0.1912
     17  C17       13.4130   23.0040    4.3350 C.3   1100  BLL1100     0.1912
     18  C18       12.1530   23.8360    3.8110 C.3   1100  BLL1100     0.1114
     19  C19       11.0630   23.8870    4.9120 C.2   1100  BLL1100     0.2438
     20  O20       10.7720   22.9520    5.6550 O.2   1100  BLL1100    -0.2733
     21  N21       10.4190   25.0830    4.9600 N.am  1100  BLL1100    -0.2000
     22  C22       11.5150   23.2610    2.5780 C.3   1100  BLL1100     0.0165
     23  C23       10.6900   24.1470    1.7260 C.3   1100  BLL1100     0.0269
     24  O24       14.3430   22.6470    3.3030 O.3   1100  BLL1100    -0.2199
     25  O25       14.7720   24.9260    4.7310 O.3   1100  BLL1100    -0.2199
     26  C26       15.2190   21.5440    6.1200 C.2   1100  BLL1100     0.2438
     27  O27       14.1950   20.9220    6.4410 O.2   1100  BLL1100    -0.2733
     28  N28       16.3510   20.9540    5.6220 N.am  1100  BLL1100    -0.2000
     29  C29       16.5320   19.5380    5.3900 C.3   1100  BLL1100     0.1477
     30  C30       16.4250   19.1310    3.9340 C.ar  1100  BLL1100    -0.0040
     31  C31       17.3630   18.0540    3.6470 C.ar  1100  BLL1100    -0.0218
     32  C32       15.5640   19.6440    2.8640 C.ar  1100  BLL1100    -0.0029
     33  C33       15.6610   19.0670    1.5210 C.ar  1100  BLL1100    -0.0003
     34  C34       16.6120   17.9890    1.2600 C.ar  1100  BLL1100    -0.0003
     35  C35       17.9010   18.9420    5.7640 C.3   1100  BLL1100     0.1802
     36  O36       18.9200   19.9280    5.5750 O.3   1100  BLL1100    -0.2206
     37  C37       17.4690   17.4740    2.3180 C.ar  1100  BLL1100    -0.0044
     38  C38       18.1310   17.6940    4.8840 C.3   1100  BLL1100     0.0611
     39  C39        9.3350   25.5570    5.7860 C.3   1100  BLL1100     0.1477
     40  C40        9.5900   26.2320    7.1170 C.ar  1100  BLL1100    -0.0040
     41  C41        8.5530   27.1370    7.5930 C.ar  1100  BLL1100    -0.0218
     42  C42       10.8060   26.0170    7.9210 C.ar  1100  BLL1100    -0.0029
     43  C43       10.9470   26.7260    9.1930 C.ar  1100  BLL1100    -0.0003
     44  C44        9.8940   27.6350    9.6610 C.ar  1100  BLL1100    -0.0003
     45  C45        8.6860   27.8470    8.8620 C.ar  1100  BLL1100    -0.0044
     46  C46        8.1680   26.6940    5.5800 C.3   1100  BLL1100     0.1802
     47  O47        8.6120   27.3940    4.8880 O.3   1100  BLL1100    -0.2206
     48  C48        7.6160   27.1800    6.7720 C.3   1100  BLL1100     0.0611
@<TRIPOS>BOND
     1    34    33   ar
     2    34    37   ar
     3    33    32   ar
     4     2     3   ar
     5     2     1   ar
     6    23     1    1
     7    23    22    1
     8     3     4   ar
     9     1     6   ar
    10    37    31   ar
    11     4     5   ar
    12    22    18    1
    13     6     5   ar
    14    32    30   ar
    15    24    17    1
    16    31    30   ar
    17    31    38    1
    18    18    17    1
    19    18    19    1
    20    30    29    1
    21    17    16    1
    22    25    16    1
    23    38    35    1
    24    47    46    1
    25    19    21   am
    26    19    20    2
    27    21    39    1
    28    16    15    1
    29    29    28    1
    30    29    35    1
    31    36    35    1
    32    46    39    1
    33    46    48    1
    34    28    26   am
    35    39    40    1
    36    26    15    1
    37    26    27    2
    38    15    14    1
    39    48    41    1
    40    40    41   ar
    41    40    42   ar
    42    41    45   ar
    43    14    13    1
    44    42    43   ar
    45    13     7    1
    46    45    44   ar
    47    12     7   ar
    48    12    11   ar
    49     7     8   ar
    50    43    44   ar
    51    11    10   ar
    52     8     9   ar
    53    10     9   ar
