@<TRIPOS>MOLECULE
1wbn_L09_A_1.pdb
 28 30 0 0 0
SMALL
GASTEIGER

@<TRIPOS>ATOM
      1  C1         4.6140   14.2610   41.5920 C.3   1355  L091355     0.0057
      2  C2         5.8450   15.1930   41.5340 C.3   1355  L091355     0.0359
      3  C3         5.6740   16.3200   42.5570 C.3   1355  L091355     0.0057
      4  C4         7.1040   14.3520   41.9250 C.3   1355  L091355     0.0057
      5  C5         6.0560   15.7640   40.1200 C.2   1355  L091355     0.0948
      6  C6         6.0610   15.0720   38.9340 C.3   1355  L091355     0.1691
      7  C7         6.3100   15.9840   37.9150 C.2   1355  L091355     0.3791
      8  N8         6.3900   15.7740   36.5020 N.am  1355  L091355     0.0504
      9  C9         6.1000   14.6060   35.8160 C.2   1355  L091355     0.4578
     10  O10        5.5610   13.6520   36.3430 O.2   1355  L091355    -0.2174
     11  N11        6.4220   14.5830   34.4770 N.am  1355  L091355    -0.1370
     12  C12        6.2570   13.5100   33.5470 C.ar  1355  L091355     0.0770
     13  C13        7.3000   13.3640   32.5670 C.ar  1355  L091355     0.0176
     14  C14        7.2450   12.3610   31.5820 C.ar  1355  L091355     0.0125
     15  C15        6.1150   11.4670   31.5390 C.ar  1355  L091355     0.0572
     16 CL16        6.1290   10.2730   30.2850 Cl    1355  L091355    -0.0825
     17  C17        5.0540   11.5830   32.5100 C.ar  1355  L091355     0.0330
     18  C18        3.8350   10.6570   32.4930 C.3   1355  L091355     0.2329
     19  O19        3.0610   10.9960   31.3230 O.3   1355  L091355    -0.4690
     20  C20        2.0590   10.0990   30.9970 C.ar  1355  L091355     0.1581
     21  C21        1.1460   10.4820   29.9550 C.ar  1355  L091355     0.0401
     22  C22        0.0820    9.6050   29.5550 C.ar  1355  L091355     0.0238
     23  C23       -0.0400    8.3630   30.2040 C.ar  1355  L091355     0.0991
     24  N24        0.8350    8.0040   31.1960 N.ar  1355  L091355    -0.2391
     25  C25        1.8600    8.7960   31.6140 C.ar  1355  L091355     0.1356
     26  C26        5.1170   12.6090   33.5070 C.ar  1355  L091355     0.0169
     27  N27        6.4480   17.1660   38.4640 N.2   1355  L091355     0.0794
     28  N28        6.2940   17.0560   39.8300 N.2   1355  L091355    -0.0426
@<TRIPOS>BOND
     1    22    21   ar
     2    22    23   ar
     3    21    20   ar
     4    23    24   ar
     5    16    15    1
     6    20    19    1
     7    20    25   ar
     8    24    25   ar
     9    19    18    1
    10    15    14   ar
    11    15    17   ar
    12    14    13   ar
    13    18    17    1
    14    17    26   ar
    15    13    12   ar
    16    26    12   ar
    17    12    11    1
    18    11     9   am
    19     9    10    2
    20     9     8   am
    21     8     7    1
    22     7    27    2
    23     7     6    1
    24    27    28    1
    25     6     5    1
    26    28     5    2
    27     5     2    1
    28     2     1    1
    29     2     4    1
    30     2     3    1
