@<TRIPOS>MOLECULE
1wbs_LI2_A_1.pdb
 33 37 0 0 0
SMALL
GASTEIGER

@<TRIPOS>ATOM
      1  F1         8.3180   17.9930   37.4450 F     1355  LI21355    -0.2041
      2  C2         7.6970   16.8470   37.7910 C.ar  1355  LI21355     0.1415
      3  C3         7.4690   16.5540   39.1310 C.ar  1355  LI21355     0.0441
      4  C4         6.8000   15.3920   39.5290 C.ar  1355  LI21355     0.0504
      5  C5         6.4230   14.5080   38.5100 C.ar  1355  LI21355     0.0192
      6  C6         6.6510   14.7930   37.1560 C.ar  1355  LI21355     0.0588
      7  C7         7.2950   15.9760   36.7940 C.ar  1355  LI21355     0.0343
      8  C8         6.2270   13.8110   36.1220 C.2   1355  LI21355     0.2691
      9  O9         5.2390   13.1310   36.3430 O.2   1355  LI21355    -0.2680
     10  N10        7.0090   13.6810   35.0110 N.am  1355  LI21355    -0.1758
     11  C11        6.8070   12.7690   33.9560 C.2   1355  LI21355     0.0701
     12  C12        7.8600   11.9170   33.5820 C.2   1355  LI21355     0.0175
     13  C13        7.7290   11.0010   32.5530 C.2   1355  LI21355     0.0167
     14  C14        6.5350   10.9230   31.8540 C.2   1355  LI21355     0.0666
     15  N15        6.1000   10.1270   30.8130 N.2   1355  LI21355    -0.2482
     16  C17        4.8030   10.4600   30.5020 C.2   1355  LI21355     0.0906
     17  C18        4.3710   11.4520   31.3070 C.2   1355  LI21355    -0.0155
     18  C19        3.0110   12.1060   31.3050 C.3   1355  LI21355     0.0290
     19  C20        2.2040   11.6290   32.5140 C.3   1355  LI21355     0.0309
     20  C21        1.7530   10.1990   32.3490 C.ar  1355  LI21355    -0.0188
     21  C22        0.6990    9.8620   31.5030 C.ar  1355  LI21355     0.0164
     22  C23        0.3190    8.5320   31.3850 C.ar  1355  LI21355     0.0986
     23  N24        0.9390    7.5840   32.0770 N.ar  1355  LI21355    -0.2423
     24  C25        1.9410    7.8700   32.8890 C.ar  1355  LI21355     0.0986
     25  C26        2.3770    9.1750   33.0560 C.ar  1355  LI21355     0.0164
     26  C27        5.4710   11.7790   32.2170 C.3   1355  LI21355     0.0832
     27  C28        5.6130   12.7130   33.2620 C.2   1355  LI21355     0.0002
     28  N29        6.5920   15.0760   40.9080 N.pl3 1355  LI21355    -0.3027
     29  C30        5.6800   13.9520   41.1820 C.3   1355  LI21355     0.1231
     30  C31        5.8330   13.5300   42.6410 C.3   1355  LI21355     0.1636
     31  O32        5.4740   14.6290   43.4950 O.3   1355  LI21355    -0.3501
     32  C33        6.3890   15.7080   43.2810 C.3   1355  LI21355     0.1636
     33  C34        6.3200   16.2010   41.8310 C.3   1355  LI21355     0.1231
@<TRIPOS>BOND
     1    16    15    1
     2    16    17    2
     3    15    14    2
     4    18    17    1
     5    18    19    1
     6    17    26    1
     7    22    21   ar
     8    22    23   ar
     9    21    20   ar
    10    14    26    1
    11    14    13    1
    12    23    24   ar
    13    26    27    1
    14    20    19    1
    15    20    25   ar
    16    13    12    2
    17    24    25   ar
    18    27    11    2
    19    12    11    1
    20    11    10    1
    21    10     8   am
    22     8     9    2
    23     8     6    1
    24     7     6   ar
    25     7     2   ar
    26     6     5   ar
    27     1     2    1
    28     2     3   ar
    29     5     4   ar
    30     3     4   ar
    31     4    28    1
    32    28    29    1
    33    28    33    1
    34    29    30    1
    35    33    32    1
    36    30    31    1
    37    32    31    1
