@<TRIPOS>MOLECULE
1wbt_WBT_A_1.pdb
 33 37 0 0 0
SMALL
GASTEIGER

@<TRIPOS>ATOM
      1  F1         8.5170   17.8710   37.3420 F     1355  WBT1355    -0.2041
      2  C2         7.7780   16.7860   37.6800 C.ar  1355  WBT1355     0.1415
      3  C3         7.3960   16.5710   39.0150 C.ar  1355  WBT1355     0.0441
      4  C4         6.6340   15.4460   39.4040 C.ar  1355  WBT1355     0.0504
      5  C5         6.2390   14.5840   38.3830 C.ar  1355  WBT1355     0.0192
      6  C6         6.6010   14.7970   37.0300 C.ar  1355  WBT1355     0.0588
      7  C7         7.3770   15.9070   36.6910 C.ar  1355  WBT1355     0.0343
      8  C8         6.1690   13.8200   35.9850 C.2   1355  WBT1355     0.2691
      9  O9         5.1920   13.1170   36.2150 O.2   1355  WBT1355    -0.2680
     10  N10        6.8640   13.7400   34.8010 N.am  1355  WBT1355    -0.1754
     11  C11        6.6040   12.8000   33.7920 C.ar  1355  WBT1355     0.0751
     12  C12        7.6230   11.9270   33.3830 C.ar  1355  WBT1355     0.0167
     13  C13        7.4470   10.9740   32.4070 C.ar  1355  WBT1355     0.0028
     14  C14        6.2130   10.9130   31.7570 C.ar  1355  WBT1355     0.0174
     15  C15        5.6640   10.0750   30.6820 C.ar  1355  WBT1355     0.0201
     16  C16        4.3930   10.5140   30.5030 C.ar  1355  WBT1355     0.0759
     17  N17        4.0860   11.5530   31.3690 N.ar  1355  WBT1355    -0.3257
     18  C18        2.8020   12.2720   31.4770 C.3   1355  WBT1355     0.1107
     19  C19        2.0160   11.7110   32.6740 C.3   1355  WBT1355     0.0509
     20  C20        1.6870   10.2690   32.4170 C.ar  1355  WBT1355    -0.0171
     21  C21        0.6300    9.9180   31.5660 C.ar  1355  WBT1355     0.0165
     22  C22        0.3780    8.5670   31.3380 C.ar  1355  WBT1355     0.0986
     23  N23        1.1140    7.6290   31.9090 N.ar  1355  WBT1355    -0.2423
     24  C24        2.1390    7.9340   32.7000 C.ar  1355  WBT1355     0.0986
     25  C25        2.4560    9.2530   32.9810 C.ar  1355  WBT1355     0.0165
     26  C26        5.1780   11.8210   32.1440 C.ar  1355  WBT1355     0.0612
     27  C27        5.3800   12.7690   33.1510 C.ar  1355  WBT1355     0.0338
     28  N28        6.1980   15.2360   40.7580 N.pl3 1355  WBT1355    -0.3027
     29  C29        6.1570   13.8640   41.2690 C.3   1355  WBT1355     0.1231
     30  C30        5.3990   13.8950   42.5930 C.3   1355  WBT1355     0.1636
     31  O31        6.0730   14.6950   43.5610 O.3   1355  WBT1355    -0.3501
     32  C32        6.2140   16.0430   43.1350 C.3   1355  WBT1355     0.1636
     33  C33        6.7520   16.1990   41.7220 C.3   1355  WBT1355     0.1231
@<TRIPOS>BOND
     1    16    15   ar
     2    16    17   ar
     3    15    14   ar
     4    22    21   ar
     5    22    23   ar
     6    17    18    1
     7    17    26   ar
     8    18    19    1
     9    21    20   ar
    10    14    26   ar
    11    14    13   ar
    12    23    24   ar
    13    26    27   ar
    14    13    12   ar
    15    20    19    1
    16    20    25   ar
    17    24    25   ar
    18    27    11   ar
    19    12    11   ar
    20    11    10    1
    21    10     8   am
    22     8     9    2
    23     8     6    1
    24     7     6   ar
    25     7     2   ar
    26     6     5   ar
    27     1     2    1
    28     2     3   ar
    29     5     4   ar
    30     3     4   ar
    31     4    28    1
    32    28    29    1
    33    28    33    1
    34    29    30    1
    35    33    32    1
    36    30    31    1
    37    32    31    1
