@<TRIPOS>MOLECULE
1wbv_LI3_A_1.pdb
 25 28 0 0 0
SMALL
GASTEIGER

@<TRIPOS>ATOM
      1  F1         8.4050   18.4910   36.4830 F     1355  LI31355    -0.2041
      2  C2         7.6350   17.4410   36.8400 C.ar  1355  LI31355     0.1415
      3  C3         7.4030   17.1950   38.1810 C.ar  1355  LI31355     0.0441
      4  C4         6.5850   16.1280   38.5840 C.ar  1355  LI31355     0.0504
      5  C5         6.0370   15.2960   37.6020 C.ar  1355  LI31355     0.0192
      6  C6         6.2710   15.5390   36.2440 C.ar  1355  LI31355     0.0588
      7  C7         7.0810   16.6180   35.8690 C.ar  1355  LI31355     0.0343
      8  C8         5.6700   14.6100   35.2400 C.2   1355  LI31355     0.2691
      9  O9         4.7170   13.9150   35.5760 O.2   1355  LI31355    -0.2680
     10  N10        6.2310   14.5220   34.0000 N.am  1355  LI31355    -0.1758
     11  C11        5.7770   13.6530   32.9750 C.2   1355  LI31355     0.0701
     12  C12        4.4250   13.5690   32.6220 C.2   1355  LI31355     0.0175
     13  C13        3.9950   12.7190   31.6210 C.2   1355  LI31355     0.0167
     14  C14        4.9240   11.9350   30.9260 C.2   1355  LI31355     0.0669
     15  N15        4.8220   11.0180   29.8940 N.2   1355  LI31355    -0.2478
     16  C17        6.0630   10.5350   29.5840 C.2   1355  LI31355     0.0946
     17  C18        6.9810   11.1110   30.3670 C.2   1355  LI31355     0.0045
     18  C19        6.2880   12.0290   31.2620 C.3   1355  LI31355     0.0869
     19  C20        6.7100   12.8890   32.2890 C.2   1355  LI31355     0.0006
     20  N21        6.3750   15.8820   39.9590 N.pl3 1355  LI31355    -0.3027
     21  C22        5.4610   14.7780   40.3130 C.3   1355  LI31355     0.1231
     22  C23        5.5990   14.4920   41.8040 C.3   1355  LI31355     0.1636
     23  O24        5.3600   15.6820   42.5740 O.3   1355  LI31355    -0.3501
     24  C25        6.3440   16.6720   42.2460 C.3   1355  LI31355     0.1636
     25  C26        6.1450   17.0800   40.7890 C.3   1355  LI31355     0.1231
@<TRIPOS>BOND
     1    16    15    1
     2    16    17    2
     3    15    14    2
     4    17    18    1
     5    14    18    1
     6    14    13    1
     7    18    19    1
     8    13    12    2
     9    19    11    2
    10    12    11    1
    11    11    10    1
    12    10     8   am
    13     8     9    2
    14     8     6    1
    15     7     6   ar
    16     7     2   ar
    17     6     5   ar
    18     1     2    1
    19     2     3   ar
    20     5     4   ar
    21     3     4   ar
    22     4    20    1
    23    20    21    1
    24    20    25    1
    25    21    22    1
    26    25    24    1
    27    22    23    1
    28    24    23    1
