@<TRIPOS>MOLECULE
1wbw_LI4_A_1.pdb
 19 21 0 0 0
SMALL
GASTEIGER

@<TRIPOS>ATOM
      1  C1        23.3150   33.7280   30.2180 C.ar  1355  LI41355     0.0239
      2  C2        22.5070   32.7670   30.8230 C.ar  1355  LI41355     0.0415
      3  C3        21.5170   33.1940   31.7160 C.ar  1355  LI41355     0.1736
      4  C4        21.3980   34.5600   31.9810 C.ar  1355  LI41355     0.2039
      5  C6        23.1410   35.0690   30.5420 C.ar  1355  LI41355     0.1006
      6  O10       20.6890   32.3100   32.3530 O.3   1355  LI41355    -0.4677
      7  N12       20.4400   34.9940   32.8810 N.pl3 1355  LI41355    -0.1039
      8  C13       17.7400   32.4630   30.9130 C.ar  1355  LI41355    -0.0002
      9  C15       17.7700   31.3370   31.7630 C.ar  1355  LI41355    -0.0005
     10  C16       16.5410   30.8490   32.3440 C.ar  1355  LI41355    -0.0002
     11  C17       15.3390   31.5100   32.0470 C.ar  1355  LI41355    -0.0000
     12  C18       15.3860   32.5830   31.2150 C.ar  1355  LI41355    -0.0000
     13  C19       16.5610   33.0590   30.6550 C.ar  1355  LI41355    -0.0000
     14  C23       18.9960   30.6800   32.0600 C.ar  1355  LI41355     0.0212
     15  C24       18.9830   29.5920   32.9000 C.ar  1355  LI41355    -0.0007
     16  C25       17.7840   29.1280   33.4630 C.ar  1355  LI41355    -0.0002
     17  C26       16.5740   29.7330   33.2020 C.ar  1355  LI41355    -0.0000
     18  N3        22.2070   35.4430   31.4040 N.ar  1355  LI41355    -0.2234
     19  C9        20.2950   31.2140   31.4840 C.3   1355  LI41355     0.2321
@<TRIPOS>BOND
     1     1     5   ar
     2     1     2   ar
     3     5    18   ar
     4    13     8   ar
     5    13    12   ar
     6     2     3   ar
     7     8     9   ar
     8    12    11   ar
     9    18     4   ar
    10    19    14    1
    11    19     6    1
    12     3     4   ar
    13     3     6    1
    14     9    14   ar
    15     9    10   ar
    16     4     7    1
    17    11    10   ar
    18    14    15   ar
    19    10    17   ar
    20    15    16   ar
    21    17    16   ar
