@<TRIPOS>MOLECULE
1wc0_APC_A_1.pdb
 31 33 0 0 0
SMALL
GASTEIGER

@<TRIPOS>ATOM
      1  PG        15.2380    5.2960   55.8420 P.3   1500  APC1500     0.5389
      2  O1G       15.4520    4.5960   57.2020 O.3   1500  APC1500    -0.1143
      3  O2G       13.7490    5.5110   55.6560 O.3   1500  APC1500    -0.1143
      4  O3G       15.7500    4.3900   54.7600 O.2   1500  APC1500    -0.2220
      5  PB        17.5240    6.9510   55.9900 P.3   1500  APC1500     0.3895
      6  O1B       18.3430    6.0780   54.9980 O.2   1500  APC1500    -0.2544
      7  O2B       17.8840    8.4430   55.7230 O.3   1500  APC1500    -0.1388
      8  O3B       15.9490    6.7630   55.7790 O.3   1500  APC1500    -0.2026
      9  PA        19.6180    6.7350   58.0820 P.3   1500  APC1500     0.3820
     10  O1A       20.5420    5.8010   57.2510 O.2   1500  APC1500    -0.2548
     11  O2A       20.0430    8.2240   57.8360 O.3   1500  APC1500    -0.1392
     12  C3A       17.8910    6.5270   57.6840 C.3   1500  APC1500     0.2357
     13  O5'       19.7530    6.3850   59.6490 O.3   1500  APC1500    -0.2896
     14  C5'       19.6020    5.0680   60.0780 C.3   1500  APC1500     0.1836
     15  C4'       20.8170    4.6530   60.9010 C.3   1500  APC1500     0.1822
     16  O4'       20.5910    3.4070   61.6030 O.3   1500  APC1500    -0.3135
     17  C3'       22.0360    4.4360   60.0360 C.3   1500  APC1500     0.2184
     18  O3'       23.1820    4.9420   60.7920 O.3   1500  APC1500    -0.2174
     19  C2'       22.0460    2.9180   59.8270 C.3   1500  APC1500     0.2570
     20  O2'       23.3750    2.4960   59.4600 O.3   1500  APC1500    -0.2130
     21  C1'       21.5830    2.4320   61.1980 C.3   1500  APC1500     0.3186
     22  N9        20.9040    1.1240   61.1810 N.pl3 1500  APC1500    -0.1439
     23  C8        19.5500    0.8960   61.1540 C.3   1500  APC1500     0.3377
     24  N7        19.1920   -0.3330   61.1610 N.2   1500  APC1500    -0.2095
     25  C5        20.4190   -1.0290   61.2010 C.2   1500  APC1500     0.2526
     26  C6        20.7100   -2.4210   61.2540 C.2   1500  APC1500     0.4393
     27  N6        19.7790   -3.3570   61.2660 N.pl3 1500  APC1500     0.2180
     28  N1        22.0240   -2.7850   61.2870 N.2   1500  APC1500     0.0021
     29  C2        22.9890   -1.7810   61.2780 C.3   1500  APC1500     0.5254
     30  N3        22.8100   -0.4770   61.2410 N.2   1500  APC1500    -0.0055
     31  C4        21.4760   -0.1450   61.2130 C.2   1500  APC1500     0.3518
@<TRIPOS>BOND
     1     4     1    2
     2     6     5    2
     3     3     1    1
     4     7     5    1
     5     8     1    1
     6     8     5    1
     7     1     2    1
     8     5    12    1
     9    10     9    2
    10    12     9    1
    11    11     9    1
    12     9    13    1
    13    20    19    1
    14    13    14    1
    15    19    17    1
    16    19    21    1
    17    17    18    1
    18    17    15    1
    19    14    15    1
    20    15    16    1
    21    23    24    1
    22    23    22    1
    23    24    25    2
    24    22    21    1
    25    22    31    1
    26    21    16    1
    27    25    31    1
    28    25    26    1
    29    31    30    2
    30    30    29    1
    31    26    27    1
    32    26    28    2
    33    29    28    1
