@<TRIPOS>MOLECULE
1wc1_TAT_A_1.pdb
 31 33 0 0 0
SMALL
GASTEIGER

@<TRIPOS>ATOM
      1  PG        40.5190   47.8320  147.9490 P.3   1500  TAT1500     0.5373
      2  O1A       41.6640   47.8270  146.9750 O.2   1500  TAT1500    -0.2221
      3  O2G       39.3960   48.7200  147.4920 O.3   1500  TAT1500    -0.1143
      4  O3G       41.0350   48.2910  149.2890 O.3   1500  TAT1500    -0.1143
      5  PB        39.1140   45.4850  147.1780 P.3   1500  TAT1500     0.2302
      6  O1B       38.4190   46.3790  146.1660 O.2   1500  TAT1500    -0.5167
      7  O2B       39.9460   44.4050  146.4510 O.3   1500  TAT1500    -0.4368
      8  O3B       40.0710   46.3350  148.1050 O.3   1500  TAT1500    -0.2257
      9  PA        36.7350   44.1400  147.8650 P.3   1500  TAT1500     0.4081
     10  S1G       35.3260   45.0220  148.9590 S.3   1500  TAT1500     0.0395
     11  O2A       36.4220   44.2340  146.3540 O.2   1500  TAT1500    -0.2446
     12  O3A       38.1040   44.8250  148.2230 O.3   1500  TAT1500    -0.2418
     13  O5'       36.9100   42.6540  148.2900 O.3   1500  TAT1500    -0.2834
     14  C5'       38.0320   41.8880  147.7770 C.3   1500  TAT1500     0.1844
     15  C4'       37.5420   40.7210  146.9720 C.3   1500  TAT1500     0.1822
     16  O4'       36.6960   39.8850  147.8570 O.3   1500  TAT1500    -0.3135
     17  C3'       36.6170   41.1570  145.8390 C.3   1500  TAT1500     0.2184
     18  O3'       37.3390   41.4990  144.6490 O.3   1500  TAT1500    -0.2174
     19  C2'       35.7580   39.9830  145.6720 C.3   1500  TAT1500     0.2570
     20  O2'       36.4480   39.0200  144.8700 O.3   1500  TAT1500    -0.2130
     21  C1'       35.5110   39.4850  147.0970 C.3   1500  TAT1500     0.3186
     22  N9        34.2760   40.1110  147.7010 N.pl3 1500  TAT1500    -0.1439
     23  C8        34.1800   40.9640  148.7480 C.3   1500  TAT1500     0.3377
     24  N7        32.9070   41.3290  149.0440 N.2   1500  TAT1500    -0.2095
     25  C5        32.1850   40.6780  148.1440 C.2   1500  TAT1500     0.2526
     26  C6        30.7970   40.6240  147.9190 C.2   1500  TAT1500     0.4393
     27  N6        29.9170   41.2860  148.6600 N.pl3 1500  TAT1500     0.2180
     28  N1        30.3290   39.8270  146.8520 N.2   1500  TAT1500     0.0021
     29  C2        31.2690   39.1200  146.0780 C.3   1500  TAT1500     0.5254
     30  N3        32.5910   39.0990  146.2240 N.2   1500  TAT1500    -0.0055
     31  C4        32.9980   39.8980  147.2740 C.2   1500  TAT1500     0.3518
@<TRIPOS>BOND
     1    18    17    1
     2    20    19    1
     3    19    17    1
     4    19    21    1
     5    17    15    1
     6    29    30    1
     7    29    28    1
     8     6     5    2
     9    30    31    2
    10    11     9    2
    11     7     5    1
    12    28    26    2
    13    15    14    1
    14    15    16    1
    15     2     1    2
    16    21    22    1
    17    21    16    1
    18     5     8    1
    19     5    12    1
    20    31    22    1
    21    31    25    1
    22     3     1    1
    23    22    23    1
    24    14    13    1
    25     9    12    1
    26     9    13    1
    27     9    10    1
    28    26    25    1
    29    26    27    1
    30     1     8    1
    31     1     4    1
    32    25    24    2
    33    23    24    1
