@<TRIPOS>MOLECULE
1wc3_APC_A_1.pdb
 31 33 0 0 0
SMALL
GASTEIGER

@<TRIPOS>ATOM
      1  PG        15.2610    4.9200   55.7020 P.3   1500  APC1500     0.5389
      2  O1G       15.0450    4.7390   57.1790 O.3   1500  APC1500    -0.1143
      3  O2G       13.9390    4.7140   54.9840 O.2   1500  APC1500    -0.2220
      4  O3G       16.2830    3.9060   55.2120 O.3   1500  APC1500    -0.1143
      5  PB        17.3170    6.8610   55.6730 P.3   1500  APC1500     0.3895
      6  O1B       18.2570    6.2630   54.6210 O.2   1500  APC1500    -0.2544
      7  O2B       17.4290    8.3950   55.6250 O.3   1500  APC1500    -0.1388
      8  O3B       15.7920    6.4210   55.3790 O.3   1500  APC1500    -0.2026
      9  PA        19.3880    6.8560   57.8690 P.3   1500  APC1500     0.3820
     10  O1A       20.4990    6.1090   57.1080 O.2   1500  APC1500    -0.2548
     11  O2A       19.5530    8.3730   57.6550 O.3   1500  APC1500    -0.1392
     12  C3A       17.7710    6.2890   57.3190 C.3   1500  APC1500     0.2357
     13  O5'       19.5080    6.5600   59.4430 O.3   1500  APC1500    -0.2896
     14  C5'       19.3900    5.2260   59.9420 C.3   1500  APC1500     0.1836
     15  C4'       20.6400    4.8320   60.7330 C.3   1500  APC1500     0.1822
     16  O4'       20.3860    3.6120   61.4680 O.3   1500  APC1500    -0.3135
     17  C3'       21.8250    4.5460   59.8180 C.3   1500  APC1500     0.2184
     18  O3'       23.0230    4.9840   60.4830 O.3   1500  APC1500    -0.2174
     19  C2'       21.7690    3.0460   59.6510 C.3   1500  APC1500     0.2570
     20  O2'       23.0390    2.5260   59.2550 O.3   1500  APC1500    -0.2130
     21  C1'       21.3480    2.6030   61.0340 C.3   1500  APC1500     0.3186
     22  N9        20.6830    1.2960   61.0250 N.pl3 1500  APC1500    -0.1439
     23  C8        19.3400    0.9930   61.0210 C.3   1500  APC1500     0.3377
     24  N7        19.0760   -0.2850   61.0340 N.2   1500  APC1500    -0.2095
     25  C5        20.3250   -0.8770   61.0610 C.2   1500  APC1500     0.2526
     26  C6        20.7510   -2.2450   61.0860 C.2   1500  APC1500     0.4393
     27  N6        19.8930   -3.2710   61.1070 N.pl3 1500  APC1500     0.2180
     28  N1        22.0870   -2.5090   61.1030 N.2   1500  APC1500     0.0021
     29  C2        22.9720   -1.4490   61.0870 C.3   1500  APC1500     0.5254
     30  N3        22.6830   -0.1350   61.0620 N.2   1500  APC1500    -0.0055
     31  C4        21.3450    0.0700   61.0500 C.2   1500  APC1500     0.3518
@<TRIPOS>BOND
     1     6     5    2
     2     3     1    2
     3     4     1    1
     4     8     5    1
     5     8     1    1
     6     7     5    1
     7     5    12    1
     8     1     2    1
     9    10     9    2
    10    12     9    1
    11    11     9    1
    12     9    13    1
    13    20    19    1
    14    13    14    1
    15    19    17    1
    16    19    21    1
    17    17    18    1
    18    17    15    1
    19    14    15    1
    20    15    16    1
    21    23    22    1
    22    23    24    1
    23    22    21    1
    24    22    31    1
    25    21    16    1
    26    24    25    2
    27    31    25    1
    28    31    30    2
    29    25    26    1
    30    30    29    1
    31    26    28    2
    32    26    27    1
    33    29    28    1
