@<TRIPOS>MOLECULE
1wc4_APC_A_1.pdb
 31 33 0 0 0
SMALL
GASTEIGER

@<TRIPOS>ATOM
      1  PG        14.6130    5.9650   56.4660 P.3   1500  APC1500     0.5389
      2  O1G       13.8670    6.6110   57.6730 O.3   1500  APC1500    -0.1143
      3  O2G       13.5870    5.4270   55.4830 O.2   1500  APC1500    -0.2220
      4  O3G       15.4980    4.7970   56.9570 O.3   1500  APC1500    -0.1143
      5  PB        17.0440    7.4450   56.3060 P.3   1500  APC1500     0.3895
      6  O1B       18.1290    7.1190   55.2440 O.2   1500  APC1500    -0.2544
      7  O2B       17.0910    8.9370   56.6480 O.3   1500  APC1500    -0.1388
      8  O3B       15.5690    7.0720   55.7220 O.3   1500  APC1500    -0.2026
      9  PA        19.1210    6.6370   58.1190 P.3   1500  APC1500     0.3820
     10  O1A       19.9230    5.6750   57.1970 O.2   1500  APC1500    -0.2548
     11  O2A       19.5680    8.0960   57.8550 O.3   1500  APC1500    -0.1392
     12  C3A       17.3910    6.5250   57.8160 C.3   1500  APC1500     0.2357
     13  O5'       19.4200    6.2940   59.6520 O.3   1500  APC1500    -0.2896
     14  C5'       19.4910    4.9470   60.0620 C.3   1500  APC1500     0.1836
     15  C4'       20.7340    4.7390   60.9210 C.3   1500  APC1500     0.1822
     16  O4'       20.5080    3.6240   61.7830 O.3   1500  APC1500    -0.3135
     17  C3'       21.9570    4.4270   60.0580 C.3   1500  APC1500     0.2184
     18  O3'       23.1030    5.1430   60.5420 O.3   1500  APC1500    -0.2174
     19  C2'       22.1220    2.9410   60.1760 C.3   1500  APC1500     0.2570
     20  O2'       23.5060    2.5680   60.1110 O.3   1500  APC1500    -0.2130
     21  C1'       21.4980    2.6010   61.5180 C.3   1500  APC1500     0.3186
     22  N9        20.8200    1.3160   61.4480 N.pl3 1500  APC1500    -0.1439
     23  C8        19.4730    1.0370   61.3770 C.3   1500  APC1500     0.3377
     24  N7        19.1870   -0.2250   61.3340 N.2   1500  APC1500    -0.2095
     25  C5        20.4220   -0.8310   61.3920 C.2   1500  APC1500     0.2526
     26  C6        20.8100   -2.1980   61.3760 C.2   1500  APC1500     0.4393
     27  N6        19.9230   -3.1890   61.3180 N.pl3 1500  APC1500     0.2180
     28  N1        22.1450   -2.4960   61.4410 N.2   1500  APC1500     0.0021
     29  C2        23.0560   -1.4480   61.5060 C.3   1500  APC1500     0.5254
     30  N3        22.7930   -0.1240   61.5240 N.2   1500  APC1500    -0.0055
     31  C4        21.4580    0.0950   61.4640 C.2   1500  APC1500     0.3518
@<TRIPOS>BOND
     1     6     5    2
     2     3     1    2
     3     8     5    1
     4     8     1    1
     5     5     7    1
     6     5    12    1
     7     1     4    1
     8     1     2    1
     9    10     9    2
    10    12     9    1
    11    11     9    1
    12     9    13    1
    13    13    14    1
    14    17    19    1
    15    17    18    1
    16    17    15    1
    17    14    15    1
    18    20    19    1
    19    19    21    1
    20    15    16    1
    21    27    26    1
    22    24    23    1
    23    24    25    2
    24    26    25    1
    25    26    28    2
    26    23    22    1
    27    25    31    1
    28    28    29    1
    29    22    31    1
    30    22    21    1
    31    31    30    2
    32    29    30    1
    33    21    16    1
