@<TRIPOS>MOLECULE
1wc5_APC_A_1.pdb
 31 33 0 0 0
SMALL
GASTEIGER

@<TRIPOS>ATOM
      1  PG        39.9800   35.2450   47.9770 P.3   1500  APC1500     0.5389
      2  O1G       38.5530   34.7700   48.2480 O.3   1500  APC1500    -0.1143
      3  O2G       40.0270   36.7630   48.1720 O.3   1500  APC1500    -0.1143
      4  O3G       40.3810   34.9030   46.5490 O.2   1500  APC1500    -0.2220
      5  PB        41.3270   32.9480   48.9850 P.3   1500  APC1500     0.3895
      6  O1B       40.7790   32.3470   50.2830 O.3   1500  APC1500    -0.1388
      7  O2B       40.6610   32.2560   47.7970 O.2   1500  APC1500    -0.2544
      8  O3B       41.0230   34.5350   49.0070 O.3   1500  APC1500    -0.2026
      9  PA        43.9960   33.8500   47.9560 P.3   1500  APC1500     0.3820
     10  O1A       44.0110   33.4590   46.4550 O.2   1500  APC1500    -0.2548
     11  O2A       43.3210   35.2310   48.1030 O.3   1500  APC1500    -0.1392
     12  C3A       43.1060   32.6210   48.9260 C.3   1500  APC1500     0.2357
     13  O5'       45.5280   33.9360   48.4820 O.3   1500  APC1500    -0.2896
     14  C5'       45.9540   35.1130   49.1750 C.3   1500  APC1500     0.1836
     15  C4'       47.3990   35.5260   48.8670 C.3   1500  APC1500     0.1822
     16  O4'       48.3230   34.4170   48.9680 O.3   1500  APC1500    -0.3135
     17  C3'       47.5520   36.1330   47.4670 C.3   1500  APC1500     0.2184
     18  O3'       48.3240   37.3440   47.5350 O.3   1500  APC1500    -0.2174
     19  C2'       48.2470   35.0530   46.6800 C.3   1500  APC1500     0.2570
     20  O2'       49.0620   35.6360   45.6470 O.3   1500  APC1500    -0.2130
     21  C1'       49.0690   34.3260   47.7280 C.3   1500  APC1500     0.3186
     22  N9        49.2730   32.9230   47.3710 N.pl3 1500  APC1500    -0.1439
     23  C8        48.5390   31.8070   47.6890 C.3   1500  APC1500     0.3377
     24  N7        49.0130   30.7010   47.1960 N.2   1500  APC1500    -0.2095
     25  C5        50.1380   31.1040   46.5060 C.2   1500  APC1500     0.2526
     26  C6        51.1120   30.3920   45.7310 C.2   1500  APC1500     0.4393
     27  N6        51.0740   29.0730   45.5530 N.pl3 1500  APC1500     0.2180
     28  N1        52.1300   31.0930   45.1600 N.2   1500  APC1500     0.0021
     29  C2        52.1690   32.4570   45.3440 C.3   1500  APC1500     0.5254
     30  N3        51.3130   33.2200   46.0450 N.2   1500  APC1500    -0.0055
     31  C4        50.3240   32.4730   46.5860 C.2   1500  APC1500     0.3518
@<TRIPOS>BOND
     1    28    29    1
     2    28    26    2
     3    29    30    1
     4    27    26    1
     5    20    19    1
     6    26    25    1
     7    30    31    2
     8    10     9    2
     9    25    31    1
    10    25    24    2
    11     4     1    2
    12    31    22    1
    13    19    17    1
    14    19    21    1
    15    24    23    1
    16    22    23    1
    17    22    21    1
    18    17    18    1
    19    17    15    1
    20    21    16    1
    21     7     5    2
    22     9    11    1
    23     9    13    1
    24     9    12    1
    25     1     3    1
    26     1     2    1
    27     1     8    1
    28    13    14    1
    29    15    16    1
    30    15    14    1
    31    12     5    1
    32     5     8    1
    33     5     6    1
