@<TRIPOS>MOLECULE
1wc6_TAT_A_1.pdb
 31 33 0 0 0
SMALL
GASTEIGER

@<TRIPOS>ATOM
      1  PG         5.4520   28.2450   48.3670 P.3   2200  TAT2200     0.5373
      2  O1A        6.2800   27.0610   48.7580 O.3   2200  TAT2200    -0.1143
      3  O2G        4.5670   27.8840   47.2100 O.2   2200  TAT2200    -0.2221
      4  O3G        6.3630   29.3600   47.9770 O.3   2200  TAT2200    -0.1143
      5  PB         4.9440   29.7720   50.6530 P.3   2200  TAT2200     0.2302
      6  O1B        5.1850   29.0370   51.9700 O.3   2200  TAT2200    -0.4368
      7  O2B        6.2500   30.5050   50.2610 O.2   2200  TAT2200    -0.5167
      8  O3B        4.5120   28.6910   49.5680 O.3   2200  TAT2200    -0.2257
      9  PA         3.5440   32.2320   50.0240 P.3   2200  TAT2200     0.4081
     10  S1A        4.6250   33.6560   50.9120 S.3   2200  TAT2200     0.0395
     11  O2A        3.9790   32.0600   48.5510 O.2   2200  TAT2200    -0.2446
     12  O3A        3.7230   30.8380   50.8600 O.3   2200  TAT2200    -0.2418
     13  O5'        2.0320   32.6510   50.1070 O.3   2200  TAT2200    -0.2834
     14  C5'        1.0940   32.2090   49.1230 C.3   2200  TAT2200     0.1844
     15  C4'        0.4640   33.3960   48.4800 C.3   2200  TAT2200     0.1822
     16  O4'        0.1750   34.4420   49.4890 O.3   2200  TAT2200    -0.3135
     17  C3'        1.3810   34.0930   47.4880 C.3   2200  TAT2200     0.2184
     18  O3'        1.4650   33.3800   46.2630 O.3   2200  TAT2200    -0.2174
     19  C2'        0.7230   35.4200   47.3750 C.3   2200  TAT2200     0.2570
     20  O2'       -0.3890   35.3770   46.4500 O.3   2200  TAT2200    -0.2130
     21  C1'        0.2600   35.7250   48.7980 C.3   2200  TAT2200     0.3186
     22  N9         1.2170   36.6100   49.4920 N.pl3 2200  TAT2200    -0.1439
     23  C8         2.0390   36.3390   50.5380 C.3   2200  TAT2200     0.3377
     24  N7         2.7760   37.3960   50.9370 N.2   2200  TAT2200    -0.2095
     25  C5         2.3920   38.3690   50.0980 C.2   2200  TAT2200     0.2526
     26  C6         2.7700   39.7240   49.9780 C.2   2200  TAT2200     0.4393
     27  N6         3.6560   40.2900   50.7790 N.pl3 2200  TAT2200     0.2180
     28  N1         2.1630   40.4960   48.9590 N.2   2200  TAT2200     0.0021
     29  C2         1.2220   39.8790   48.1220 C.3   2200  TAT2200     0.5254
     30  N3         0.8100   38.6170   48.1740 N.2   2200  TAT2200    -0.0055
     31  C4         1.4230   37.9120   49.1720 C.2   2200  TAT2200     0.3518
@<TRIPOS>BOND
     1    18    17    1
     2    20    19    1
     3     3     1    2
     4    19    17    1
     5    19    21    1
     6    17    15    1
     7     4     1    1
     8    29    30    1
     9    29    28    1
    10    30    31    2
    11     1     2    1
    12     1     8    1
    13    15    14    1
    14    15    16    1
    15    11     9    2
    16    21    16    1
    17    21    22    1
    18    28    26    2
    19    14    13    1
    20    31    22    1
    21    31    25    1
    22    22    23    1
    23     8     5    1
    24    26    25    1
    25    26    27    1
    26     9    13    1
    27     9    12    1
    28     9    10    1
    29    25    24    2
    30     7     5    2
    31    23    24    1
    32     5    12    1
    33     5     6    1
