@<TRIPOS>MOLECULE
1wc7_PP3_A_1.pdb
 21 21 0 0 0
SMALL
GASTEIGER

@<TRIPOS>ATOM
      1  N1        19.4460    0.9970   56.7120 N.ar  1214  PP31214    -0.2452
      2  C2        19.7300   -0.0700   55.8600 C.ar  1214  PP31214     0.0978
      3  C2A       20.4350    0.4640   54.6220 C.3   1214  PP31214     0.0555
      4  C3        19.3080   -1.4090   56.2800 C.ar  1214  PP31214     0.2062
      5  O3        19.6880   -2.3400   55.3500 O.3   1214  PP31214    -0.2856
      6  C4        18.6220   -1.6540   57.5140 C.ar  1214  PP31214     0.0353
      7  C4A       18.1710   -3.0360   57.9890 C.3   1214  PP31214     0.1186
      8  C5        18.4040   -0.4350   58.2690 C.ar  1214  PP31214     0.0275
      9  C6        18.7820    0.8570   57.8990 C.ar  1214  PP31214     0.0965
     10  C5A       17.6910   -0.4000   59.6330 C.3   1214  PP31214     0.1816
     11  O4P       17.2310    0.8350   60.0430 O.3   1214  PP31214    -0.2653
     12  P         16.6820    1.1100   61.5230 P.3   1214  PP31214     0.5329
     13  O1P       17.5800    0.5910   62.5270 O.3   1214  PP31214    -0.1145
     14  O2P       15.2460    0.6140   61.4380 O.2   1214  PP31214    -0.2224
     15  O3P       16.7310    2.6110   61.6870 O.3   1214  PP31214    -0.1145
     16  N         18.5400   -3.9630   56.8580 N.3   1214  PP31214    -0.2034
     17  CA        17.6330   -5.1540   56.7740 C.3   1214  PP31214     0.1761
     18  C         18.5270   -6.3350   56.3670 C.2   1214  PP31214     0.3803
     19  O         19.7710   -5.8390   56.1030 O.co2 1214  PP31214    -0.2441
     20  CB        16.4490   -4.9750   55.8290 C.3   1214  PP31214     0.0310
     21  OXT       18.1710   -7.5860   56.2960 O.co2 1214  PP31214    -0.2441
@<TRIPOS>BOND
     1     3     2    1
     2     5     4    1
     3    20    17    1
     4     2     4   ar
     5     2     1   ar
     6    19    18   ar
     7     4     6   ar
     8    21    18   ar
     9    18    17    1
    10     1     9   ar
    11    17    16    1
    12    16     7    1
    13     6     7    1
    14     6     8   ar
    15     9     8   ar
    16     8    10    1
    17    10    11    1
    18    11    12    1
    19    14    12    2
    20    12    15    1
    21    12    13    1
