@<TRIPOS>MOLECULE
1wcb_PE1_A_1.pdb
 25 25 0 0 0
SMALL
GASTEIGER

@<TRIPOS>ATOM
      1  N1        45.6250   44.9820   68.4500 N.ar  1215  PE11215    -0.2452
      2  C2        46.9470   44.8670   68.1260 C.ar  1215  PE11215     0.0978
      3  C2A       47.4340   43.5620   67.5510 C.3   1215  PE11215     0.0555
      4  C3        47.7920   46.0210   68.3700 C.ar  1215  PE11215     0.2062
      5  O3        49.0960   45.9690   68.0750 O.3   1215  PE11215    -0.2856
      6  C4        47.2220   47.2310   68.9360 C.ar  1215  PE11215     0.0353
      7  C4A       48.1600   48.4160   69.1760 C.3   1215  PE11215     0.1186
      8  C5        45.8130   47.2520   69.2460 C.ar  1215  PE11215     0.0275
      9  C6        45.0440   46.1090   68.9870 C.ar  1215  PE11215     0.0965
     10  C5A       45.1240   48.4820   69.8500 C.3   1215  PE11215     0.1816
     11  O4P       44.2580   48.0510   70.9300 O.3   1215  PE11215    -0.2653
     12  P         42.9960   48.9540   71.3350 P.3   1215  PE11215     0.5329
     13  O1P       42.1850   49.1040   70.1340 O.2   1215  PE11215    -0.2224
     14  O2P       43.5130   50.3250   71.8380 O.3   1215  PE11215    -0.1145
     15  O3P       42.3620   48.2500   72.5000 O.3   1215  PE11215    -0.1145
     16  N         49.1230   48.5970   68.0460 N.3   1215  PE11215    -0.2034
     17  CA        50.1650   49.6410   68.3240 C.3   1215  PE11215     0.1760
     18  C         51.0980   49.7480   67.0960 C.2   1215  PE11215     0.3803
     19  O         51.0760   48.5870   66.3750 O.co2 1215  PE11215    -0.2441
     20  CB        50.9650   49.3520   69.6000 C.3   1215  PE11215     0.0290
     21  CG        51.5100   47.9130   69.6430 C.3   1215  PE11215     0.0035
     22  CD        52.9850   47.9150   70.0620 C.3   1215  PE11215     0.0206
     23  CE        53.2220   47.1440   71.3400 C.3   1215  PE11215     0.1093
     24  OXT       51.8030   50.8250   66.7750 O.co2 1215  PE11215    -0.2441
     25  NZ        54.6350   47.2600   71.7650 N.3   1215  PE11215    -0.1314
@<TRIPOS>BOND
     1    19    18   ar
     2    24    18   ar
     3    18    17    1
     4     3     2    1
     5    16    17    1
     6    16     7    1
     7     5     4    1
     8     2     4   ar
     9     2     1   ar
    10    17    20    1
    11     4     6   ar
    12     1     9   ar
    13     6     7    1
    14     6     8   ar
    15     9     8   ar
    16     8    10    1
    17    20    21    1
    18    21    22    1
    19    10    11    1
    20    22    23    1
    21    13    12    2
    22    11    12    1
    23    12    14    1
    24    12    15    1
    25    23    25    1
