@<TRIPOS>MOLECULE
1wci_WWF_A_1.pdb
 32 33 0 0 0
SMALL
GASTEIGER

@<TRIPOS>ATOM
      1  O1B       68.4000    6.5790    5.1290 O.3   1401  WWF1401    -0.1143
      2  PB        68.8520    5.1090    5.2420 P.3   1401  WWF1401     0.5373
      3  O2B       70.2430    4.9510    4.4890 O.2   1401  WWF1401    -0.2221
      4  O3B       67.8380    4.1160    4.7950 O.3   1401  WWF1401    -0.1143
      5  O3A       69.1600    4.9330    6.8110 O.3   1401  WWF1401    -0.2261
      6  PA        68.9670    3.5950    7.7230 P.3   1401  WWF1401     0.2230
      7  O1A       69.2480    4.0570    9.1130 O.3   1401  WWF1401    -0.4370
      8  O2A       67.6930    2.9350    7.4420 O.2   1401  WWF1401    -0.5169
      9  O5G       70.0920    2.5900    7.1300 O.3   1401  WWF1401    -0.3134
     10  C5B       71.5000    2.7630    7.4690 C.3   1401  WWF1401     0.1544
     11  C5A       72.2890    1.8480    6.5190 C.3   1401  WWF1401     0.0661
     12  C5        73.7620    2.0940    6.7480 C.2   1401  WWF1401     0.0167
     13  C4        74.7690    1.2940    7.2970 C.2   1401  WWF1401     0.0281
     14  C4A       74.5080   -0.2190    7.6810 C.3   1401  WWF1401     0.0473
     15  S1        74.4460    3.5760    6.2080 S.3   1401  WWF1401    -0.0904
     16  C2        76.0890    3.0520    6.6070 C.3   1401  WWF1401     0.1836
     17  C8        77.2820    3.9000    6.3050 C.2   1401  WWF1401     0.1792
     18  O9        78.4220    3.5310    6.6650 O.2   1401  WWF1401    -0.2934
     19  C9        76.9690    5.3910    6.0940 C.3   1401  WWF1401     0.0672
     20  C10       78.1800    6.1720    5.6520 C.3   1401  WWF1401     0.0074
     21  C11       78.4920    5.8720    4.1940 C.3   1401  WWF1401     0.0004
     22  C12       77.8410    7.6410    5.8120 C.3   1401  WWF1401     0.0004
     23  N3        76.0420    1.8440    7.2200 N.pl3 1401  WWF1401    -0.2933
     24  C35       77.2190    1.1940    7.8590 C.3   1401  WWF1401     0.1240
     25  C5'       77.1460    1.4720    9.3750 C.2   1401  WWF1401     0.0654
     26  C6'       77.0530    0.3580   10.2470 C.2   1401  WWF1401     0.1115
     27  N1'       77.1020    0.4820   11.5800 N.2   1401  WWF1401    -0.1861
     28  C2'       77.3010    1.6890   12.1680 C.1   1401  WWF1401     0.0663
     29  C2A       77.3980    1.8560   13.6750 C.3   1401  WWF1401     0.1291
     30  N3'       77.3710    2.8210   11.3690 N.2   1401  WWF1401    -0.3368
     31  C4'       77.3020    2.7490    9.9670 C.2   1401  WWF1401     0.2292
     32  N4'       77.5200    3.9210    9.3260 N.pl3 1401  WWF1401    -0.0925
@<TRIPOS>BOND
     1    21    20    1
     2     3     2    2
     3     4     2    1
     4     1     2    1
     5     2     5    1
     6    20    22    1
     7    20    19    1
     8    19    17    1
     9    15    16    1
    10    15    12    1
    11    17    16    1
    12    17    18    2
    13    11    12    1
    14    11    10    1
    15    16    23    1
    16    12    13    2
    17     5     6    1
    18     9    10    1
    19     9     6    1
    20    23    13    1
    21    23    24    1
    22    13    14    1
    23     8     6    2
    24     6     7    1
    25    24    25    1
    26    32    31    1
    27    25    31    1
    28    25    26    2
    29    31    30    2
    30    26    27    1
    31    30    28    2
    32    27    28    2
    33    28    29    1
