@<TRIPOS>MOLECULE
1wco_FPP_N_1.pdb
 48 47 0 0 0
SMALL
GASTEIGER

@<TRIPOS>ATOM
      1  C1        -1.2790    9.3500   -4.3050 C.3    35  FPP35       0.0585
      2  O1        -0.5720   10.2140   -3.4110 O.3    35  FPP35      -0.3269
      3  C2        -2.7450    9.6280   -4.2050 C.3    35  FPP35      -0.0058
      4  C3        -3.6480    9.1420   -5.0700 C.3    35  FPP35      -0.0211
      5  C4        -3.2740    8.2570   -6.2540 C.3    35  FPP35      -0.0587
      6  C5        -5.1190    9.4310   -4.9340 C.3    35  FPP35      -0.0465
      7  C6        -5.8410    9.2860   -6.2670 C.3    35  FPP35      -0.0489
      8  C7        -5.7830   10.5830   -7.0120 C.3    35  FPP35      -0.0318
      9  C8        -5.4950   10.6630   -8.3200 C.3    35  FPP35      -0.0233
     10  C10       -5.1910    9.4480   -9.1830 C.3    35  FPP35      -0.0588
     11  C9        -5.4370   11.9650   -9.0570 C.3    35  FPP35      -0.0466
     12  C11       -6.5710   12.0410  -10.0680 C.3    35  FPP35      -0.0489
     13  C12       -7.8770   12.2170   -9.3550 C.3    35  FPP35      -0.0320
     14  C13       -8.6980   13.2530   -9.5770 C.3    35  FPP35      -0.0264
     15  C14      -10.0210   13.4270   -8.8490 C.3    35  FPP35      -0.0591
     16  C15       -8.3870   14.3540  -10.5800 C.3    35  FPP35      -0.0591
     17  PA        -1.0520   10.3910   -1.8890 P.3    35  FPP35       0.2196
     18  O1A       -1.3190    9.0480   -1.2970 O.3    35  FPP35      -0.4371
     19  O2A       -2.1170   11.4250   -1.8520 O.2    35  FPP35      -0.5170
     20  O3A        0.2600   11.0080   -1.2060 O.3    35  FPP35      -0.2513
     21  PB         0.8420   12.4120   -1.7150 P.3    35  FPP35       0.3991
     22  O1B        2.3250   12.3690   -1.6440 O.3    35  FPP35      -0.1422
     23  O3B        0.1500   13.5050   -0.9750 O.3    35  FPP35      -0.1422
     24  H11       -0.9510    9.5250   -5.3150 H      35  FPP35       0.0567
     25 H12A       -1.0880    8.3220   -4.0340 H      35  FPP35       0.0567
     26  H2        -3.0540    9.9030   -3.2070 H      35  FPP35       0.0332
     27  H41       -2.8470    8.8670   -7.0340 H      35  FPP35       0.0235
     28  H42       -4.1600    7.7650   -6.6230 H      35  FPP35       0.0235
     29  H43       -2.5550    7.5180   -5.9330 H      35  FPP35       0.0235
     30  H51       -5.2500   10.4420   -4.5710 H      35  FPP35       0.0271
     31  H52       -5.5470    8.7370   -4.2290 H      35  FPP35       0.0271
     32  H61       -6.8730    9.0210   -6.0840 H      35  FPP35       0.0268
     33  H62       -5.3620    8.5120   -6.8500 H      35  FPP35       0.0268
     34  H7        -5.6420   11.4440   -6.3770 H      35  FPP35       0.0309
     35 H101       -6.1180    8.9630   -9.4550 H      35  FPP35       0.0235
     36 H102       -4.5710    8.7610   -8.6280 H      35  FPP35       0.0235
     37 H103       -4.6730    9.7660  -10.0750 H      35  FPP35       0.0235
     38  H91       -4.4940   12.0410   -9.5750 H      35  FPP35       0.0271
     39  H92       -5.5340   12.7800   -8.3550 H      35  FPP35       0.0271
     40 H111       -6.5970   11.1280  -10.6460 H      35  FPP35       0.0268
     41 H112       -6.4030   12.8830  -10.7220 H      35  FPP35       0.0268
     42  H12       -8.2500   11.3200   -8.8790 H      35  FPP35       0.0309
     43 H141      -10.8340   13.2020   -9.5250 H      35  FPP35       0.0235
     44 H142      -10.1070   14.4480   -8.5040 H      35  FPP35       0.0235
     45 H143      -10.0540   12.7540   -8.0040 H      35  FPP35       0.0235
     46 H151       -8.2610   13.9190  -11.5600 H      35  FPP35       0.0235
     47 H152       -7.4750   14.8560  -10.2860 H      35  FPP35       0.0235
     48 H153       -9.2020   15.0610  -10.5990 H      35  FPP35       0.0235
@<TRIPOS>BOND
     1    46    16    1
     2    41    12    1
     3    40    12    1
     4    48    16    1
     5    16    47    1
     6    16    14    1
     7    37    10    1
     8    12    13    1
     9    12    11    1
    10    14    13    1
    11    14    15    1
    12    38    11    1
    13    43    15    1
    14    35    10    1
    15    13    42    1
    16    10    36    1
    17    10     9    1
    18    11    39    1
    19    11     9    1
    20    15    44    1
    21    15    45    1
    22     9     8    1
    23    27     5    1
    24     8    34    1
    25     8     7    1
    26    33     7    1
    27    28     5    1
    28     7    32    1
    29     7     6    1
    30     5    29    1
    31     5     4    1
    32    24     1    1
    33     4     6    1
    34     4     3    1
    35     6    30    1
    36     6    31    1
    37     1     3    1
    38     1    25    1
    39     1     2    1
    40     3    26    1
    41     2    17    1
    42    17    19    2
    43    17    18    1
    44    17    20    1
    45    21    22    1
    46    21    20    1
    47    21    23    1
