@<TRIPOS>MOLECULE
1wcq_DAN_A_1.pdb
 20 20 0 0 0
SMALL
GASTEIGER

@<TRIPOS>ATOM
      1  C1       -30.6010   54.0230   74.9030 C.2   1651  DAN1651     0.4208
      2  C2       -31.3280   55.1730   75.6770 C.2   1651  DAN1651     0.2163
      3  C3       -31.8500   54.9810   76.9490 C.2   1651  DAN1651     0.0514
      4  C4       -32.4740   56.1990   77.6530 C.3   1651  DAN1651     0.1968
      5  C5       -32.9930   57.2210   76.7160 C.3   1651  DAN1651     0.1523
      6  C6       -31.8610   57.6120   75.7990 C.3   1651  DAN1651     0.2176
      7  C7       -32.2880   58.6000   74.7180 C.3   1651  DAN1651     0.2258
      8  C8       -31.2290   58.7420   73.6870 C.3   1651  DAN1651     0.2185
      9  C9       -31.5760   59.8940   72.7610 C.3   1651  DAN1651     0.2175
     10  C10      -34.6070   58.9970   77.3860 C.3   1651  DAN1651     0.2259
     11  C11      -34.6830   60.3830   78.0660 C.3   1651  DAN1651     0.0555
     12  N5       -33.3070   58.3900   77.5400 N.3   1651  DAN1651    -0.1840
     13  O1A      -30.4860   52.8850   75.4450 O.co2 1651  DAN1651    -0.2371
     14  O1B      -30.1630   54.2910   73.7670 O.co2 1651  DAN1651    -0.2371
     15  O4       -33.3870   55.8950   78.7170 O.3   1651  DAN1651    -0.2166
     16  O6       -31.4050   56.4270   75.0950 O.2   1651  DAN1651    -0.4687
     17  O7       -33.5140   58.2550   74.0030 O.3   1651  DAN1651    -0.2164
     18  O8       -29.9620   58.9650   74.3120 O.3   1651  DAN1651    -0.2174
     19  O9       -30.4770   59.8680   71.8800 O.3   1651  DAN1651    -0.2175
     20  O10      -34.8870   59.0710   76.0200 O.3   1651  DAN1651    -0.2036
@<TRIPOS>BOND
     1    19     9    1
     2     9     8    1
     3     8    18    1
     4     8     7    1
     5    14     1   ar
     6    17     7    1
     7     7     6    1
     8     1    13   ar
     9     1     2    1
    10    16     2    1
    11    16     6    1
    12     2     3    2
    13     6     5    1
    14    20    10    1
    15     5    12    1
    16     5     4    1
    17     3     4    1
    18    10    12    1
    19    10    11    1
    20     4    15    1
