@<TRIPOS>MOLECULE
1wcy_III_C_1.pdb
 24 24 0 0 0
SMALL
GASTEIGER

@<TRIPOS>ATOM
      1  N         56.0500   64.7200   33.5480 N.3     1  ILE1       -0.1231
      2  CA        55.5930   64.5400   34.9490 C.3     1  ILE1        0.1678
      3  C         56.5350   63.6170   35.7040 C.2     1  ILE1        0.2434
      4  O         56.9430   62.5680   35.1990 O.2     1  ILE1       -0.2733
      5  CB        54.1750   63.9210   35.0130 C.3     1  ILE1        0.0265
      6  CG1       53.1480   64.8730   34.3960 C.3     1  ILE1        0.0019
      7  CG2       53.7960   63.6370   36.4620 C.3     1  ILE1        0.0020
      8  CD1       51.7110   64.3700   34.5090 C.3     1  ILE1        0.0001
      9  N         56.9150   64.0120   36.9240 N.am    2  PRO2       -0.2718
     10  CA        57.8120   63.1860   37.7290 C.3     2  PRO2        0.1535
     11  C         57.0150   62.0400   38.3460 C.2     2  PRO2        0.2599
     12  O         56.6500   62.0820   39.5230 O.2     2  PRO2       -0.2715
     13  CB        58.3410   64.1690   38.7690 C.3     2  PRO2        0.0310
     14  CG        57.1830   65.0790   38.9720 C.3     2  PRO2        0.0237
     15  CD        56.7000   65.3220   37.5550 C.3     2  PRO2        0.0939
     16  N         56.7380   61.0290   37.5280 N.am    3  ILE3       -0.1942
     17  CA        56.0020   59.8480   37.9580 C.3     3  ILE3        0.1977
     18  C         56.2760   58.7050   36.9810 C.2     3  ILE3        0.3842
     19  O         56.3800   58.9810   35.7660 O.co2   3  ILE3       -0.2437
     20  CB        54.4800   60.1140   37.9940 C.3     3  ILE3        0.0311
     21  CG1       53.7510   58.9080   38.5930 C.3     3  ILE3        0.0023
     22  CG2       53.9580   60.3690   36.5810 C.3     3  ILE3        0.0023
     23  CD1       52.2410   59.1110   38.7450 C.3     3  ILE3        0.0001
     24  OXT       56.3810   57.5470   37.4430 O.co2   3  ILE3       -0.2437
@<TRIPOS>BOND
     1     1     2    1
     2     6     8    1
     3     6     5    1
     4     2     5    1
     5     2     3    1
     6     5     7    1
     7     4     3    2
     8     3     9   am
     9    19    18   ar
    10    22    20    1
    11     9    15    1
    12     9    10    1
    13    18    24   ar
    14    18    17    1
    15    16    17    1
    16    16    11   am
    17    15    14    1
    18    10    11    1
    19    10    13    1
    20    17    20    1
    21    20    21    1
    22    11    12    2
    23    21    23    1
    24    13    14    1
