@<TRIPOS>MOLECULE
1wd4_AHR_A_1.pdb
 10 10 0 0 0
SMALL
GASTEIGER

@<TRIPOS>ATOM
      1  O5'       36.4790   17.6440   -3.2000 O.3   601  AHR601     -0.2176
      2  C5'       36.2000   16.9810   -1.9740 C.3   601  AHR601      0.2142
      3  C4'       37.4750   16.2900   -1.3870 C.3   601  AHR601      0.1837
      4  O4'       38.4770   17.2680   -1.1420 O.3   601  AHR601     -0.3236
      5  C3'       38.1880   15.2680   -2.2940 C.3   601  AHR601      0.2169
      6  O3'       37.5240   13.9970   -2.3470 O.3   601  AHR601     -0.2175
      7  C2'       39.5790   15.1860   -1.6860 C.3   601  AHR601      0.2433
      8  O2'       40.5940   14.6650   -2.6220 O.3   601  AHR601     -0.2148
      9  C1'       39.7850   16.6760   -1.3330 C.3   601  AHR601      0.3024
     10  O1'       40.5380   16.7800   -0.1160 O.3   601  AHR601     -0.1869
@<TRIPOS>BOND
     1     1     2    1
     2     8     7    1
     3     6     5    1
     4     5     7    1
     5     5     3    1
     6     2     3    1
     7     7     9    1
     8     3     4    1
     9     9     4    1
    10     9    10    1
