@<TRIPOS>MOLECULE
1wda_BAG_A_1.pdb
 20 20 0 0 0
SMALL
GASTEIGER

@<TRIPOS>ATOM
      1  O9        24.1320   51.6220   21.7290 O.2   801  BAG801     -0.2684
      2  C8        24.2880   51.1790   22.8490 C.2   801  BAG801      0.2652
      3  C10       24.6870   52.1690   23.9140 C.ar  801  BAG801      0.0551
      4  C11       24.7690   53.6160   23.4240 C.ar  801  BAG801      0.0046
      5  C13       25.1240   54.7280   24.4060 C.ar  801  BAG801      0.0001
      6  C15       25.3650   54.4120   25.8780 C.ar  801  BAG801      0.0000
      7  C14       25.2570   52.9860   26.3740 C.ar  801  BAG801      0.0001
      8  C12       24.9030   51.8780   25.3920 C.ar  801  BAG801      0.0046
      9  N16       24.1830   49.8650   23.0640 N.am  801  BAG801     -0.1940
     10  C17       23.8410   49.0090   21.9220 C.3   801  BAG801      0.1748
     11  C1        22.4530   49.2020   21.4250 C.2   801  BAG801      0.2806
     12  N18       21.5070   49.4900   22.3060 N.am  801  BAG801     -0.0863
     13  O2        22.2380   49.0830   20.2360 O.2   801  BAG801     -0.2698
     14  C3        23.9870   47.5510   22.3310 C.3   801  BAG801      0.0349
     15  C4        24.1410   46.6650   21.0990 C.3   801  BAG801      0.0492
     16  CD        23.9040   45.2000   21.4050 C.3   801  BAG801      0.2205
     17  NE        23.9720   44.4370   20.1860 N.pl3 801  BAG801     -0.0865
     18  CZ        23.8390   43.0300   20.1660 C.cat 801  BAG801      0.5346
     19  NH2       23.9260   42.4120   18.8780 N.pl3 801  BAG801      0.1354
     20  NH1       23.5460   42.2980   21.3820 N.pl3 801  BAG801      0.1354
@<TRIPOS>BOND
     1    19    18    1
     2    18    17    2
     3    18    20    1
     4    17    16    1
     5    13    11    2
     6    15    16    1
     7    15    14    1
     8    11    10    1
     9    11    12   am
    10     1     2    2
    11    10    14    1
    12    10     9    1
    13     2     9   am
    14     2     3    1
    15     4     3   ar
    16     4     5   ar
    17     3     8   ar
    18     5     6   ar
    19     8     7   ar
    20     6     7   ar
