@<TRIPOS>MOLECULE
1wdd_CAP_A_1.pdb
 21 20 0 0 0
SMALL
GASTEIGER

@<TRIPOS>ATOM
      1  C1        31.0460   28.2320  -20.1360 C.3   1001  CAP1001     0.1978
      2  C2        31.8150   28.5230  -18.8290 C.3   1001  CAP1001     0.2763
      3  C3        31.0690   29.5700  -18.0210 C.3   1001  CAP1001     0.2253
      4  C4        29.6850   29.2220  -17.4740 C.3   1001  CAP1001     0.2152
      5  C5        29.3910   29.8410  -16.1170 C.3   1001  CAP1001     0.1892
      6  C         32.0490   27.2760  -18.0000 C.2   1001  CAP1001     0.3967
      7  O1        31.7950   27.3150  -20.9510 O.3   1001  CAP1001    -0.2669
      8  O2        33.1250   29.0800  -19.1310 O.3   1001  CAP1001    -0.2086
      9  O3        31.9500   30.0370  -16.9810 O.3   1001  CAP1001    -0.2170
     10  O4        28.7880   29.6950  -18.4440 O.3   1001  CAP1001    -0.2176
     11  O5        28.0200   29.5240  -15.7950 O.3   1001  CAP1001    -0.2674
     12  O6        33.0220   27.2970  -17.2160 O.co2 1001  CAP1001    -0.2428
     13  O7        31.2860   26.2560  -18.0920 O.co2 1001  CAP1001    -0.2428
     14  P1        31.0840   26.9240  -22.3810 P.3   1001  CAP1001     0.5327
     15  P2        26.9620   30.7080  -15.5940 P.3   1001  CAP1001     0.5327
     16  O1P       30.8840   28.2420  -23.0910 O.2   1001  CAP1001    -0.2224
     17  O2P       29.8180   26.2210  -21.9840 O.3   1001  CAP1001    -0.1145
     18  O3P       32.1290   26.0050  -23.0450 O.3   1001  CAP1001    -0.1145
     19  O4P       27.0710   31.5980  -16.7990 O.2   1001  CAP1001    -0.2224
     20  O5P       25.6200   30.0350  -15.4200 O.3   1001  CAP1001    -0.1145
     21  O6P       27.3500   31.4430  -14.2840 O.3   1001  CAP1001    -0.1145
@<TRIPOS>BOND
     1    16    14    2
     2    18    14    1
     3    14    17    1
     4    14     7    1
     5     7     1    1
     6     1     2    1
     7     8     2    1
     8     2     3    1
     9     2     6    1
    10    10     4    1
    11    13     6   ar
    12     3     4    1
    13     3     9    1
    14     6    12   ar
    15     4     5    1
    16    19    15    2
    17     5    11    1
    18    11    15    1
    19    15    20    1
    20    15    21    1
