@<TRIPOS>MOLECULE
1wdk_NAD_A_1.pdb
 44 48 0 0 0
SMALL
GASTEIGER

@<TRIPOS>ATOM
      1  PA       -34.7010   18.9230  112.1410 P.3   1001  NAD1001     0.2189
      2  O1A      -33.3640   19.0270  111.4910 O.2   1001  NAD1001    -0.5170
      3  O2A      -35.3480   17.5830  112.0560 O.3   1001  NAD1001    -0.4371
      4  O5B      -34.5300   19.2770  113.6840 O.3   1001  NAD1001    -0.3112
      5  C5B      -35.5740   19.0610  114.6300 C.3   1001  NAD1001     0.1813
      6  C4B      -34.9780   19.0580  116.0150 C.3   1001  NAD1001     0.1821
      7  O4B      -36.0270   19.3640  116.9870 O.3   1001  NAD1001    -0.3135
      8  C3B      -34.4250   17.6870  116.4220 C.3   1001  NAD1001     0.2184
      9  O3B      -33.1820   17.8220  117.1060 O.3   1001  NAD1001    -0.2174
     10  C2B      -35.5150   17.1180  117.3380 C.3   1001  NAD1001     0.2570
     11  O2B      -35.0230   16.1930  118.2930 O.3   1001  NAD1001    -0.2130
     12  C1B      -36.0070   18.3980  118.0180 C.3   1001  NAD1001     0.3186
     13  N9A      -37.3680   18.2770  118.5760 N.pl3 1001  NAD1001    -0.1439
     14  C8A      -38.4080   17.4630  118.1630 C.3   1001  NAD1001     0.3377
     15  N7A      -39.5040   17.5930  118.8780 N.2   1001  NAD1001    -0.2095
     16  C5A      -39.1760   18.5520  119.8270 C.2   1001  NAD1001     0.2526
     17  C6A      -39.9050   19.1540  120.9000 C.2   1001  NAD1001     0.4393
     18  N6A      -41.1670   18.8440  121.1930 N.pl3 1001  NAD1001     0.2180
     19  N1A      -39.2720   20.1020  121.6770 N.2   1001  NAD1001     0.0021
     20  C2A      -37.9850   20.4300  121.3940 C.3   1001  NAD1001     0.5254
     21  N3A      -37.2000   19.9320  120.4130 N.2   1001  NAD1001    -0.0055
     22  C4A      -37.8600   18.9900  119.6550 C.2   1001  NAD1001     0.3518
     23  O3       -35.7120   19.9760  111.4650 O.3   1001  NAD1001    -0.2703
     24  PN       -35.2650   21.4360  110.9530 P.3   1001  NAD1001     0.2189
     25  O1N      -33.9860   21.8320  111.6070 O.3   1001  NAD1001    -0.4371
     26  O2N      -35.2630   21.3670  109.4700 O.2   1001  NAD1001    -0.5170
     27  O5D      -36.3480   22.5110  111.4050 O.3   1001  NAD1001    -0.3112
     28  C5D      -37.7350   22.2670  111.2370 C.3   1001  NAD1001     0.1813
     29  C4D      -38.5190   23.5580  111.2710 C.3   1001  NAD1001     0.1799
     30  O4D      -37.7680   24.6070  110.5780 O.3   1001  NAD1001    -0.3327
     31  C3D      -39.8360   23.4440  110.5160 C.3   1001  NAD1001     0.2158
     32  O3D      -40.8580   24.1950  111.1620 O.3   1001  NAD1001    -0.2175
     33  C2D      -39.4940   23.9970  109.1250 C.3   1001  NAD1001     0.2309
     34  O2D      -40.6190   24.4980  108.4270 O.3   1001  NAD1001    -0.2158
     35  C1D      -38.5210   25.1200  109.4870 C.3   1001  NAD1001     0.2263
     36  N1N      -37.6780   25.5030  108.3270 N.pl3 1001  NAD1001    -0.2787
     37  C2N      -36.8220   24.5630  107.7600 C.3   1001  NAD1001     0.1244
     38  C3N      -36.0230   24.8960  106.6730 C.2   1001  NAD1001     0.0544
     39  C7N      -35.0420   23.8250  106.0270 C.2   1001  NAD1001     0.2818
     40  O7N      -34.1350   23.3480  106.6940 O.2   1001  NAD1001    -0.2670
     41  N7N      -35.2790   23.4940  104.7360 N.am  1001  NAD1001    -0.0839
     42  C4N      -36.0500   26.2220  106.0940 C.2   1001  NAD1001     0.0033
     43  C5N      -36.9550   27.1100  106.7400 C.2   1001  NAD1001     0.0157
     44  C6N      -37.7740   26.8380  107.8220 C.2   1001  NAD1001     0.0633
@<TRIPOS>BOND
     1    41    39   am
     2    39    38    1
     3    39    40    2
     4    42    38    2
     5    42    43    1
     6    38    37    1
     7    43    44    2
     8    37    36    1
     9    44    36    1
    10    36    35    1
    11    34    33    1
    12    33    35    1
    13    33    31    1
    14    26    24    2
    15    35    30    1
    16    31    32    1
    17    31    29    1
    18    30    29    1
    19    24    27    1
    20    24    23    1
    21    24    25    1
    22    28    29    1
    23    28    27    1
    24    23     1    1
    25     2     1    2
    26     3     1    1
    27     1     4    1
    28     4     5    1
    29     5     6    1
    30     6     8    1
    31     6     7    1
    32     8     9    1
    33     8    10    1
    34     7    12    1
    35    10    12    1
    36    10    11    1
    37    12    13    1
    38    14    13    1
    39    14    15    1
    40    13    22    1
    41    15    16    2
    42    22    16    1
    43    22    21    2
    44    16    17    1
    45    21    20    1
    46    17    18    1
    47    17    19    2
    48    20    19    1
