@<TRIPOS>MOLECULE
1wdl_NAD_A_1.pdb
 35 38 0 0 0
SMALL
GASTEIGER

@<TRIPOS>ATOM
      1  PA        37.3550   79.1710   49.9160 P.3   1001  NAD1001     0.2189
      2  O1A       37.5180   77.8000   49.3660 O.2   1001  NAD1001    -0.5170
      3  O2A       38.4920   79.6850   50.7230 O.3   1001  NAD1001    -0.4371
      4  O5B       37.1450   80.1910   48.7050 O.3   1001  NAD1001    -0.3112
      5  C5B       36.8730   81.5830   48.9140 C.3   1001  NAD1001     0.1813
      6  C4B       36.2850   82.1760   47.6480 C.3   1001  NAD1001     0.1821
      7  O4B       35.7330   83.5000   47.9450 O.3   1001  NAD1001    -0.3135
      8  C3B       37.3350   82.4130   46.5530 C.3   1001  NAD1001     0.2184
      9  O3B       36.8210   82.0720   45.2670 O.3   1001  NAD1001    -0.2174
     10  C2B       37.6290   83.9100   46.6560 C.3   1001  NAD1001     0.2570
     11  O2B       38.0910   84.4760   45.4450 O.3   1001  NAD1001    -0.2130
     12  C1B       36.2440   84.4420   47.0200 C.3   1001  NAD1001     0.3186
     13  N9A       36.2930   85.7750   47.6520 N.pl3 1001  NAD1001    -0.1439
     14  C8A       37.0010   86.1790   48.7690 C.3   1001  NAD1001     0.3377
     15  N7A       36.8330   87.4450   49.0830 N.2   1001  NAD1001    -0.2095
     16  C5A       35.9580   87.9140   48.1150 C.2   1001  NAD1001     0.2526
     17  C6A       35.3710   89.1930   47.8710 C.2   1001  NAD1001     0.4393
     18  N6A       35.6000   90.2660   48.6330 N.pl3 1001  NAD1001     0.2180
     19  N1A       34.5210   89.3280   46.7950 N.2   1001  NAD1001     0.0021
     20  C2A       34.2760   88.2470   46.0110 C.3   1001  NAD1001     0.5254
     21  N3A       34.7720   86.9970   46.1410 N.2   1001  NAD1001    -0.0055
     22  C4A       35.6120   86.8950   47.2210 C.2   1001  NAD1001     0.3518
     23  O3        36.0520   79.1730   50.8420 O.3   1001  NAD1001    -0.2703
     24  PN        34.7420   78.3560   50.4240 P.3   1001  NAD1001     0.2189
     25  O1N       34.5850   78.4080   48.9460 O.2   1001  NAD1001    -0.5170
     26  O2N       34.8770   77.0000   51.0180 O.3   1001  NAD1001    -0.4371
     27  O5D       33.4590   79.0550   51.0630 O.3   1001  NAD1001    -0.3112
     28  C5D       33.3960   79.3400   52.4590 C.3   1001  NAD1001     0.1812
     29  C4D       31.9570   79.5250   52.8970 C.3   1001  NAD1001     0.1780
     30  O4D       31.3310   78.2090   52.9920 O.3   1001  NAD1001    -0.3482
     31  C3D       31.8440   80.1300   54.2970 C.3   1001  NAD1001     0.2140
     32  O3D       30.7240   81.0080   54.3810 O.3   1001  NAD1001    -0.2176
     33  C2D       31.6860   78.9070   55.2070 C.3   1001  NAD1001     0.2140
     34  O2D       30.9890   79.1910   56.4030 O.3   1001  NAD1001    -0.2176
     35  C1D       30.8810   77.9720   54.3130 C.3   1001  NAD1001     0.1777
@<TRIPOS>BOND
     1     9     8    1
     2    11    10    1
     3    20    21    1
     4    20    19    1
     5    21    22    2
     6     8    10    1
     7     8     6    1
     8    10    12    1
     9    19    17    2
    10    12    13    1
    11    12     7    1
    12    22    13    1
    13    22    16    1
    14     6     7    1
    15     6     5    1
    16    13    14    1
    17    17    16    1
    18    17    18    1
    19    16    15    2
    20     4     5    1
    21     4     1    1
    22    14    15    1
    23    25    24    2
    24     2     1    2
    25     1     3    1
    26     1    23    1
    27    24    23    1
    28    24    26    1
    29    24    27    1
    30    27    28    1
    31    28    29    1
    32    29    30    1
    33    29    31    1
    34    30    35    1
    35    31    32    1
    36    31    33    1
    37    35    33    1
    38    33    34    1
