@<TRIPOS>MOLECULE
1wdl_ACO_C_1.pdb
 40 42 0 0 0
SMALL
GASTEIGER

@<TRIPOS>ATOM
      1  N1A       42.5530   39.3430   51.8380 N.2   3001  ACO3001     0.0021
      2  C2A       42.9730   40.6000   52.1320 C.3   3001  ACO3001     0.5254
      3  N3A       42.5380   41.7640   51.6050 N.2   3001  ACO3001    -0.0055
      4  C4A       41.5580   41.5620   50.6670 C.2   3001  ACO3001     0.3518
      5  C5A       41.0220   40.3360   50.2640 C.2   3001  ACO3001     0.2526
      6  C6A       41.5680   39.1730   50.8920 C.2   3001  ACO3001     0.4393
      7  N6A       41.1660   37.9310   50.6160 N.pl3 3001  ACO3001     0.2180
      8  N7A       40.0460   40.5190   49.2950 N.2   3001  ACO3001    -0.2095
      9  C8A       40.0030   41.8240   49.1350 C.3   3001  ACO3001     0.3377
     10  N9A       40.8910   42.5180   49.9360 N.pl3 3001  ACO3001    -0.1439
     11  C1B       41.1160   43.9720   50.0200 C.3   3001  ACO3001     0.3185
     12  C2B       41.7340   44.5400   48.7460 C.3   3001  ACO3001     0.2543
     13  O2B       43.1350   44.3510   48.7320 O.3   3001  ACO3001    -0.2131
     14  C3B       41.3220   46.0080   48.8620 C.3   3001  ACO3001     0.1928
     15  O3B       42.2340   46.7440   49.6810 O.3   3001  ACO3001    -0.2673
     16  P3B       43.0790   47.9590   49.0630 P.3   3001  ACO3001     0.5327
     17  O7A       43.9630   47.3960   48.0080 O.2   3001  ACO3001    -0.2224
     18  O8A       42.1090   48.9340   48.4990 O.3   3001  ACO3001    -0.1145
     19  O9A       43.8690   48.5570   50.1700 O.3   3001  ACO3001    -0.1145
     20  C4B       39.9330   45.9410   49.5080 C.3   3001  ACO3001     0.1795
     21  O4B       39.8700   44.6310   50.1510 O.3   3001  ACO3001    -0.3136
     22  C5B       38.8060   46.0400   48.5050 C.3   3001  ACO3001     0.1812
     23  O5B       37.7950   46.9150   49.0040 O.3   3001  ACO3001    -0.3112
     24  P1A       36.2620   46.7070   48.6250 P.3   3001  ACO3001     0.2189
     25  O1A       35.8380   45.3500   49.0600 O.2   3001  ACO3001    -0.5170
     26  O2A       35.5150   47.8440   49.2190 O.3   3001  ACO3001    -0.4371
     27  O3A       36.0950   46.7860   47.0380 O.3   3001  ACO3001    -0.2703
     28  P2A       34.7640   46.2640   46.3320 P.3   3001  ACO3001     0.2188
     29  O4A       33.5930   46.6550   47.1660 O.3   3001  ACO3001    -0.4371
     30  O5A       34.7740   46.7940   44.9440 O.2   3001  ACO3001    -0.5170
     31  O6A       34.8080   44.6660   46.2490 O.3   3001  ACO3001    -0.3138
     32  CBP       33.1280   43.0470   45.4670 C.3   3001  ACO3001     0.0646
     33  CCP       33.7070   43.8460   46.6690 C.3   3001  ACO3001     0.1519
     34  CDP       34.2550   42.2440   44.7920 C.3   3001  ACO3001     0.0056
     35  CEP       32.5320   44.0380   44.4440 C.3   3001  ACO3001     0.0056
     36  CAP       32.0050   42.0490   45.9890 C.3   3001  ACO3001     0.2329
     37  OAP       31.0420   42.7830   46.7700 O.3   3001  ACO3001    -0.2131
     38  C9P       31.2840   41.3640   44.7990 C.2   3001  ACO3001     0.2912
     39  O9P       31.7100   40.3060   44.3250 O.2   3001  ACO3001    -0.2689
     40  N8P       30.1160   41.8890   44.4290 N.am  3001  ACO3001    -0.0856
@<TRIPOS>BOND
     1    39    38    2
     2    40    38   am
     3    35    32    1
     4    34    32    1
     5    38    36    1
     6    30    28    2
     7    32    36    1
     8    32    33    1
     9    36    37    1
    10    31    28    1
    11    31    33    1
    12    28    27    1
    13    28    29    1
    14    27    24    1
    15    17    16    2
    16    18    16    1
    17    22    23    1
    18    22    20    1
    19    24    23    1
    20    24    25    2
    21    24    26    1
    22    13    12    1
    23    12    14    1
    24    12    11    1
    25    14    20    1
    26    14    15    1
    27    16    15    1
    28    16    19    1
    29     9     8    1
    30     9    10    1
    31     8     5    2
    32    20    21    1
    33    10    11    1
    34    10     4    1
    35    11    21    1
    36     5     4    1
    37     5     6    1
    38     7     6    1
    39     4     3    2
    40     6     1    2
    41     3     2    1
    42     1     2    1
