@<TRIPOS>MOLECULE
1wdm_NAD_A_1.pdb
 44 48 0 0 0
SMALL
GASTEIGER

@<TRIPOS>ATOM
      1  PA       -35.9180   18.6830  112.5100 P.3   1001  NAD1001     0.2189
      2  O1A      -34.6590   18.6580  111.7100 O.2   1001  NAD1001    -0.5170
      3  O2A      -36.8320   17.5230  112.3230 O.3   1001  NAD1001    -0.4371
      4  O5B      -35.5390   18.7340  114.0630 O.3   1001  NAD1001    -0.3112
      5  C5B      -36.5540   18.8100  115.0770 C.3   1001  NAD1001     0.1813
      6  C4B      -35.9600   19.2740  116.4000 C.3   1001  NAD1001     0.1821
      7  O4B      -37.0420   19.7160  117.2910 O.3   1001  NAD1001    -0.3135
      8  C3B      -35.2560   18.1560  117.1740 C.3   1001  NAD1001     0.2184
      9  O3B      -34.0930   18.6460  117.8460 O.3   1001  NAD1001    -0.2174
     10  C2B      -36.3220   17.6900  118.1710 C.3   1001  NAD1001     0.2570
     11  O2B      -35.7930   17.0540  119.3150 O.3   1001  NAD1001    -0.2130
     12  C1B      -36.9400   19.0310  118.5290 C.3   1001  NAD1001     0.3186
     13  N9A      -38.2820   18.9040  119.1290 N.pl3 1001  NAD1001    -0.1439
     14  C8A      -39.3560   18.1470  118.6960 C.3   1001  NAD1001     0.3377
     15  N7A      -40.4220   18.2460  119.4560 N.2   1001  NAD1001    -0.2095
     16  C5A      -40.0390   19.1280  120.4570 C.2   1001  NAD1001     0.2526
     17  C6A      -40.7130   19.6580  121.6010 C.2   1001  NAD1001     0.4393
     18  N6A      -41.9780   19.3590  121.9120 N.pl3 1001  NAD1001     0.2180
     19  N1A      -40.0310   20.5300  122.4170 N.2   1001  NAD1001     0.0021
     20  C2A      -38.7470   20.8430  122.1150 C.3   1001  NAD1001     0.5254
     21  N3A      -38.0060   20.4080  121.0720 N.2   1001  NAD1001    -0.0055
     22  C4A      -38.7150   19.5370  120.2760 C.2   1001  NAD1001     0.3518
     23  O3       -36.7280   20.0070  112.1140 O.3   1001  NAD1001    -0.2703
     24  PN       -36.0090   21.4420  112.0560 P.3   1001  NAD1001     0.2189
     25  O1N      -34.9860   21.5150  113.1430 O.3   1001  NAD1001    -0.4371
     26  O2N      -35.5030   21.6160  110.6670 O.2   1001  NAD1001    -0.5170
     27  O5D      -37.0870   22.5800  112.3240 O.3   1001  NAD1001    -0.3112
     28  C5D      -38.3680   22.5320  111.7010 C.3   1001  NAD1001     0.1813
     29  C4D      -38.9550   23.9240  111.5910 C.3   1001  NAD1001     0.1799
     30  O4D      -38.1220   24.7160  110.6860 O.3   1001  NAD1001    -0.3327
     31  C3D      -40.3490   23.9230  110.9700 C.3   1001  NAD1001     0.2158
     32  O3D      -41.1830   24.9030  111.5920 O.3   1001  NAD1001    -0.2175
     33  C2D      -40.0780   24.2550  109.4920 C.3   1001  NAD1001     0.2309
     34  O2D      -41.1750   24.8570  108.8380 O.3   1001  NAD1001    -0.2158
     35  C1D      -38.9090   25.2280  109.6190 C.3   1001  NAD1001     0.2263
     36  N1N      -38.1620   25.3700  108.3470 N.pl3 1001  NAD1001    -0.2787
     37  C2N      -37.4940   24.2680  107.8080 C.3   1001  NAD1001     0.1244
     38  C3N      -36.7890   24.3850  106.6170 C.2   1001  NAD1001     0.0544
     39  C7N      -36.0320   23.1450  105.9910 C.2   1001  NAD1001     0.2818
     40  O7N      -34.8600   22.9290  106.2860 O.2   1001  NAD1001    -0.2670
     41  N7N      -36.7490   22.3780  105.1440 N.am  1001  NAD1001    -0.0839
     42  C4N      -36.7170   25.6320  105.8940 C.2   1001  NAD1001     0.0033
     43  C5N      -37.4200   26.6920  106.5200 C.2   1001  NAD1001     0.0157
     44  C6N      -38.1350   26.6420  107.6990 C.2   1001  NAD1001     0.0633
@<TRIPOS>BOND
     1    41    39   am
     2    42    43    1
     3    42    38    2
     4    39    40    2
     5    39    38    1
     6    43    44    2
     7    38    37    1
     8    44    36    1
     9    37    36    1
    10    36    35    1
    11    34    33    1
    12    33    35    1
    13    33    31    1
    14    35    30    1
    15    26    24    2
    16    30    29    1
    17    31    29    1
    18    31    32    1
    19    29    28    1
    20    28    27    1
    21     2     1    2
    22    24    23    1
    23    24    27    1
    24    24    25    1
    25    23     1    1
    26     3     1    1
    27     1     4    1
    28     4     5    1
    29     5     6    1
    30     6     8    1
    31     6     7    1
    32     8     9    1
    33     8    10    1
    34     7    12    1
    35    10    12    1
    36    10    11    1
    37    12    13    1
    38    14    13    1
    39    14    15    1
    40    13    22    1
    41    15    16    2
    42    22    16    1
    43    22    21    2
    44    16    17    1
    45    21    20    1
    46    17    18    1
    47    17    19    2
    48    20    19    1
