@<TRIPOS>MOLECULE
1wdq_MAL_A_1.pdb
 23 24 0 0 0
SMALL
GASTEIGER

@<TRIPOS>ATOM
      1  C1         0.9230   28.6920   21.9830 C.3   496  MAL496      0.2696
      2  C2         1.7170   27.4070   21.6590 C.3   496  MAL496      0.2406
      3  C3         3.1030   27.8610   21.1930 C.3   496  MAL496      0.2198
      4  C4         2.9420   28.6640   19.9090 C.3   496  MAL496      0.2144
      5  C5         2.0870   29.9040   20.1930 C.3   496  MAL496      0.1835
      6  C6         1.7200   30.7580   18.9850 C.3   496  MAL496      0.2142
      7  O1         1.5100   29.4120   23.0670 O.3   496  MAL496     -0.3245
      8  O2         1.8620   26.6610   22.8710 O.3   496  MAL496     -0.2149
      9  O3         3.8820   26.6820   20.9530 O.3   496  MAL496     -0.2174
     10  O4         4.2560   29.1080   19.5140 O.3   496  MAL496     -0.2176
     11  O5         0.8360   29.4530   20.7540 O.3   496  MAL496     -0.3256
     12  O6         0.9830   30.0210   17.9800 O.3   496  MAL496     -0.2176
     13  C1'       -0.2160   32.8410   24.5710 C.2   496  MAL496      0.3505
     14  C2'       -0.6380   31.5880   25.1980 C.3   496  MAL496      0.2821
     15  C3'        0.0570   30.3000   24.8200 C.3   496  MAL496      0.2238
     16  C4'        0.8690   30.5740   23.5570 C.3   496  MAL496      0.1936
     17  C5'        1.8850   31.6670   23.9480 C.3   496  MAL496      0.2312
     18  C6'        2.8230   32.2800   22.9300 C.3   496  MAL496      0.2280
     19  O1'       -0.8270   34.1190   24.3720 O.2   496  MAL496     -0.2472
     20  O2'       -1.0670   31.4000   26.5250 O.3   496  MAL496     -0.2082
     21  O3'       -0.8750   29.2780   24.5270 O.3   496  MAL496     -0.2170
     22  O5'        1.1980   32.8420   24.4530 O.3   496  MAL496     -0.4451
     23  O6'        2.0480   32.8510   21.7950 O.3   496  MAL496     -0.2163
@<TRIPOS>BOND
     1    12     6    1
     2     6     5    1
     3    10     4    1
     4     4     5    1
     5     4     3    1
     6     5    11    1
     7    11     1    1
     8     9     3    1
     9     3     2    1
    10     2     1    1
    11     2     8    1
    12    23    18    1
    13     1     7    1
    14    18    17    1
    15     7    16    1
    16    16    17    1
    17    16    15    1
    18    17    22    1
    19    19    13    2
    20    22    13    1
    21    21    15    1
    22    13    14    1
    23    15    14    1
    24    14    20    1
