@<TRIPOS>MOLECULE
1wdr_GLC_A_1.pdb
 12 10 0 0 0
SMALL
GASTEIGER

@<TRIPOS>ATOM
      1  C1        -3.0380   28.7790   33.1950 C.2   499  GLC499      0.3973
      2  C2        -3.1610   30.2660   33.3910 C.3   499  GLC499      0.2864
      3  C3        -2.8920   30.9470   32.0320 C.3   499  GLC499      0.2234
      4  C4        -1.9560   30.1120   31.2310 C.3   499  GLC499      0.1854
      5  C5        -2.1650   28.6620   30.8800 C.3   499  GLC499      0.0383
      6  C6         0.0820   27.7600   30.9970 C.3   499  GLC499      0.2175
      7  O1        -4.1800   28.2080   32.7600 O.co2 499  GLC499     -0.2427
      8  O2        -4.5200   30.5790   33.7200 O.3   499  GLC499     -0.2080
      9  O3        -2.2570   32.1770   32.3500 O.3   499  GLC499     -0.2170
     10  O4        -1.3980   30.8110   30.1160 O.3   499  GLC499     -0.2203
     11  O5        -1.8130   28.1940   32.9040 O.co2 499  GLC499     -0.2427
     12  O6        -0.5240   26.5180   31.2890 O.3   499  GLC499     -0.2175
@<TRIPOS>BOND
     1    10     4    1
     2     5     4    1
     3     6    12    1
     4     4     3    1
     5     3     9    1
     6     3     2    1
     7     7     1   ar
     8    11     1   ar
     9     1     2    1
    10     2     8    1
