@<TRIPOS>MOLECULE
1wdr_MAL_A_1.pdb
 23 24 0 0 0
SMALL
GASTEIGER

@<TRIPOS>ATOM
      1  C1         1.0040   29.0760   22.0650 C.3   496  MAL496      0.2695
      2  C2         1.7940   27.7970   21.7070 C.3   496  MAL496      0.2406
      3  C3         3.2030   28.1500   21.2210 C.3   496  MAL496      0.2198
      4  C4         3.0080   28.9350   19.9050 C.3   496  MAL496      0.2144
      5  C5         2.1880   30.2240   20.2430 C.3   496  MAL496      0.1835
      6  C6         1.8470   31.0510   18.9930 C.3   496  MAL496      0.2142
      7  O1         1.7330   29.8190   23.0650 O.3   496  MAL496     -0.3257
      8  O2         1.9070   26.9510   22.8950 O.3   496  MAL496     -0.2149
      9  O3         3.8700   26.9030   20.8850 O.3   496  MAL496     -0.2174
     10  O4         4.3310   29.3240   19.4950 O.3   496  MAL496     -0.2176
     11  O5         0.9210   29.8420   20.8390 O.3   496  MAL496     -0.3256
     12  O6         1.0810   30.2610   18.0500 O.3   496  MAL496     -0.2176
     13  C1'        0.6910   32.7760   25.8260 C.3   496  MAL496      0.3023
     14  C2'       -0.4190   31.7790   25.4540 C.3   496  MAL496      0.2433
     15  C3'        0.2690   30.5490   24.9090 C.3   496  MAL496      0.2168
     16  C4'        1.0510   30.9620   23.6390 C.3   496  MAL496      0.1804
     17  C5'        2.1840   31.8730   24.0970 C.3   496  MAL496      0.1804
     18  C6'        3.0410   32.4590   22.9990 C.3   496  MAL496      0.2141
     19  O1'        0.1300   34.0410   26.0500 O.3   496  MAL496     -0.1869
     20  O2'       -0.9520   31.4040   26.7710 O.3   496  MAL496     -0.2148
     21  O3'       -0.7720   29.6300   24.5420 O.3   496  MAL496     -0.2175
     22  O5'        1.5270   33.0380   24.6550 O.3   496  MAL496     -0.3237
     23  O6'        2.2560   33.0900   21.9490 O.3   496  MAL496     -0.2176
@<TRIPOS>BOND
     1    12     6    1
     2     6     5    1
     3    10     4    1
     4     4     5    1
     5     4     3    1
     6     5    11    1
     7    11     1    1
     8     9     3    1
     9     3     2    1
    10     2     1    1
    11     2     8    1
    12    23    18    1
    13     1     7    1
    14    18    17    1
    15     7    16    1
    16    16    17    1
    17    16    15    1
    18    17    22    1
    19    21    15    1
    20    22    13    1
    21    15    14    1
    22    14    13    1
    23    14    20    1
    24    13    19    1
