@<TRIPOS>MOLECULE
1wds_BGC_A_1.pdb
 12 12 0 0 0
SMALL
GASTEIGER

@<TRIPOS>ATOM
      1  C2        -0.2630   31.4490   25.4550 C.3   497  BGC497      0.2434
      2  C3         0.2780   30.2130   24.7360 C.3   497  BGC497      0.2199
      3  C4         1.0880   30.6170   23.4990 C.3   497  BGC497      0.2144
      4  C5         2.1760   31.6230   23.8960 C.3   497  BGC497      0.1836
      5  C6         2.9470   32.1580   22.6990 C.3   497  BGC497      0.2142
      6  C1         0.8920   32.4010   25.7760 C.3   497  BGC497      0.3024
      7  O1         0.3990   33.5630   26.3480 O.3   497  BGC497     -0.1869
      8  O2        -0.9050   31.0550   26.6590 O.3   497  BGC497     -0.2148
      9  O3        -0.7980   29.3710   24.3490 O.3   497  BGC497     -0.2174
     10  O4         1.7100   29.4450   22.9350 O.3   497  BGC497     -0.2176
     11  O5         1.5940   32.7590   24.5720 O.3   497  BGC497     -0.3236
     12  O6         2.1090   32.9110   21.8300 O.3   497  BGC497     -0.2176
@<TRIPOS>BOND
     1    12     5    1
     2     5     4    1
     3    10     3    1
     4     3     4    1
     5     3     2    1
     6     4    11    1
     7     9     2    1
     8    11     6    1
     9     2     1    1
    10     1     6    1
    11     1     8    1
    12     6     7    1
