@<TRIPOS>MOLECULE
1wds_GLC_A_1.pdb
 11 11 0 0 0
SMALL
GASTEIGER

@<TRIPOS>ATOM
      1  C1         1.0150   28.7930   21.9080 C.3   496  GLC496      0.1777
      2  C2         1.7350   27.4860   21.5710 C.3   496  GLC496      0.2141
      3  C3         3.1180   27.8180   21.0200 C.3   496  GLC496      0.2173
      4  C4         2.9660   28.6910   19.7750 C.3   496  GLC496      0.2142
      5  C5         2.1610   29.9550   20.1170 C.3   496  GLC496      0.1810
      6  C6         1.8400   30.7940   18.8910 C.3   496  GLC496      0.2141
      7  O2         1.8580   26.6880   22.7370 O.3   496  GLC496     -0.2176
      8  O3         3.8180   26.6210   20.7050 O.3   496  GLC496     -0.2175
      9  O4         4.2470   29.0610   19.2940 O.3   496  GLC496     -0.2176
     10  O5         0.8990   29.5950   20.7310 O.3   496  GLC496     -0.3481
     11  O6         1.1290   30.0400   17.9190 O.3   496  GLC496     -0.2176
@<TRIPOS>BOND
     1    11     6    1
     2     6     5    1
     3     9     4    1
     4     4     5    1
     5     4     3    1
     6     5    10    1
     7     8     3    1
     8    10     1    1
     9     3     2    1
    10     2     1    1
    11     2     7    1
