@<TRIPOS>MOLECULE
1wdt_GTP_A_1.pdb
 32 34 0 0 0
SMALL
GASTEIGER

@<TRIPOS>ATOM
      1  PG        13.8010   29.7770    9.6000 P.3   700  GTP700      0.5373
      2  O1G       12.4590   30.4040    9.3640 O.3   700  GTP700     -0.1143
      3  O2G       13.8770   28.3110    9.2010 O.2   700  GTP700     -0.2221
      4  O3G       14.2050   29.8740   11.1190 O.3   700  GTP700     -0.1143
      5  O3B       14.8460   30.6920    8.6810 O.3   700  GTP700     -0.2258
      6  PB        16.4350   30.4730    8.5450 P.3   700  GTP700      0.2277
      7  O1B       17.1930   31.3520    9.4420 O.3   700  GTP700     -0.4368
      8  O2B       16.9170   29.1850    8.1400 O.2   700  GTP700     -0.5168
      9  O3A       16.6170   31.2640    7.2290 O.3   700  GTP700     -0.2700
     10  PA        16.7180   30.8050    5.6930 P.3   700  GTP700      0.2189
     11  O1A       18.1580   30.4960    5.3090 O.3   700  GTP700     -0.4371
     12  O2A       15.5080   30.2240    5.1520 O.2   700  GTP700     -0.5170
     13  O5'       16.5240   32.2330    4.9750 O.3   700  GTP700     -0.3112
     14  C5'       16.3180   33.5630    5.4650 C.3   700  GTP700      0.1813
     15  C4'       16.0660   34.5030    4.2900 C.3   700  GTP700      0.1799
     16  O4'       17.1270   35.4950    4.1780 O.3   700  GTP700     -0.3326
     17  C3'       16.0040   33.8210    2.9060 C.3   700  GTP700      0.2158
     18  O3'       15.0010   34.4040    2.0740 O.3   700  GTP700     -0.2175
     19  C2'       17.4200   33.9640    2.3890 C.3   700  GTP700      0.2310
     20  O2'       17.4140   34.1120    0.9640 O.3   700  GTP700     -0.2158
     21  C1'       17.9620   35.2160    3.0360 C.3   700  GTP700      0.2293
     22  N9        19.3560   35.1650    3.5460 N.pl3 700  GTP700     -0.2354
     23  C8        19.9510   34.1310    4.2490 C.3   700  GTP700      0.2246
     24  N7        21.1960   34.3600    4.5700 N.2   700  GTP700     -0.2322
     25  C5        21.4530   35.6190    4.0550 C.2   700  GTP700      0.2182
     26  C6        22.6470   36.4170    4.0830 C.1   700  GTP700      0.2372
     27  O6        23.7420   36.1550    4.5910 O.2   700  GTP700     -0.2069
     28  N1        22.4810   37.6650    3.4240 N.2   700  GTP700     -0.2485
     29  C2        21.2930   38.0730    2.8140 C.1   700  GTP700      0.2531
     30  N2        21.3170   39.2810    2.2370 N.pl3 700  GTP700     -0.0226
     31  N3        20.1810   37.3350    2.7870 N.2   700  GTP700     -0.3074
     32  C4        20.3250   36.1240    3.4190 C.2   700  GTP700      0.2300
@<TRIPOS>BOND
     1    20    19    1
     2    18    17    1
     3    30    29    1
     4    19    17    1
     5    19    21    1
     6    31    29    2
     7    31    32    2
     8    29    28    2
     9    17    15    1
    10    21    22    1
    11    21    16    1
    12    32    22    1
    13    32    25    1
    14    28    26    2
    15    22    23    1
    16    25    26    1
    17    25    24    2
    18    26    27    2
    19    16    15    1
    20    23    24    1
    21    15    14    1
    22    13    14    1
    23    13    10    1
    24    12    10    2
    25    11    10    1
    26    10     9    1
    27     9     6    1
    28     8     6    2
    29     6     5    1
    30     6     7    1
    31     5     1    1
    32     3     1    2
    33     2     1    1
    34     1     4    1
