@<TRIPOS>MOLECULE
1wdw_PLP_B_1.pdb
 15 15 0 0 0
SMALL
GASTEIGER

@<TRIPOS>ATOM
      1  N1        85.8130  215.3710  172.3050 N.ar  400  PLP400     -0.2452
      2  C2        85.0980  215.6810  171.1620 C.ar  400  PLP400      0.0978
      3  C2A       85.2070  214.6730  170.0250 C.3   400  PLP400      0.0555
      4  C3        84.3340  216.8410  171.1480 C.ar  400  PLP400      0.2049
      5  O3        83.6500  217.0850  169.9870 O.3   400  PLP400     -0.2857
      6  C4        84.2830  217.7340  172.2250 C.ar  400  PLP400      0.0182
      7  C4A       83.4200  219.0170  172.1540 C.3   400  PLP400      0.0342
      8  C5        85.0230  217.4190  173.4140 C.ar  400  PLP400      0.0261
      9  C6        85.7680  216.2390  173.3780 C.ar  400  PLP400      0.0965
     10  C5A       85.1240  218.2380  174.7060 C.3   400  PLP400      0.1815
     11  O4P       83.9700  218.4430  175.4940 O.3   400  PLP400     -0.2653
     12  P         83.6710  217.5930  176.7760 P.3   400  PLP400      0.5329
     13  O1P       82.4050  218.2020  177.2350 O.3   400  PLP400     -0.1145
     14  O2P       84.8090  217.8190  177.7110 O.3   400  PLP400     -0.1145
     15  O3P       83.4900  216.1870  176.4640 O.2   400  PLP400     -0.2224
@<TRIPOS>BOND
     1     5     4    1
     2     3     2    1
     3     4     2   ar
     4     4     6   ar
     5     2     1   ar
     6     7     6    1
     7     6     8   ar
     8     1     9   ar
     9     9     8   ar
    10     8    10    1
    11    10    11    1
    12    11    12    1
    13    15    12    2
    14    12    13    1
    15    12    14    1
