@<TRIPOS>MOLECULE
1we1_HEM_A_1.pdb
 43 50 0 0 0
SMALL
GASTEIGER

@<TRIPOS>ATOM
      1  CHA       29.9900    3.0490   28.8400 C.2   300  HEM300      0.0000
      2  CHB       26.3080    0.0270   27.9970 C.2   300  HEM300      0.0000
      3  CHC       26.8870    0.9110   23.2600 C.2   300  HEM300      0.0000
      4  CHD       29.3350    4.8820   24.3810 C.2   300  HEM300      0.0000
      5  C1A       29.0300    2.0360   29.0530 C.2   300  HEM300      0.0000
      6  C2A       28.7750    1.3320   30.3000 C.2   300  HEM300      0.0000
      7  C3A       27.7670    0.4430   30.0490 C.2   300  HEM300      0.0000
      8  C4A       27.3640    0.6640   28.6520 C.2   300  HEM300      0.0000
      9  CMA       27.1440   -0.5570   30.9750 C.3   300  HEM300      0.0000
     10  CAA       29.4620    1.5960   31.6310 C.3   300  HEM300      0.0000
     11  CBA       30.8950    1.0260   31.7670 C.3   300  HEM300      0.0000
     12  CGA       31.5070    1.2660   33.0230 C.2   300  HEM300      0.0000
     13  O1A       31.5100    0.2700   33.8490 O.co2 300  HEM300      0.0000
     14  O2A       32.0110    2.3600   33.3460 O.co2 300  HEM300      0.0000
     15  C1B       26.1560   -0.0330   26.6020 C.ar  300  HEM300      0.0000
     16  C2B       25.2690   -0.9590   25.9000 C.ar  300  HEM300      0.0000
     17  C3B       25.3860   -0.6720   24.5710 C.ar  300  HEM300      0.0000
     18  C4B       26.4040    0.3720   24.4670 C.ar  300  HEM300      0.0000
     19  CMB       24.3980   -1.9860   26.5790 C.3   300  HEM300      0.0000
     20  CAB       24.6090   -1.2360   23.3970 C.3   300  HEM300      0.0000
     21  CBB       24.8360   -2.7510   23.1490 C.3   300  HEM300      0.0000
     22  C1C       27.5300    2.1170   23.1380 C.2   300  HEM300      0.0000
     23  C2C       27.6980    2.8720   21.9050 C.2   300  HEM300      0.0000
     24  C3C       28.5800    3.8470   22.2030 C.2   300  HEM300      0.0000
     25  C4C       28.7060    3.8880   23.6420 C.2   300  HEM300      0.0000
     26  CMC       26.9920    2.5660   20.5980 C.3   300  HEM300      0.0000
     27  CAC       29.3380    4.7410   21.2190 C.3   300  HEM300      0.0000
     28  CBC       28.5390    6.0410   20.9190 C.3   300  HEM300      0.0000
     29  C1D       29.7350    4.7600   25.7340 C.ar  300  HEM300      0.0000
     30  C2D       30.5950    5.7180   26.4250 C.ar  300  HEM300      0.0000
     31  C3D       30.7410    5.2310   27.6840 C.ar  300  HEM300      0.0000
     32  C4D       30.0150    3.9380   27.7420 C.ar  300  HEM300      0.0000
     33  CMD       31.1510    6.9410   25.7690 C.3   300  HEM300      0.0000
     34  CAD       31.4820    5.8050   28.8680 C.3   300  HEM300      0.0000
     35  CBD       32.9520    5.2060   29.0130 C.3   300  HEM300      0.0000
     36  CGD       33.5530    5.5130   30.2570 C.2   300  HEM300      0.0000
     37  O1D       32.8700    5.4330   31.3460 O.co2 300  HEM300      0.0000
     38  O2D       34.7670    5.8630   30.3130 O.co2 300  HEM300      0.0000
     39  NA        28.1810    1.6040   28.0620 N.2   300  HEM300      0.0000
     40  NB        26.8340    0.7780   25.7200 N.ar  300  HEM300      0.0000
     41  NC        28.1270    2.7880   24.2200 N.2   300  HEM300      0.0000
     42  ND        29.3680    3.7130   26.5770 N.ar  300  HEM300      0.0000
     43 FE         28.1460    2.2180   26.1530 Fe    300  HEM300      0.0000
@<TRIPOS>BOND
     1    26    23    1
     2    28    27    1
     3    27    24    1
     4    23    24    2
     5    23    22    1
     6    24    25    1
     7    22     3    2
     8    22    41    1
     9    21    20    1
    10     3    18    1
    11    20    17    1
    12    25    41    2
    13    25     4    1
    14    41    43    1
    15     4    29    2
    16    18    17   ar
    17    18    40   ar
    18    17    16   ar
    19    40    43    1
    20    40    15   ar
    21    29    30   ar
    22    29    42   ar
    23    33    30    1
    24    16    19    1
    25    16    15   ar
    26    43    42    1
    27    43    39    1
    28    30    31   ar
    29    42    32   ar
    30    15     2    1
    31    31    32   ar
    32    31    34    1
    33    32     1    2
    34     2     8    2
    35    39     8    1
    36    39     5    2
    37     8     7    1
    38     1     5    1
    39    34    35    1
    40    35    36    1
    41     5     6    1
    42     7     6    2
    43     7     9    1
    44    36    38   ar
    45    36    37   ar
    46     6    10    1
    47    10    11    1
    48    11    12    1
    49    12    14   ar
    50    12    13   ar
