@<TRIPOS>MOLECULE
1we2_ADP_A_1.pdb
 27 29 0 0 0
SMALL
GASTEIGER

@<TRIPOS>ATOM
      1  PB        34.4230   32.1710   28.9410 P.3   177  ADP177      0.5373
      2  O1B       34.1830   30.7930   28.4950 O.3   177  ADP177     -0.1143
      3  O2B       34.1810   33.2900   27.8090 O.2   177  ADP177     -0.2221
      4  O3B       33.5600   32.5480   30.0750 O.3   177  ADP177     -0.1143
      5  PA        37.1520   33.1330   28.8290 P.3   177  ADP177      0.2231
      6  O1A       36.8070   34.5600   29.0500 O.3   177  ADP177     -0.4370
      7  O2A       37.4340   32.7640   27.4620 O.2   177  ADP177     -0.5169
      8  O3A       35.9490   32.2380   29.2950 O.3   177  ADP177     -0.2261
      9  O5'       38.3450   32.6680   29.7410 O.3   177  ADP177     -0.3111
     10  C5'       38.3550   32.9910   31.1230 C.3   177  ADP177      0.1813
     11  C4'       39.8160   33.2510   31.4500 C.3   177  ADP177      0.1821
     12  O4'       40.4380   31.9810   31.5130 O.3   177  ADP177     -0.3135
     13  C3'       40.5720   34.0630   30.4040 C.3   177  ADP177      0.2184
     14  O3'       41.5540   34.9270   30.9370 O.3   177  ADP177     -0.2174
     15  C2'       41.3930   33.1030   29.6730 C.3   177  ADP177      0.2570
     16  O2'       42.6370   33.7390   29.2910 O.3   177  ADP177     -0.2130
     17  C1'       41.5270   31.9280   30.6330 C.3   177  ADP177      0.3186
     18  N9        41.5550   30.6360   29.9750 N.pl3 177  ADP177     -0.1439
     19  C8        40.6570   30.1370   29.1040 C.3   177  ADP177      0.3377
     20  N7        41.0690   28.9190   28.7220 N.2   177  ADP177     -0.2095
     21  C5        42.1920   28.6600   29.3310 C.2   177  ADP177      0.2526
     22  C6        43.0890   27.6240   29.3600 C.2   177  ADP177      0.4393
     23  N6        42.9160   26.5230   28.6280 N.pl3 177  ADP177      0.2180
     24  N1        44.1710   27.7040   30.1450 N.2   177  ADP177      0.0021
     25  C2        44.4310   28.7680   30.9060 C.3   177  ADP177      0.5254
     26  N3        43.5910   29.7800   30.9010 N.2   177  ADP177     -0.0055
     27  C4        42.4840   29.7760   30.1420 C.2   177  ADP177      0.3518
@<TRIPOS>BOND
     1     7     5    2
     2     3     1    2
     3     2     1    1
     4    23    22    1
     5    20    19    1
     6    20    21    2
     7     5     6    1
     8     5     8    1
     9     5     9    1
    10     1     8    1
    11     1     4    1
    12    19    18    1
    13    16    15    1
    14    21    22    1
    15    21    27    1
    16    22    24    2
    17    15    13    1
    18    15    17    1
    19     9    10    1
    20    18    27    1
    21    18    17    1
    22    27    26    2
    23    24    25    1
    24    13    14    1
    25    13    11    1
    26    17    12    1
    27    26    25    1
    28    10    11    1
    29    11    12    1
