@<TRIPOS>MOLECULE
1we2_DHK_A_1.pdb
 12 12 0 0 0
SMALL
GASTEIGER

@<TRIPOS>ATOM
      1  C2        26.4290   33.2040   30.5960 C.2   181  DHK181      0.0111
      2  C3        26.8270   34.4880   29.8570 C.3   181  DHK181      0.2066
      3  O3        26.4230   34.3770   28.4570 O.3   181  DHK181     -0.2155
      4  C4        26.1820   35.7480   30.3530 C.3   181  DHK181      0.2167
      5  O4        26.2460   36.6930   29.2460 O.3   181  DHK181     -0.2173
      6  C5        24.7490   35.4660   30.6760 C.3   181  DHK181      0.1896
      7  C1        25.4110   33.2580   31.5350 C.2   181  DHK181      0.0584
      8  C6        24.7510   34.4860   31.8360 C.3   181  DHK181      0.0684
      9  C         24.9920   32.0690   32.2090 C.2   181  DHK181      0.3837
     10  O1        25.8670   31.1210   32.4560 O.co2 181  DHK181     -0.2409
     11  O2        23.7350   32.0920   32.5010 O.co2 181  DHK181     -0.2409
     12  O5        24.0790   36.7190   31.1310 O.3   181  DHK181     -0.2200
@<TRIPOS>BOND
     1     3     2    1
     2     5     4    1
     3     2     4    1
     4     2     1    1
     5     4     6    1
     6     1     7    2
     7     6    12    1
     8     6     8    1
     9     7     8    1
    10     7     9    1
    11     9    10   ar
    12     9    11   ar
