@<TRIPOS>MOLECULE
1we3_ADP_A_1.pdb
 27 29 0 0 0
SMALL
GASTEIGER

@<TRIPOS>ATOM
      1  PB        44.4370    3.1040  -21.7460 P.3   1551  ADP1551     0.5373
      2  O1B       45.1710    3.6170  -22.9480 O.2   1551  ADP1551    -0.2221
      3  O2B       45.1540    3.5010  -20.3690 O.3   1551  ADP1551    -0.1143
      4  O3B       43.0360    3.6060  -21.7300 O.3   1551  ADP1551    -0.1143
      5  PA        44.9180    0.3670  -22.7140 P.3   1551  ADP1551     0.2231
      6  O1A       44.1580   -0.8620  -22.3770 O.3   1551  ADP1551    -0.4370
      7  O2A       44.6500    0.6950  -24.1130 O.2   1551  ADP1551    -0.5169
      8  O3A       44.4650    1.5260  -21.7170 O.3   1551  ADP1551    -0.2261
      9  O5'       46.5090    0.1900  -22.5550 O.3   1551  ADP1551    -0.3111
     10  C5'       47.3370    0.9830  -21.7120 C.3   1551  ADP1551     0.1813
     11  C4'       48.8290    0.4820  -21.7070 C.3   1551  ADP1551     0.1821
     12  O4'       49.0620   -0.8910  -22.1340 O.3   1551  ADP1551    -0.3135
     13  C3'       49.8880    1.3250  -22.4400 C.3   1551  ADP1551     0.2184
     14  O3'       50.9540    1.6930  -21.5620 O.3   1551  ADP1551    -0.2174
     15  C2'       50.3580    0.4460  -23.5860 C.3   1551  ADP1551     0.2570
     16  O2'       51.6390    0.8280  -24.0890 O.3   1551  ADP1551    -0.2130
     17  C1'       50.2940   -0.8670  -22.8930 C.3   1551  ADP1551     0.3186
     18  N9        50.3810   -2.0670  -23.8130 N.pl3 1551  ADP1551    -0.1439
     19  C8        49.5650   -2.3870  -24.8480 C.3   1551  ADP1551     0.3377
     20  N7        49.9690   -3.5020  -25.4400 N.2   1551  ADP1551    -0.2095
     21  C5        51.0340   -3.9170  -24.7580 C.2   1551  ADP1551     0.2526
     22  C6        51.9290   -5.0120  -24.9260 C.2   1551  ADP1551     0.4393
     23  N6        51.7450   -5.9310  -25.8810 N.pl3 1551  ADP1551     0.2180
     24  N1        52.9920   -5.1560  -24.0310 N.2   1551  ADP1551     0.0021
     25  C2        53.2390   -4.2650  -23.0470 C.3   1551  ADP1551     0.5254
     26  N3        52.3870   -3.2090  -22.9010 N.2   1551  ADP1551    -0.0055
     27  C4        51.3310   -3.0020  -23.7510 C.2   1551  ADP1551     0.3518
@<TRIPOS>BOND
     1    23    22    1
     2    20    19    1
     3    20    21    2
     4    22    21    1
     5    22    24    2
     6    19    18    1
     7    21    27    1
     8     7     5    2
     9    16    15    1
    10    24    25    1
    11    18    27    1
    12    18    17    1
    13    27    26    2
    14    15    17    1
    15    15    13    1
    16    25    26    1
    17     2     1    2
    18    17    12    1
    19     5     9    1
    20     5     6    1
    21     5     8    1
    22     9    10    1
    23    13    11    1
    24    13    14    1
    25    12    11    1
    26     1     4    1
    27     1     8    1
    28     1     3    1
    29    10    11    1
