@<TRIPOS>MOLECULE
1wei_ADE_A_1.pdb
 10 11 0 0 0
SMALL
GASTEIGER

@<TRIPOS>ATOM
      1  N9        14.8780    2.6360   19.1250 N.2   1428  ADE1428    -0.1914
      2  C8        14.3560    1.8470   18.1700 C.3   1428  ADE1428     0.2618
      3  N7        15.0610    0.7300   17.9400 N.2   1428  ADE1428    -0.2267
      4  C5        16.1080    0.8280   18.8190 C.2   1428  ADE1428     0.2303
      5  C6        17.2250   -0.0050   19.1040 C.2   1428  ADE1428     0.4393
      6  N6        17.4230   -1.1510   18.4600 N.pl3 1428  ADE1428     0.2185
      7  N1        18.1060    0.4230   20.0850 N.2   1428  ADE1428    -0.0265
      8  C2        17.8880    1.5950   20.7320 C.3   1428  ADE1428     0.4008
      9  N3        16.8590    2.4590   20.5360 N.2   1428  ADE1428    -0.1640
     10  C4        16.0080    2.0010   19.5590 C.1   1428  ADE1428     0.0579
@<TRIPOS>BOND
     1     3     2    1
     2     3     4    2
     3     2     1    1
     4     6     5    1
     5     4     5    1
     6     4    10    1
     7     5     7    2
     8     1    10    2
     9    10     9    2
    10     7     8    1
    11     9     8    1
