@<TRIPOS>MOLECULE
1wej_HEM_F_1.pdb
 42 46 0 0 0
SMALL
GASTEIGER

@<TRIPOS>ATOM
      1  CHA       16.1390   12.3190   46.7960 C.2   105  HEM105      0.0981
      2  CHB       11.9400   14.3760   45.4750 C.2   105  HEM105      0.0981
      3  CHC       10.7700   14.9440   50.1200 C.2   105  HEM105      0.1301
      4  CHD       15.2620   13.6980   51.3630 C.2   105  HEM105      0.1301
      5  NA        13.9570   13.4270   46.5340 N.2   105  HEM105     -0.3338
      6  C1A       15.0450   12.7190   46.0310 C.1   105  HEM105      0.0112
      7  C2A       14.8580   12.4330   44.5950 C.2   105  HEM105      0.0404
      8  C3A       13.7120   13.0900   44.2210 C.2   105  HEM105      0.0402
      9  C4A       13.1660   13.6900   45.4320 C.1   105  HEM105      0.0112
     10  CMA       13.1620   13.3130   42.8170 C.3   105  HEM105      0.0418
     11  CAA       15.8470   11.7480   43.6760 C.3   105  HEM105      0.0482
     12  CBA       16.8240   12.8450   43.2190 C.3   105  HEM105      0.1194
     13  CGA       17.9490   12.3190   42.3540 C.2   105  HEM105      0.3652
     14  O1A       18.8020   13.1250   41.9510 O.co2 105  HEM105     -0.2456
     15  O2A       17.9980   11.1020   42.0860 O.co2 105  HEM105     -0.2456
     16  NB        11.7130   14.5050   47.9350 N.2   105  HEM105     -0.3673
     17  C1B       11.2600   14.7480   46.6290 C.2   105  HEM105      0.1469
     18  C2B        9.9770   15.3670   46.6070 C.2   105  HEM105      0.0141
     19  C3B        9.5840   15.5020   47.9210 C.2   105  HEM105      0.0333
     20  C4B       10.6890   14.9630   48.7330 C.1   105  HEM105      0.0084
     21  CMB        9.2920   15.8160   45.3100 C.3   105  HEM105      0.0341
     22  CAB        8.2050   16.0030   48.4140 C.3   105  HEM105      0.0358
     23  CBB        6.9970   15.2210   48.0930 C.3   105  HEM105      0.0057
     24  NC        13.1230   14.1810   50.3920 N.2   105  HEM105     -0.3327
     25  C1C       11.8960   14.5900   50.9100 C.1   105  HEM105      0.0183
     26  C2C       12.0030   14.8760   52.3330 C.2   105  HEM105      0.0407
     27  C3C       13.3350   14.6740   52.6680 C.2   105  HEM105      0.0404
     28  C4C       13.9790   14.1850   51.4540 C.1   105  HEM105      0.0183
     29  CMC       10.8320   15.3690   53.2220 C.3   105  HEM105      0.0418
     30  CAC       14.0030   15.0190   54.0220 C.3   105  HEM105      0.0364
     31  CBC       13.4620   14.4280   55.2470 C.3   105  HEM105      0.0058
     32  ND        15.3120   13.1490   48.9820 N.2   105  HEM105     -0.3673
     33  C1D       15.8910   13.2010   50.2280 C.1   105  HEM105      0.0084
     34  C2D       17.2230   12.5940   50.2320 C.2   105  HEM105      0.0336
     35  C3D       17.4340   12.1500   48.9660 C.2   105  HEM105      0.0143
     36  C4D       16.2650   12.5010   48.1820 C.2   105  HEM105      0.1469
     37  CMD       18.1010   12.4510   51.4880 C.3   105  HEM105      0.0412
     38  CAD       18.5820   11.2920   48.4940 C.3   105  HEM105      0.0411
     39  CBD       18.2450    9.8810   48.9120 C.3   105  HEM105      0.1188
     40  CGD       19.4030    8.9180   48.7500 C.2   105  HEM105      0.3652
     41  O1D       20.5370    9.3520   48.4900 O.co2 105  HEM105     -0.2456
     42  O2D       19.1840    7.7070   48.9070 O.co2 105  HEM105     -0.2456
@<TRIPOS>BOND
     1    14    13   ar
     2    15    13   ar
     3    13    12    1
     4    10     8    1
     5    12    11    1
     6    11     7    1
     7     8     7    2
     8     8     9    1
     9     7     6    1
    10    21    18    1
    11     9     2    2
    12     9     5    2
    13     2    17    1
    14     6     5    2
    15     6     1    2
    16    18    17    1
    17    18    19    2
    18    17    16    2
    19     1    36    1
    20    19    22    1
    21    19    20    1
    22    16    20    2
    23    23    22    1
    24    36    35    1
    25    36    32    2
    26    41    40   ar
    27    38    39    1
    28    38    35    1
    29    20     3    2
    30    40    42   ar
    31    40    39    1
    32    35    34    2
    33    32    33    2
    34     3    25    1
    35    33    34    1
    36    33     4    2
    37    34    37    1
    38    24    25    2
    39    24    28    2
    40    25    26    2
    41     4    28    1
    42    28    27    2
    43    26    27    1
    44    26    29    1
    45    27    30    1
    46    30    31    1
