@<TRIPOS>MOLECULE
1wet_GUN_A_1.pdb
 11 12 0 0 0
SMALL
GASTEIGER

@<TRIPOS>ATOM
      1  N9        58.5790    5.9670  -10.3080 N.2   599  GUN599     -0.1802
      2  C8        58.0680    6.6860  -11.3540 C.3   599  GUN599      0.2633
      3  N7        57.2390    5.9930  -12.1090 N.2   599  GUN599     -0.2212
      4  C5        57.2310    4.7400  -11.5240 C.2   599  GUN599      0.2482
      5  C6        56.5180    3.5720  -11.8910 C.1   599  GUN599      0.2442
      6  O6        55.7540    3.3850  -12.8660 O.2   599  GUN599     -0.2063
      7  N1        56.7900    2.5310  -11.0130 N.2   599  GUN599     -0.2474
      8  C2        57.6380    2.5820   -9.9420 C.1   599  GUN599      0.2608
      9  N2        57.7340    1.4790   -9.1900 N.pl3 599  GUN599     -0.0220
     10  N3        58.3020    3.6700   -9.5850 N.2   599  GUN599     -0.2682
     11  C4        58.0490    4.7090  -10.4140 C.1   599  GUN599      0.1289
@<TRIPOS>BOND
     1     6     5    2
     2     3     4    2
     3     3     2    1
     4     5     4    1
     5     5     7    2
     6     4    11    1
     7     2     1    1
     8     7     8    2
     9    11     1    2
    10    11    10    2
    11     8    10    2
    12     8     9    1
