@<TRIPOS>MOLECULE
1wf3_GNP_A_1.pdb
 32 34 0 0 0
SMALL
GASTEIGER

@<TRIPOS>ATOM
      1  PG        57.5540   33.5940    0.0950 P.3   501  GNP501      0.4884
      2  O1G       57.3530   32.1290   -0.1330 O.2   501  GNP501     -0.2331
      3  O2G       59.0010   33.9640   -0.0090 O.3   501  GNP501     -0.1240
      4  O3G       56.9780   34.0260    1.3980 O.3   501  GNP501     -0.1240
      5  N3B       56.7890   34.4220   -1.1760 N.3   501  GNP501     -0.0163
      6  PB        56.7700   36.0660   -1.3100 P.3   501  GNP501      0.4669
      7  O1B       55.7270   36.7330   -0.5030 O.3   501  GNP501     -0.1253
      8  O2B       58.1340   36.6550   -1.1050 O.2   501  GNP501     -0.2351
      9  O3A       56.3450   36.2840   -2.8490 O.3   501  GNP501     -0.2360
     10  PA        57.2840   36.6190   -4.1060 P.3   501  GNP501      0.2220
     11  O1A       57.9100   37.9520   -4.0480 O.3   501  GNP501     -0.4370
     12  O2A       58.1970   35.4180   -4.2850 O.2   501  GNP501     -0.5170
     13  O5'       56.1140   36.6740   -5.1780 O.3   501  GNP501     -0.3111
     14  C5'       55.2710   35.5180   -5.4120 C.3   501  GNP501      0.1813
     15  C4'       54.6530   35.6150   -6.7830 C.3   501  GNP501      0.1799
     16  O4'       53.7860   36.8210   -6.8540 O.3   501  GNP501     -0.3326
     17  C3'       55.6570   35.7680   -7.9440 C.3   501  GNP501      0.2158
     18  O3'       55.1710   34.9850   -9.0740 O.3   501  GNP501     -0.2175
     19  C2'       55.6350   37.2330   -8.2450 C.3   501  GNP501      0.2310
     20  O2'       56.0610   37.5880   -9.5650 O.3   501  GNP501     -0.2158
     21  C1'       54.1680   37.6170   -7.9860 C.3   501  GNP501      0.2293
     22  N9        53.9410   39.0160   -7.6720 N.pl3 501  GNP501     -0.2354
     23  C8        54.5450   39.8090   -6.7070 C.3   501  GNP501      0.2246
     24  N7        54.1230   41.0490   -6.6650 N.2   501  GNP501     -0.2322
     25  C5        53.1620   41.0750   -7.6840 C.2   501  GNP501      0.2182
     26  C6        52.3350   42.1720   -8.1340 C.1   501  GNP501      0.2372
     27  O6        52.2800   43.3330   -7.7340 O.2   501  GNP501     -0.2069
     28  N1        51.4650   41.7820   -9.2160 N.2   501  GNP501     -0.2485
     29  C2        51.4100   40.5160   -9.7740 C.1   501  GNP501      0.2531
     30  N2        50.5270   40.3370  -10.7830 N.pl3 501  GNP501     -0.0226
     31  N3        52.1910   39.4920   -9.3470 N.2   501  GNP501     -0.3074
     32  C4        53.0410   39.8460   -8.3000 C.2   501  GNP501      0.2300
@<TRIPOS>BOND
     1    30    29    1
     2    29    31    2
     3    29    28    2
     4    20    19    1
     5    31    32    2
     6    28    26    2
     7    18    17    1
     8    32    25    1
     9    32    22    1
    10    19    21    1
    11    19    17    1
    12    26    27    2
    13    26    25    1
    14    21    22    1
    15    21    16    1
    16    17    15    1
    17    25    24    2
    18    22    23    1
    19    16    15    1
    20    15    14    1
    21    23    24    1
    22    14    13    1
    23    13    10    1
    24    12    10    2
    25    10    11    1
    26    10     9    1
    27     9     6    1
    28     6     5    1
    29     6     8    2
    30     6     7    1
    31     5     1    1
    32     2     1    2
    33     3     1    1
    34     1     4    1
