@<TRIPOS>MOLECULE
1wf4_ADP_a_1.pdb
 27 29 0 0 0
SMALL
GASTEIGER

@<TRIPOS>ATOM
      1  PB       121.8390   24.9440  115.5940 P.3   1551  ADP1551     0.5373
      2  O1B      122.8890   24.0220  116.0990 O.3   1551  ADP1551    -0.1143
      3  O2B      121.3030   24.4690  114.1580 O.2   1551  ADP1551    -0.2221
      4  O3B      120.6970   25.0320  116.5600 O.3   1551  ADP1551    -0.1143
      5  PA       123.8390   27.0800  115.6060 P.3   1551  ADP1551     0.2231
      6  O1A      123.6590   28.5300  115.6650 O.2   1551  ADP1551    -0.5169
      7  O2A      124.4180   26.6380  116.8640 O.3   1551  ADP1551    -0.4370
      8  O3A      122.4440   26.3760  115.3280 O.3   1551  ADP1551    -0.2261
      9  O5'      124.8290   26.6650  114.4240 O.3   1551  ADP1551    -0.3111
     10  C5'      124.4860   25.7800  113.3690 C.3   1551  ADP1551     0.1813
     11  C4'      125.6490   25.6570  112.3350 C.3   1551  ADP1551     0.1821
     12  O4'      126.6520   26.6960  112.3350 O.3   1551  ADP1551    -0.3135
     13  C3'      126.4470   24.3340  112.2760 C.3   1551  ADP1551     0.2184
     14  O3'      126.4100   23.7490  110.9600 O.3   1551  ADP1551    -0.2174
     15  C2'      127.8470   24.7290  112.7120 C.3   1551  ADP1551     0.2570
     16  O2'      128.8560   23.8060  112.2920 O.3   1551  ADP1551    -0.2130
     17  C1'      127.9130   26.0620  112.0980 C.3   1551  ADP1551     0.3186
     18  N9       129.0520   26.9290  112.5150 N.pl3 1551  ADP1551    -0.1439
     19  C8       129.3300   27.3770  113.7600 C.3   1551  ADP1551     0.3377
     20  N7       130.4460   28.1040  113.7240 N.2   1551  ADP1551    -0.2095
     21  C5       130.8790   28.1550  112.4740 C.2   1551  ADP1551     0.2526
     22  C6       132.0090   28.7110  111.8100 C.2   1551  ADP1551     0.4393
     23  N6       132.8900   29.4510  112.4680 N.pl3 1551  ADP1551     0.2180
     24  N1       132.1600   28.5430  110.4370 N.2   1551  ADP1551     0.0021
     25  C2       131.2860   27.7970  109.7000 C.3   1551  ADP1551     0.5254
     26  N3       130.2060   27.2330  110.3430 N.2   1551  ADP1551    -0.0055
     27  C4       130.0050   27.3570  111.7060 C.2   1551  ADP1551     0.3518
@<TRIPOS>BOND
     1    25    26    1
     2    25    24    1
     3    26    27    2
     4    24    22    2
     5    14    13    1
     6    27    21    1
     7    27    18    1
     8    22    23    1
     9    22    21    1
    10    17    12    1
    11    17    18    1
    12    17    15    1
    13    13    11    1
    14    13    15    1
    15    16    15    1
    16    11    12    1
    17    11    10    1
    18    21    20    2
    19    18    19    1
    20    10     9    1
    21    20    19    1
    22     3     1    2
    23     9     5    1
    24     8     1    1
    25     8     5    1
    26     1     2    1
    27     1     4    1
    28     5     6    2
    29     5     7    1
