@<TRIPOS>MOLECULE
1wg8_SAM_A_1.pdb
 27 29 0 0 0
SMALL
GASTEIGER

@<TRIPOS>ATOM
      1  N         50.4640   80.3730   11.0760 N.3   3142  SAM3142    -0.1208
      2  CA        49.7000   81.4860   10.4290 C.3   3142  SAM3142     0.1952
      3  C         48.4730   81.8410   11.2580 C.2   3142  SAM3142     0.3819
      4  O         48.2580   81.2030   12.2880 O.co2 3142  SAM3142    -0.2441
      5  OXT       47.7550   82.7850   10.7980 O.co2 3142  SAM3142    -0.2441
      6  CB        49.2510   81.0570    9.0280 C.3   3142  SAM3142     0.0414
      7  CG        50.4240   81.0930    8.1140 C.3   3142  SAM3142     0.0503
      8  SD        50.1700   80.6780    6.3640 S.3   3142  SAM3142    -0.1761
      9  CE        49.8720   78.8950    6.4400 C.3   3142  SAM3142     0.0590
     10  C5'       51.8240   80.8520    5.7700 C.3   3142  SAM3142     0.0806
     11  C4'       52.3190   82.2860    5.5510 C.3   3142  SAM3142     0.1622
     12  O4'       53.6970   82.1570    5.1900 O.3   3142  SAM3142    -0.3153
     13  C3'       51.6870   82.9060    4.3010 C.3   3142  SAM3142     0.2168
     14  O3'       51.0760   84.1080    4.8410 O.3   3142  SAM3142    -0.2175
     15  C2'       52.8310   83.3560    3.3770 C.3   3142  SAM3142     0.2569
     16  O2'       52.7870   84.5750    2.6550 O.3   3142  SAM3142    -0.2130
     17  C1'       54.0730   83.1260    4.2680 C.3   3142  SAM3142     0.3185
     18  N9        55.2690   82.6390    3.6010 N.pl3 3142  SAM3142    -0.1439
     19  C8        55.4440   81.5020    2.8440 C.3   3142  SAM3142     0.3377
     20  N7        56.6660   81.3400    2.3950 N.2   3142  SAM3142    -0.2095
     21  C5        57.3560   82.4480    2.8910 C.2   3142  SAM3142     0.2526
     22  C6        58.7210   82.8750    2.7750 C.2   3142  SAM3142     0.4393
     23  N6        59.6270   82.1720    2.0820 N.pl3 3142  SAM3142     0.2180
     24  N1        59.1250   84.0350    3.3960 N.2   3142  SAM3142     0.0021
     25  C2        58.1860   84.7510    4.1040 C.3   3142  SAM3142     0.5254
     26  N3        56.8680   84.4490    4.2760 N.2   3142  SAM3142    -0.0055
     27  C4        56.5090   83.2690    3.6370 C.2   3142  SAM3142     0.3518
@<TRIPOS>BOND
     1    23    22    1
     2    20    19    1
     3    20    21    2
     4    16    15    1
     5    22    21    1
     6    22    24    2
     7    19    18    1
     8    21    27    1
     9    15    17    1
    10    15    13    1
    11    24    25    1
    12    18    27    1
    13    18    17    1
    14    27    26    2
    15    25    26    1
    16    17    12    1
    17    13    14    1
    18    13    11    1
    19    12    11    1
    20    11    10    1
    21    10     8    1
    22     8     9    1
    23     8     7    1
    24     7     6    1
    25     6     2    1
    26     2     1    1
    27     2     3    1
    28     5     3   ar
    29     3     4   ar
