@<TRIPOS>MOLECULE
1wgc_SIA_A_1.pdb
 21 21 0 0 0
SMALL
GASTEIGER

@<TRIPOS>ATOM
      1  C1        19.7800    8.7840   -5.0110 C.2   301  SIA301      0.4179
      2  C2        18.8290    8.4820   -6.1750 C.3   301  SIA301      0.3155
      3  C3        17.6470    7.6210   -5.7150 C.3   301  SIA301      0.1056
      4  C4        16.5010    8.4080   -5.1080 C.3   301  SIA301      0.1798
      5  C5        16.1070    9.5190   -6.0500 C.3   301  SIA301      0.1554
      6  C6        17.2800   10.3500   -6.5610 C.3   301  SIA301      0.1734
      7  C7        16.9130   11.2600   -7.7140 C.3   301  SIA301      0.2135
      8  C8        17.7930   12.4590   -7.8100 C.3   301  SIA301      0.2173
      9  C9        17.4650   13.5590   -8.7690 C.3   301  SIA301      0.2175
     10  C10       14.0910   10.8900   -5.8930 C.2   301  SIA301      0.2420
     11  C11       13.4380   11.9210   -5.0390 C.3   301  SIA301      0.0964
     12  N5        15.2340   10.4570   -5.3410 N.am  301  SIA301     -0.2020
     13  O1A       20.1520   10.0360   -4.9530 O.co2 301  SIA301     -0.2401
     14  O1B       20.1230    7.9780   -4.1870 O.co2 301  SIA301     -0.2401
     15  O2        19.5710    7.6630   -7.0680 O.3   301  SIA301     -0.1830
     16  O4        15.3710    7.5160   -4.9670 O.3   301  SIA301     -0.2210
     17  O6        18.4060    9.6090   -6.9440 O.3   301  SIA301     -0.3220
     18  O7        16.7460   10.5460   -8.9480 O.3   301  SIA301     -0.2176
     19  O8        18.2330   12.9160   -6.5680 O.3   301  SIA301     -0.2175
     20  O9        18.7300   14.2520   -9.0610 O.3   301  SIA301     -0.2175
     21  O10       13.6690   10.4590   -6.9720 O.2   301  SIA301     -0.2733
@<TRIPOS>BOND
     1    20     9    1
     2    18     7    1
     3     9     8    1
     4     8     7    1
     5     8    19    1
     6     7     6    1
     7    15     2    1
     8    21    10    2
     9    17     6    1
    10    17     2    1
    11     6     5    1
    12     2     3    1
    13     2     1    1
    14     5    12    1
    15     5     4    1
    16    10    12   am
    17    10    11    1
    18     3     4    1
    19     4    16    1
    20     1    13   ar
    21     1    14   ar
