@<TRIPOS>MOLECULE
1wht_BZS_A_1.pdb
 15 15 0 0 0
SMALL
GASTEIGER

@<TRIPOS>ATOM
      1  C1        66.2650   32.3170   71.9920 C.2   430  BZS430      0.3654
      2  C2        65.8040   33.7440   72.3260 C.3   430  BZS430      0.1256
      3  CA        64.4170   33.8480   73.0340 C.3   430  BZS430      0.1189
      4  C         63.3680   33.0550   72.3240 C.2   430  BZS430      0.3652
      5  CB        63.8890   35.2680   73.1360 C.3   430  BZS430      0.0382
      6  CG        63.8640   35.9840   71.8330 C.ar  430  BZS430     -0.0216
      7  CD1       62.8890   35.7060   70.8730 C.ar  430  BZS430     -0.0043
      8  CD2       64.8570   36.9340   71.5690 C.ar  430  BZS430     -0.0043
      9  CE1       62.9350   36.4120   69.6660 C.ar  430  BZS430     -0.0003
     10  CE2       64.8970   37.6770   70.3890 C.ar  430  BZS430     -0.0003
     11  CZ        63.9190   37.3880   69.4310 C.ar  430  BZS430     -0.0000
     12  O1        66.1820   31.3660   72.8620 O.co2 430  BZS430     -0.2456
     13  O2        66.7490   32.1670   70.8690 O.co2 430  BZS430     -0.2456
     14  O3        62.3620   32.8050   72.9780 O.co2 430  BZS430     -0.2456
     15  O4        63.5310   32.7750   71.1280 O.co2 430  BZS430     -0.2456
@<TRIPOS>BOND
     1    11     9   ar
     2    11    10   ar
     3     9     7   ar
     4    10     8   ar
     5    13     1   ar
     6     7     6   ar
     7    15     4   ar
     8     8     6   ar
     9     6     5    1
    10     1     2    1
    11     1    12   ar
    12     4    14   ar
    13     4     3    1
    14     2     3    1
    15     3     5    1
