@<TRIPOS>MOLECULE
1wk9_TSB_A_1.pdb
 30 32 0 0 0
SMALL
GASTEIGER

@<TRIPOS>ATOM
      1  CG2       53.6700  170.6660   52.7570 C.3   999  TSB999      0.0376
      2  N         54.2980  174.3700   52.1890 N.3   999  TSB999     -0.1203
      3  CA        53.5940  173.1810   52.6900 C.3   999  TSB999      0.2010
      4  CB        54.5030  171.9490   52.6960 C.3   999  TSB999      0.1784
      5  OG1       55.3100  171.9410   51.5150 O.3   999  TSB999     -0.2211
      6  C         53.0770  173.4740   54.1000 C.2   999  TSB999      0.2824
      7  O         53.2230  174.5880   54.5990 O.2   999  TSB999     -0.2700
      8  N8        52.7140  172.4050   54.8020 N.am  999  TSB999     -0.0576
      9  S1        52.0630  172.5630   56.2900 S.3   999  TSB999      0.0852
     10  O1S       53.0140  172.5990   57.4480 O.3   999  TSB999     -0.0508
     11  O2S       50.7620  171.8200   56.3910 O.3   999  TSB999     -0.0508
     12  O5'       51.6060  173.9960   56.3150 O.3   999  TSB999     -0.2230
     13  C5'       50.2070  174.2720   56.4700 C.3   999  TSB999      0.2064
     14  C4'       49.6680  175.4310   55.6230 C.3   999  TSB999      0.1842
     15  O4'       50.1550  176.6920   56.1210 O.3   999  TSB999     -0.3135
     16  C3'       50.1110  175.3400   54.1600 C.3   999  TSB999      0.2185
     17  O3'       49.1380  175.9490   53.3060 O.3   999  TSB999     -0.2174
     18  C2'       51.3720  176.1990   54.2050 C.3   999  TSB999      0.2570
     19  O2'       51.7070  176.6200   52.8790 O.3   999  TSB999     -0.2130
     20  C1'       50.8320  177.3610   55.0420 C.3   999  TSB999      0.3186
     21  N9        51.9350  178.1730   55.6020 N.pl3 999  TSB999     -0.1439
     22  C8        52.8170  177.7390   56.5000 C.3   999  TSB999      0.3377
     23  N7        53.7150  178.6900   56.7440 N.2   999  TSB999     -0.2095
     24  C5        53.3990  179.7430   55.9960 C.2   999  TSB999      0.2526
     25  C6        53.9930  180.9850   55.8130 C.2   999  TSB999      0.4393
     26  N6        55.0980  181.3060   56.4820 N.pl3 999  TSB999      0.2180
     27  N1        53.4140  181.8790   54.9030 N.2   999  TSB999      0.0021
     28  C2        52.2570  181.4950   54.2100 C.3   999  TSB999      0.5254
     29  N3        51.7240  180.3020   54.4110 N.2   999  TSB999     -0.0055
     30  C4        52.2580  179.4220   55.2720 C.2   999  TSB999      0.3518
@<TRIPOS>BOND
     1     5     4    1
     2     2     3    1
     3     3     4    1
     4     3     6    1
     5     4     1    1
     6    19    18    1
     7    17    16    1
     8     6     7    2
     9     6     8   am
    10    16    18    1
    11    16    14    1
    12    18    20    1
    13    28    29    1
    14    28    27    1
    15    29    30    2
    16     8     9    1
    17    27    25    2
    18    20    21    1
    19    20    15    1
    20    30    21    1
    21    30    24    1
    22    21    22    1
    23    14    15    1
    24    14    13    1
    25    25    24    1
    26    25    26    1
    27    24    23    2
    28     9    12    1
    29     9    11    1
    30     9    10    1
    31    12    13    1
    32    22    23    1
