@<TRIPOS>MOLECULE
1wkg_POI_A_1.pdb
 27 27 0 0 0
SMALL
GASTEIGER

@<TRIPOS>ATOM
      1  CM        39.1080    6.6030   55.2790 C.3   1513  POI1513     0.0964
      2  CT        37.6670    6.4230   55.7580 C.2   1513  POI1513     0.2426
      3  OT        36.7280    7.0160   55.2290 O.2   1513  POI1513    -0.2733
      4  N         37.4570    5.5870   56.8210 N.am  1513  POI1513    -0.1910
      5  CA        36.2810    5.8140   57.8010 C.3   1513  POI1513     0.2194
      6  C         36.4170    7.1660   58.5510 C.2   1513  POI1513     0.3884
      7  OA        37.5500    7.6680   58.7390 O.co2 1513  POI1513    -0.2434
      8  OB        35.3690    7.7630   58.9400 O.co2 1513  POI1513    -0.2434
      9  CB        36.2240    4.6430   58.7600 C.2   1513  POI1513     0.0039
     10  CG        35.7600    3.3210   58.2550 C.2   1513  POI1513    -0.0024
     11  CD        35.6510    2.0770   59.1080 C.3   1513  POI1513     0.1514
     12  N4        34.9120    2.0940   60.2480 N.2   1513  POI1513    -0.2640
     13  C4A       33.5830    1.8590   60.2790 C.2   1513  POI1513     0.0965
     14  C4        32.8310    1.5540   61.3970 C.ar  1513  POI1513     0.0587
     15  C3        33.2440    0.5170   62.3210 C.ar  1513  POI1513     0.2103
     16  O3        34.3910   -0.2200   62.1500 O.3   1513  POI1513    -0.2853
     17  C2        32.4400    0.2140   63.4900 C.ar  1513  POI1513     0.0981
     18  C2A       32.8420   -0.8860   64.4950 C.3   1513  POI1513     0.0555
     19  N1        31.2570    0.9470   63.7080 N.ar  1513  POI1513    -0.2452
     20  C6        30.8250    1.9700   62.8230 C.ar  1513  POI1513     0.0968
     21  C5        31.5710    2.2910   61.6850 C.ar  1513  POI1513     0.0316
     22  C5A       30.9830    3.4430   60.7890 C.3   1513  POI1513     0.1819
     23  P         30.2880    3.5080   58.1770 P.3   1513  POI1513     0.5329
     24  OP1       29.4440    4.7180   58.2910 O.3   1513  POI1513    -0.1145
     25  OP2       31.7140    3.7850   57.7070 O.3   1513  POI1513    -0.1145
     26  OP3       29.6340    2.4590   57.2820 O.2   1513  POI1513    -0.2224
     27  OP4       30.3910    2.7580   59.6530 O.3   1513  POI1513    -0.2653
@<TRIPOS>BOND
     1     3     2    2
     2     1     2    1
     3     2     4   am
     4     4     5    1
     5    26    23    2
     6    25    23    1
     7     5     6    1
     8     5     9    1
     9    23    24    1
    10    23    27    1
    11    10     9    2
    12    10    11    1
    13     6     7   ar
    14     6     8   ar
    15    11    12    1
    16    27    22    1
    17    12    13    2
    18    13    14    1
    19    22    21    1
    20    14    21   ar
    21    14    15   ar
    22    21    20   ar
    23    16    15    1
    24    15    17   ar
    25    20    19   ar
    26    17    19   ar
    27    17    18    1
