@<TRIPOS>MOLECULE
1wkh_PPE_A_1.pdb
 25 25 0 0 0
SMALL
GASTEIGER

@<TRIPOS>ATOM
      1  N1        31.2480    0.8350   63.5720 N.ar  513  PPE513     -0.2452
      2  C2        32.5050    0.2530   63.3820 C.ar  513  PPE513      0.0978
      3  C2A       32.7580   -0.7620   64.4880 C.3   513  PPE513      0.0555
      4  C3        33.3040    0.6950   62.2250 C.ar  513  PPE513      0.2062
      5  O3        34.5050    0.0440   62.1680 O.3   513  PPE513     -0.2856
      6  C4        32.8460    1.6850   61.2940 C.ar  513  PPE513      0.0353
      7  C4A       33.6770    2.1450   60.0770 C.3   513  PPE513      0.1186
      8  C5        31.5200    2.1870   61.6340 C.ar  513  PPE513      0.0275
      9  C6        30.7400    1.7890   62.7260 C.ar  513  PPE513      0.0965
     10  C5A       30.7960    3.2460   60.7960 C.3   513  PPE513      0.1816
     11  OP4       30.1030    2.7760   59.6920 O.3   513  PPE513     -0.2653
     12  P         30.1550    3.4050   58.2080 P.3   513  PPE513      0.5329
     13  OP1       29.6020    2.4970   57.2380 O.2   513  PPE513     -0.2224
     14  OP2       31.5960    3.8650   58.0330 O.3   513  PPE513     -0.1145
     15  OP3       29.2080    4.5680   58.2830 O.3   513  PPE513     -0.1145
     16  NA        35.1380    1.8320   60.4450 N.3   513  PPE513     -0.2034
     17  CAA       36.0360    1.6580   59.2220 C.3   513  PPE513      0.1766
     18  CBA       36.0620    2.9170   58.3290 C.3   513  PPE513      0.0407
     19  CGA       36.2000    4.2510   59.0660 C.3   513  PPE513      0.1161
     20  CDA       36.8010    5.2880   58.1490 C.2   513  PPE513      0.3649
     21  OE1       36.0720    5.6760   57.2420 O.co2 513  PPE513     -0.2457
     22  OE2       37.9830    5.6090   58.4570 O.co2 513  PPE513     -0.2457
     23  CA        37.4740    1.3150   59.6640 C.2   513  PPE513      0.3803
     24  OA        37.6080    1.4580   61.0290 O.co2 513  PPE513     -0.2441
     25  OXT       38.4530    0.9230   58.8350 O.co2 513  PPE513     -0.2441
@<TRIPOS>BOND
     1    13    12    2
     2    21    20   ar
     3    14    12    1
     4    20    22   ar
     5    20    19    1
     6    12    15    1
     7    12    11    1
     8    18    19    1
     9    18    17    1
    10    25    23   ar
    11    17    23    1
    12    17    16    1
    13    23    24   ar
    14    11    10    1
    15     7    16    1
    16     7     6    1
    17    10     8    1
    18     6     8   ar
    19     6     4   ar
    20     8     9   ar
    21     5     4    1
    22     4     2   ar
    23     9     1   ar
    24     2     1   ar
    25     2     3    1
