@<TRIPOS>MOLECULE
1wkk_GDP_A_1.pdb
 28 30 0 0 0
SMALL
GASTEIGER

@<TRIPOS>ATOM
      1  PB        17.7290   62.9450   34.9700 P.3   1001  GDP1001     0.5373
      2  O1B       17.4130   62.5450   36.3690 O.3   1001  GDP1001    -0.1143
      3  O2B       17.9300   64.4430   34.7990 O.3   1001  GDP1001    -0.1143
      4  O3B       16.7120   62.3790   33.9460 O.2   1001  GDP1001    -0.2221
      5  O3A       19.1960   62.2410   34.6050 O.3   1001  GDP1001    -0.2261
      6  PA        19.6050   61.4170   33.3330 P.3   1001  GDP1001     0.2231
      7  O1A       18.7480   61.7650   32.1690 O.2   1001  GDP1001    -0.5169
      8  O2A       19.6580   59.9280   33.6720 O.3   1001  GDP1001    -0.4370
      9  O5'       21.1200   61.8780   33.0580 O.3   1001  GDP1001    -0.3111
     10  C5'       21.4130   63.2290   32.7110 C.3   1001  GDP1001     0.1813
     11  C4'       22.1610   63.8250   33.8600 C.3   1001  GDP1001     0.1799
     12  O4'       23.1480   64.7260   33.2720 O.3   1001  GDP1001    -0.3326
     13  C3'       21.2760   64.6400   34.8190 C.3   1001  GDP1001     0.2158
     14  O3'       21.8360   64.3760   36.1550 O.3   1001  GDP1001    -0.2175
     15  C2'       21.5120   66.0710   34.3970 C.3   1001  GDP1001     0.2310
     16  O2'       21.3020   66.9750   35.4520 O.3   1001  GDP1001    -0.2158
     17  C1'       22.9390   66.0200   33.7770 C.3   1001  GDP1001     0.2293
     18  N9        23.0630   67.0500   32.5980 N.pl3 1001  GDP1001    -0.2354
     19  C8        23.0100   66.7560   31.2580 C.3   1001  GDP1001     0.2246
     20  N7        23.1490   67.8760   30.5290 N.2   1001  GDP1001    -0.2322
     21  C5        23.2940   68.9070   31.4610 C.2   1001  GDP1001     0.2182
     22  C6        23.4740   70.3020   31.2660 C.1   1001  GDP1001     0.2372
     23  O6        23.5370   70.8860   30.1670 O.2   1001  GDP1001    -0.2069
     24  N1        23.5810   71.0300   32.4730 N.2   1001  GDP1001    -0.2485
     25  C2        23.5160   70.4250   33.7300 C.1   1001  GDP1001     0.2531
     26  N2        23.6280   71.2110   34.8100 N.pl3 1001  GDP1001    -0.0226
     27  N3        23.3440   69.0950   33.9100 N.2   1001  GDP1001    -0.3074
     28  C4        23.2430   68.4100   32.7380 C.2   1001  GDP1001     0.2300
@<TRIPOS>BOND
     1    23    22    2
     2    20    19    1
     3    20    21    2
     4    19    18    1
     5    22    21    1
     6    22    24    2
     7    21    28    1
     8     7     6    2
     9    24    25    2
    10    18    28    1
    11    18    17    1
    12    10     9    1
    13    10    11    1
    14    28    27    2
    15     9     6    1
    16    12    17    1
    17    12    11    1
    18     6     8    1
    19     6     5    1
    20    25    27    2
    21    25    26    1
    22    17    15    1
    23    11    13    1
    24     4     1    2
    25    15    13    1
    26    15    16    1
    27     5     1    1
    28     3     1    1
    29    13    14    1
    30     1     2    1
