@<TRIPOS>MOLECULE
1wkl_ADP_A_1.pdb
 27 29 0 0 0
SMALL
GASTEIGER

@<TRIPOS>ATOM
      1  PB        17.2070   63.4050   35.8220 P.3   646  ADP646      0.5373
      2  O1B       15.9280   62.7970   36.2500 O.3   646  ADP646     -0.1143
      3  O2B       17.3190   64.8660   36.1330 O.2   646  ADP646     -0.2221
      4  O3B       18.4330   62.5850   36.3320 O.3   646  ADP646     -0.1143
      5  PA        17.5040   62.0480   33.2980 P.3   646  ADP646      0.2231
      6  O1A       17.4140   60.7570   34.0760 O.3   646  ADP646     -0.4370
      7  O2A       16.6360   62.1040   32.0610 O.2   646  ADP646     -0.5169
      8  O3A       17.1720   63.2690   34.2420 O.3   646  ADP646     -0.2261
      9  O5'       19.0780   62.1670   33.0380 O.3   646  ADP646     -0.3111
     10  C5'       19.7930   63.4490   33.0670 C.3   646  ADP646      0.1813
     11  C4'       20.9890   63.4530   34.0400 C.3   646  ADP646      0.1821
     12  O4'       22.1050   64.2410   33.5370 O.3   646  ADP646     -0.3135
     13  C3'       20.7850   64.0340   35.4540 C.3   646  ADP646      0.2184
     14  O3'       21.6550   63.3120   36.3470 O.3   646  ADP646     -0.2174
     15  C2'       21.1180   65.5090   35.2590 C.3   646  ADP646      0.2570
     16  O2'       21.4990   66.2170   36.4500 O.3   646  ADP646     -0.2130
     17  C1'       22.2690   65.4660   34.2650 C.3   646  ADP646      0.3186
     18  N9        22.2820   66.6920   33.3860 N.pl3 646  ADP646     -0.1439
     19  C8        21.6800   66.8840   32.1850 C.3   646  ADP646      0.3377
     20  N7        21.9050   68.1170   31.6800 N.2   646  ADP646     -0.2095
     21  C5        22.6890   68.7170   32.6150 C.2   646  ADP646      0.2526
     22  C6        23.2700   70.0480   32.6690 C.2   646  ADP646      0.4393
     23  N6        23.1440   70.9650   31.7770 N.pl3 646  ADP646      0.2180
     24  N1        24.0250   70.2900   33.8140 N.2   646  ADP646      0.0021
     25  C2        24.2110   69.3500   34.8250 C.3   646  ADP646      0.5254
     26  N3        23.6780   68.1230   34.7870 N.2   646  ADP646     -0.0055
     27  C4        22.9350   67.8550   33.6800 C.2   646  ADP646      0.3518
@<TRIPOS>BOND
     1    20    19    1
     2    20    21    2
     3    23    22    1
     4     7     5    2
     5    19    18    1
     6    21    22    1
     7    21    27    1
     8    22    24    2
     9     9    10    1
    10     9     5    1
    11    10    11    1
    12     5     6    1
    13     5     8    1
    14    18    27    1
    15    18    17    1
    16    12    11    1
    17    12    17    1
    18    27    26    2
    19    24    25    1
    20    11    13    1
    21     8     1    1
    22    17    15    1
    23    26    25    1
    24    15    13    1
    25    15    16    1
    26    13    14    1
    27     1     3    2
    28     1     2    1
    29     1     4    1
