@<TRIPOS>MOLECULE
1wkl_ATP_B_1.pdb
 31 33 0 0 0
SMALL
GASTEIGER

@<TRIPOS>ATOM
      1  PG         7.5800   52.3680   73.0810 P.3   856  ATP856      0.5373
      2  O1G        6.0890   52.3410   73.0040 O.3   856  ATP856     -0.1143
      3  O2G        8.2150   51.1060   72.4620 O.3   856  ATP856     -0.1143
      4  O3G        8.0760   53.6130   72.3530 O.2   856  ATP856     -0.2221
      5  PB         7.3420   53.4900   75.6760 P.3   856  ATP856      0.2277
      6  O1B        5.9080   53.5000   75.3590 O.2   856  ATP856     -0.5168
      7  O2B        7.9790   54.8660   75.7360 O.3   856  ATP856     -0.4368
      8  O3B        8.0420   52.5420   74.6250 O.3   856  ATP856     -0.2258
      9  PA         7.0430   51.2530   77.4920 P.3   856  ATP856      0.2189
     10  O1A        8.1650   50.6110   78.2130 O.2   856  ATP856     -0.5170
     11  O2A        5.7940   51.3540   78.3530 O.3   856  ATP856     -0.4371
     12  O3A        7.5330   52.6990   77.0540 O.3   856  ATP856     -0.2700
     13  O5'        6.7740   50.4930   76.1030 O.3   856  ATP856     -0.3112
     14  C5'        5.4400   50.2420   75.6980 C.3   856  ATP856      0.1813
     15  C4'        5.3740   49.0290   74.7650 C.3   856  ATP856      0.1821
     16  O4'        4.3410   48.1770   75.2230 O.3   856  ATP856     -0.3135
     17  C3'        5.0300   49.4470   73.3610 C.3   856  ATP856      0.2184
     18  O3'        5.8230   48.6570   72.4740 O.3   856  ATP856     -0.2174
     19  C2'        3.5130   49.2050   73.2870 C.3   856  ATP856      0.2570
     20  O2'        2.9130   49.0150   72.0470 O.3   856  ATP856     -0.2130
     21  C1'        3.3430   48.0200   74.2030 C.3   856  ATP856      0.3186
     22  N9         2.0610   47.8830   74.9770 N.pl3 856  ATP856     -0.1439
     23  C8         1.8550   48.3230   76.2740 C.3   856  ATP856      0.3377
     24  N7         0.6130   48.0270   76.5980 N.2   856  ATP856     -0.2095
     25  C5        -0.0310   47.4060   75.5790 C.2   856  ATP856      0.2526
     26  C6        -1.3090   46.8760   75.3240 C.2   856  ATP856      0.4393
     27  N6        -2.3300   46.8810   76.1540 N.pl3 856  ATP856      0.2180
     28  N1        -1.5800   46.2950   74.0940 N.2   856  ATP856      0.0021
     29  C2        -0.6260   46.2270   73.1050 C.3   856  ATP856      0.5254
     30  N3         0.6330   46.7440   73.3240 N.2   856  ATP856     -0.0055
     31  C4         0.9150   47.3200   74.5370 C.2   856  ATP856      0.3518
@<TRIPOS>BOND
     1    20    19    1
     2     4     1    2
     3     3     1    1
     4    18    17    1
     5     2     1    1
     6     1     8    1
     7    29    30    1
     8    29    28    1
     9    19    17    1
    10    19    21    1
    11    30    31    2
    12    17    15    1
    13    28    26    2
    14    21    22    1
    15    21    16    1
    16    31    22    1
    17    31    25    1
    18     8     5    1
    19    15    16    1
    20    15    14    1
    21    22    23    1
    22    26    25    1
    23    26    27    1
    24     6     5    2
    25    25    24    2
    26     5     7    1
    27     5    12    1
    28    14    13    1
    29    13     9    1
    30    23    24    1
    31    12     9    1
    32     9    10    2
    33     9    11    1
