@<TRIPOS>MOLECULE
1wkr_III_I_1.pdb
 48 47 0 0 0
SMALL
GASTEIGER

@<TRIPOS>ATOM
      1  CA        13.1010   -7.8660   17.1700 C.3   801  IVA801      0.0868
      2  CB        14.0100   -8.5470   18.1950 C.3   801  IVA801      0.0091
      3  CG1       14.2390   -7.6550   19.3570 C.3   801  IVA801      0.0005
      4  CG2       13.4110   -9.8730   18.5970 C.3   801  IVA801      0.0005
      5  C         13.5880   -6.5240   16.7260 C.2   801  IVA801      0.2418
      6  O         14.7840   -6.3810   16.3190 O.2   801  IVA801     -0.2733
      7  N         12.7090   -5.5480   16.6570 N.am  802  VAL802     -0.1978
      8  CA        13.0000   -4.2260   16.0190 C.3   802  VAL802      0.1726
      9  C         12.7070   -3.1270   17.0330 C.2   802  VAL802      0.2616
     10  O         11.9580   -3.3130   18.0110 O.2   802  VAL802     -0.2715
     11  CB        12.2000   -4.0620   14.7290 C.3   802  VAL802      0.0290
     12  CG1       12.5310   -5.1540   13.7200 C.3   802  VAL802      0.0023
     13  CG2       10.6890   -4.0000   14.9510 C.3   802  VAL802      0.0023
     14  N         13.2730   -1.9540   16.7590 N.am  803  VAL803     -0.1963
     15  CA        13.0630   -0.7360   17.5420 C.3   803  VAL803      0.1727
     16  C         12.9220    0.4030   16.5740 C.2   803  VAL803      0.2612
     17  O         13.9600    0.8660   15.9980 O.2   803  VAL803     -0.2715
     18  CB        14.2150   -0.4470   18.5590 C.3   803  VAL803      0.0290
     19  CG1       13.9060    0.8020   19.3480 C.3   803  VAL803      0.0023
     20  CG2       14.4450   -1.6520   19.4750 C.3   803  VAL803      0.0023
     21  N         11.6410    0.8320   16.3020 N.am  804  STA804     -0.2031
     22  CA        11.3580    1.7600   15.1840 C.3   804  STA804      0.1261
     23  CB        10.7130    1.0110   14.0310 C.3   804  STA804      0.0243
     24  CG        11.5090   -0.1930   13.4900 C.3   804  STA804      0.0018
     25  CD1       12.8260    0.2030   12.7920 C.3   804  STA804      0.0001
     26  CD2       10.6290   -0.9910   12.5520 C.3   804  STA804      0.0001
     27  CH        10.5050    2.8970   15.6730 C.3   804  STA804      0.1809
     28  OH         9.3080    2.3540   16.2930 O.3   804  STA804     -0.2208
     29  CM        11.1770    3.7990   16.7290 C.3   804  STA804      0.1214
     30  C         12.2700    4.6130   16.0490 C.2   804  STA804      0.2444
     31  O         13.4880    4.2590   16.0680 O.2   804  STA804     -0.2732
     32  N         11.8500    5.8470   15.7490 N.am  805  ALA805     -0.1977
     33  CA        12.8370    6.8450   15.2350 C.3   805  ALA805      0.1728
     34  C         13.4990    7.5440   16.4040 C.2   805  ALA805      0.2612
     35  O         13.1870    8.6560   16.7940 O.2   805  ALA805     -0.2715
     36  CB        12.1490    7.8330   14.3000 C.3   805  ALA805      0.0334
     37  N         14.5140    6.7340   17.0330 N.am  806  STA806     -0.2031
     38  CA        15.1600    7.0750   18.3110 C.3   806  STA806      0.1262
     39  CB        14.7810    5.9890   19.3470 C.3   806  STA806      0.0243
     40  CG        13.2600    5.9980   19.7040 C.3   806  STA806      0.0018
     41  CD1       13.0330    6.9970   20.7700 C.3   806  STA806      0.0001
     42  CD2       12.8650    4.5990   20.1200 C.3   806  STA806      0.0001
     43  CH        16.6700    7.0820   18.0530 C.3   806  STA806      0.1830
     44  OH        17.0780    5.8370   17.6330 O.3   806  STA806     -0.2207
     45  CM        17.0470    8.1330   16.9910 C.3   806  STA806      0.1486
     46  C         16.6770    9.5940   17.4060 C.2   806  STA806      0.3675
     47  O         15.9720   10.4600   16.6070 O.co2 806  STA806     -0.2456
     48  OXT       17.0470    9.9490   18.5450 O.co2 806  STA806     -0.2456
@<TRIPOS>BOND
     1    26    24    1
     2    25    24    1
     3    24    23    1
     4    12    11    1
     5    23    22    1
     6    36    33    1
     7    11    13    1
     8    11     8    1
     9    22    27    1
    10    22    21    1
    11    33    32    1
    12    33    34    1
    13    27    28    1
    14    27    29    1
    15    32    30   am
    16    17    16    2
    17     8     7    1
    18     8     9    1
    19    30    31    2
    20    30    29    1
    21    21    16   am
    22     6     5    2
    23    34    35    2
    24    34    37   am
    25    16    15    1
    26    47    46   ar
    27     7     5   am
    28     5     1    1
    29    14     9   am
    30    14    15    1
    31    45    46    1
    32    45    43    1
    33     9    10    2
    34    37    38    1
    35     1     2    1
    36    46    48   ar
    37    15    18    1
    38    44    43    1
    39    43    38    1
    40     2     4    1
    41     2     3    1
    42    38    39    1
    43    18    19    1
    44    18    20    1
    45    39    40    1
    46    40    42    1
    47    40    41    1
