@<TRIPOS>MOLECULE
1wkv_PLP_A_1.pdb
 15 15 0 0 0
SMALL
GASTEIGER

@<TRIPOS>ATOM
      1  N1        37.0600    7.6790   -4.1830 N.ar  400  PLP400     -0.2452
      2  C2        36.5600    6.4310   -4.3120 C.ar  400  PLP400      0.0978
      3  C2A       35.8450    6.0160   -5.5640 C.3   400  PLP400      0.0555
      4  C3        36.7080    5.4520   -3.2130 C.ar  400  PLP400      0.2049
      5  O3        36.2130    4.2190   -3.3120 O.3   400  PLP400     -0.2857
      6  C4        37.4030    5.9170   -2.0070 C.ar  400  PLP400      0.0182
      7  C4A       37.5820    4.9890   -0.8440 C.3   400  PLP400      0.0342
      8  C5        37.9030    7.3220   -1.9920 C.ar  400  PLP400      0.0261
      9  C6        37.7040    8.1330   -3.0960 C.ar  400  PLP400      0.0965
     10  C5A       38.5970    7.8490   -0.7880 C.3   400  PLP400      0.1815
     11  O4P       39.6620    6.9830   -0.4500 O.3   400  PLP400     -0.2653
     12  P         40.0890    6.8910    1.2790 P.3   400  PLP400      0.5329
     13  O1P       41.6290    6.2950    1.1270 O.2   400  PLP400     -0.2224
     14  O2P       40.2170    8.4440    1.8940 O.3   400  PLP400     -0.1145
     15  O3P       38.6360    6.3610    1.8200 O.3   400  PLP400     -0.1145
@<TRIPOS>BOND
     1     3     2    1
     2     2     1   ar
     3     2     4   ar
     4     1     9   ar
     5     5     4    1
     6     4     6   ar
     7     9     8   ar
     8     6     8   ar
     9     6     7    1
    10     8    10    1
    11    10    11    1
    12    11    12    1
    13    13    12    2
    14    12    15    1
    15    12    14    1
