@<TRIPOS>MOLECULE
1wl4_COA_A_1.pdb
 48 50 0 0 0
SMALL
GASTEIGER

@<TRIPOS>ATOM
      1  N1A       14.6690   26.2050   13.3240 N.2   1001  COA1001     0.0021
      2  C2A       15.1320   26.2120   12.0270 C.3   1001  COA1001     0.5254
      3  N3A       14.9400   27.2750   11.1810 N.2   1001  COA1001    -0.0055
      4  C4A       14.2700   28.3580   11.6620 C.2   1001  COA1001     0.3518
      5  C5A       13.8220   28.4070   12.9740 C.2   1001  COA1001     0.2526
      6  C6A       13.9790   27.2870   13.8090 C.2   1001  COA1001     0.4393
      7  N6A       13.5870   27.2290   15.0970 N.pl3 1001  COA1001     0.2180
      8  N7A       13.1900   29.6040   13.1190 N.2   1001  COA1001    -0.2095
      9  C8A       13.3160   30.3190   11.9860 C.3   1001  COA1001     0.3377
     10  N9A       13.9670   29.5230   11.0610 N.pl3 1001  COA1001    -0.1439
     11  C1B       14.1320   29.7760    9.6250 C.3   1001  COA1001     0.3185
     12  C2B       12.8340   29.7550    8.8460 C.3   1001  COA1001     0.2543
     13  O2B       12.4640   28.4430    8.5430 O.3   1001  COA1001    -0.2131
     14  C3B       13.2430   30.5080    7.6370 C.3   1001  COA1001     0.1928
     15  O3B       13.9760   29.6050    6.8610 O.3   1001  COA1001    -0.2673
     16  P3B       13.8250   29.7070    5.2270 P.3   1001  COA1001     0.5327
     17  O7A       12.3170   29.6960    4.9110 O.3   1001  COA1001    -0.1145
     18  O8A       14.4840   31.0200    4.7540 O.3   1001  COA1001    -0.1145
     19  O9A       14.5930   28.5260    4.6110 O.2   1001  COA1001    -0.2224
     20  C4B       14.1940   31.5450    8.2270 C.3   1001  COA1001     0.1795
     21  O4B       14.5910   31.0840    9.5160 O.3   1001  COA1001    -0.3136
     22  C5B       13.4850   32.8630    8.4110 C.3   1001  COA1001     0.1812
     23  O5B       12.4220   32.6620    9.2930 O.3   1001  COA1001    -0.3112
     24  P1A       11.1870   33.6310    9.1680 P.3   1001  COA1001     0.2189
     25  O1A       10.2040   33.2300   10.3390 O.3   1001  COA1001    -0.4371
     26  O2A       10.6730   33.7130    7.7190 O.2   1001  COA1001    -0.5170
     27  O3A       11.9490   35.0330    9.4920 O.3   1001  COA1001    -0.2703
     28  P2A       11.6450   36.4520    8.7590 P.3   1001  COA1001     0.2188
     29  O4A       12.5560   36.6470    7.5460 O.2   1001  COA1001    -0.5170
     30  O5A       10.1090   36.5670    8.6990 O.3   1001  COA1001    -0.4371
     31  O6A       12.2670   37.3500    9.9350 O.3   1001  COA1001    -0.3138
     32  CBP       12.2740   38.5450   11.8700 C.3   1001  COA1001     0.0645
     33  CCP       11.6120   37.3380   11.1600 C.3   1001  COA1001     0.1519
     34  CDP       13.6660   38.1880   12.3440 C.3   1001  COA1001     0.0056
     35  CEP       12.3460   39.7600   10.9170 C.3   1001  COA1001     0.0056
     36  CAP       11.3760   38.8240   13.0880 C.3   1001  COA1001     0.2312
     37  OAP       11.0700   37.6110   13.7340 O.3   1001  COA1001    -0.2131
     38  C9P       11.9660   39.7740   14.0780 C.2   1001  COA1001     0.2719
     39  O9P       12.2280   41.0220   13.6880 O.2   1001  COA1001    -0.2706
     40  N8P       12.1450   39.4290   15.3460 N.am  1001  COA1001    -0.2028
     41  C7P       12.5590   40.3540   16.4010 C.3   1001  COA1001     0.1248
     42  C6P       11.4250   41.1540   16.9750 C.3   1001  COA1001     0.1102
     43  C5P       11.9420   42.1490   17.9990 C.2   1001  COA1001     0.2432
     44  O5P       13.0370   42.7560   17.8310 O.2   1001  COA1001    -0.2733
     45  N4P       11.1680   42.3110   19.0980 N.am  1001  COA1001    -0.2044
     46  C3P       11.5760   43.3150   20.0910 C.3   1001  COA1001     0.1276
     47  C2P       12.6400   42.6850   20.9540 C.3   1001  COA1001     0.0920
     48  S1P       13.5110   43.8930   21.9470 S.3   1001  COA1001    -0.0802
@<TRIPOS>BOND
     1    19    16    2
     2    18    16    1
     3    17    16    1
     4    16    15    1
     5    15    14    1
     6    29    28    2
     7    14    20    1
     8    14    12    1
     9    26    24    2
    10    20    22    1
    11    20    21    1
    12    22    23    1
    13    13    12    1
    14    30    28    1
    15    28    27    1
    16    28    31    1
    17    12    11    1
    18    24    23    1
    19    24    27    1
    20    24    25    1
    21    21    11    1
    22    11    10    1
    23    31    33    1
    24    35    32    1
    25    10     4    1
    26    10     9    1
    27    33    32    1
    28     3     4    2
    29     3     2    1
    30     4     5    1
    31    32    34    1
    32    32    36    1
    33     9     8    1
    34     2     1    1
    35     5     8    2
    36     5     6    1
    37    36    37    1
    38    36    38    1
    39     1     6    2
    40    39    38    2
    41     6     7    1
    42    38    40   am
    43    40    41    1
    44    41    42    1
    45    42    43    1
    46    44    43    2
    47    43    45   am
    48    45    46    1
    49    46    47    1
    50    47    48    1
