@<TRIPOS>MOLECULE
1wla_HEM_A_1.pdb
 43 50 0 0 0
SMALL
GASTEIGER

@<TRIPOS>ATOM
      1 FE         14.3940   29.4090    4.9600 Fe    154  HEM154      0.0000
      2  CHA       15.5880   32.6280    5.1740 C.2   154  HEM154      0.0000
      3  CHB       13.8110   29.4000    8.3390 C.2   154  HEM154      0.0000
      4  CHC       13.2720   26.2620    4.7450 C.2   154  HEM154      0.0000
      5  CHD       15.2970   29.3220    1.6350 C.2   154  HEM154      0.0000
      6  NA        14.6840   30.7300    6.4350 N.2   154  HEM154      0.0000
      7  C1A       15.0630   32.0600    6.2870 C.2   154  HEM154      0.0000
      8  C2A       14.9420   32.7020    7.5880 C.2   154  HEM154      0.0000
      9  C3A       14.4390   31.8220    8.4520 C.2   154  HEM154      0.0000
     10  C4A       14.2940   30.5550    7.7520 C.2   154  HEM154      0.0000
     11  CMA       14.0320   32.0460    9.9250 C.3   154  HEM154      0.0000
     12  CAA       15.2760   34.2030    7.8070 C.3   154  HEM154      0.0000
     13  CBA       14.0400   35.1220    8.0700 C.3   154  HEM154      0.0000
     14  CGA       13.1360   35.0940    6.7980 C.2   154  HEM154      0.0000
     15  O1A       13.7150   35.4580    5.7220 O.co2 154  HEM154      0.0000
     16  O2A       11.9300   34.7060    6.9700 O.co2 154  HEM154      0.0000
     17  NB        13.7290   28.0890    6.2780 N.ar  154  HEM154      0.0000
     18  C1B       13.4650   28.2660    7.6350 C.ar  154  HEM154      0.0000
     19  C2B       12.8050   27.1320    8.1830 C.ar  154  HEM154      0.0000
     20  C3B       12.6600   26.2460    7.2130 C.ar  154  HEM154      0.0000
     21  C4B       13.2300   26.8190    6.0080 C.ar  154  HEM154      0.0000
     22  CMB       12.4150   27.0060    9.7290 C.3   154  HEM154      0.0000
     23  CAB       12.0120   24.8610    7.2400 C.3   154  HEM154      0.0000
     24  CBB       12.6220   23.8370    8.1730 C.3   154  HEM154      0.0000
     25  NC        14.3100   28.0510    3.4540 N.2   154  HEM154      0.0000
     26  C1C       13.8180   26.7530    3.5760 C.2   154  HEM154      0.0000
     27  C2C       14.0560   26.0210    2.3420 C.2   154  HEM154      0.0000
     28  C3C       14.5780   26.9100    1.4570 C.2   154  HEM154      0.0000
     29  C4C       14.7680   28.1870    2.1970 C.2   154  HEM154      0.0000
     30  CMC       13.6110   24.5690    2.1090 C.3   154  HEM154      0.0000
     31  CAC       15.0520   26.7050    0.0060 C.3   154  HEM154      0.0000
     32  CBC       15.2280   25.3130   -0.4760 C.3   154  HEM154      0.0000
     33  ND        15.2180   30.7160    3.6560 N.ar  154  HEM154      0.0000
     34  C1D       15.5630   30.4740    2.3390 C.ar  154  HEM154      0.0000
     35  C2D       16.2150   31.6300    1.7700 C.ar  154  HEM154      0.0000
     36  C3D       16.2830   32.5420    2.7600 C.ar  154  HEM154      0.0000
     37  C4D       15.6550   31.9950    3.9380 C.ar  154  HEM154      0.0000
     38  CMD       16.6640   31.7940    0.3070 C.3   154  HEM154      0.0000
     39  CAD       16.9930   33.9220    2.7290 C.3   154  HEM154      0.0000
     40  CBD       18.4630   33.6470    3.1520 C.3   154  HEM154      0.0000
     41  CGD       19.4630   34.7480    3.1410 C.2   154  HEM154      0.0000
     42  O1D       19.8280   35.2390    2.0490 O.co2 154  HEM154      0.0000
     43  O2D       19.9440   35.1340    4.2530 O.co2 154  HEM154      0.0000
@<TRIPOS>BOND
     1    32    31    1
     2    31    28    1
     3    38    35    1
     4    28    29    1
     5    28    27    2
     6     5    29    1
     7     5    34    2
     8    35    34   ar
     9    35    36   ar
    10    42    41   ar
    11    30    27    1
    12    29    25    2
    13    34    33   ar
    14    27    26    1
    15    39    36    1
    16    39    40    1
    17    36    37   ar
    18    41    40    1
    19    41    43   ar
    20    25    26    1
    21    25     1    1
    22    26     4    2
    23    33    37   ar
    24    33     1    1
    25    37     2    2
    26     4    21    1
    27     1    17    1
    28     1     6    1
    29     2     7    1
    30    15    14   ar
    31    21    17   ar
    32    21    20   ar
    33    17    18   ar
    34     7     6    2
    35     7     8    1
    36     6    10    1
    37    14    16   ar
    38    14    13    1
    39    20    23    1
    40    20    19   ar
    41    23    24    1
    42     8    12    1
    43     8     9    2
    44    18    19   ar
    45    18     3    1
    46    10     3    2
    47    10     9    1
    48    12    13    1
    49    19    22    1
    50     9    11    1
