@<TRIPOS>MOLECULE
1wld_GAL_A_1.pdb
 11 11 0 0 0
SMALL
GASTEIGER

@<TRIPOS>ATOM
      1  C1        25.4970   28.9150   16.8150 C.3   401  GAL401      0.1777
      2  C2        24.9070   29.5950   18.0570 C.3   401  GAL401      0.2141
      3  C3        25.3650   28.9160   19.1660 C.3   401  GAL401      0.2173
      4  C4        24.9410   27.3860   19.2080 C.3   401  GAL401      0.2142
      5  C5        25.4890   26.8150   17.9050 C.3   401  GAL401      0.1810
      6  C6        25.0570   25.3930   17.6340 C.3   401  GAL401      0.2141
      7  O2        25.3990   30.9270   18.1190 O.3   401  GAL401     -0.2176
      8  O3        24.9090   29.5000   20.4580 O.3   401  GAL401     -0.2175
      9  O4        23.5240   27.2970   19.2760 O.3   401  GAL401     -0.2176
     10  O5        25.0140   27.5770   16.7700 O.3   401  GAL401     -0.3481
     11  O6        25.8010   24.9220   16.4930 O.3   401  GAL401     -0.2176
@<TRIPOS>BOND
     1    11     6    1
     2    10     1    1
     3    10     5    1
     4     1     2    1
     5     6     5    1
     6     5     4    1
     7     2     7    1
     8     2     3    1
     9     3     4    1
    10     3     8    1
    11     4     9    1
