@<TRIPOS>MOLECULE
1wld_BGC_A_1.pdb
 12 12 0 0 0
SMALL
GASTEIGER

@<TRIPOS>ATOM
      1  C2        24.8890   28.8130   12.0720 C.3   402  BGC402      0.2434
      2  C3        24.3500   28.9830   13.4880 C.3   402  BGC402      0.2199
      3  C4        25.5000   29.2340   14.4580 C.3   402  BGC402      0.2144
      4  C5        26.3020   30.4260   13.9350 C.3   402  BGC402      0.1836
      5  C6        27.4920   30.7810   14.7490 C.3   402  BGC402      0.2142
      6  C1        25.6800   30.0440   11.7120 C.3   402  BGC402      0.3024
      7  O1        26.3400   29.5010   10.3500 O.3   402  BGC402     -0.1869
      8  O2        23.7710   28.6870   11.1950 O.3   402  BGC402     -0.2148
      9  O3        23.6090   27.8500   13.8510 O.3   402  BGC402     -0.2174
     10  O4        24.9580   29.5950   15.7000 O.3   402  BGC402     -0.2176
     11  O5        26.7910   30.1000   12.6040 O.3   402  BGC402     -0.3236
     12  O6        28.3350   29.6730   15.0620 O.3   402  BGC402     -0.2176
@<TRIPOS>BOND
     1     7     6    1
     2     8     1    1
     3     6     1    1
     4     6    11    1
     5     1     2    1
     6    11     4    1
     7     2     9    1
     8     2     3    1
     9     4     3    1
    10     4     5    1
    11     3    10    1
    12     5    12    1
