@<TRIPOS>MOLECULE
1wle_SRP_A_1.pdb
 29 31 0 0 0
SMALL
GASTEIGER

@<TRIPOS>ATOM
      1  PA        72.3680   33.9360   66.8430 P.3   900  SRP900      0.2723
      2  O1A       71.0520   34.4770   66.6680 O.3   900  SRP900     -0.4273
      3  O2A       73.3050   33.7540   65.7420 O.2   900  SRP900     -0.5082
      4  O3A       72.9030   33.6550   68.2920 O.3   900  SRP900     -0.4090
      5  O5'       71.6480   32.6720   66.7370 O.3   900  SRP900     -0.3024
      6  C5'       71.4830   31.4220   66.8000 C.3   900  SRP900      0.1823
      7  C4'       71.5610   30.0510   66.2600 C.3   900  SRP900      0.1822
      8  O4'       70.1500   29.7700   66.1320 O.3   900  SRP900     -0.3135
      9  C3'       72.0710   30.4520   64.8950 C.3   900  SRP900      0.2184
     10  O3'       73.4660   30.3040   64.6780 O.3   900  SRP900     -0.2174
     11  C2'       71.1580   29.6140   63.9760 C.3   900  SRP900      0.2570
     12  O2'       71.7540   28.3440   63.7580 O.3   900  SRP900     -0.2130
     13  C1'       69.8220   29.4700   64.7400 C.3   900  SRP900      0.3186
     14  N9        68.7650   30.4080   64.3030 N.pl3 900  SRP900     -0.1439
     15  C8        68.6200   31.7930   64.5080 C.3   900  SRP900      0.3377
     16  N7        67.5550   32.3010   63.9780 N.2   900  SRP900     -0.2095
     17  C5        66.9580   31.1930   63.3870 C.2   900  SRP900      0.2526
     18  C6        65.7450   31.0180   62.6240 C.2   900  SRP900      0.4393
     19  N6        64.9350   32.0300   62.3550 N.pl3 900  SRP900      0.2180
     20  N1        65.4220   29.7470   62.1620 N.2   900  SRP900      0.0021
     21  C2        66.2290   28.6950   62.4230 C.3   900  SRP900      0.5254
     22  N3        67.3860   28.7270   63.1230 N.2   900  SRP900     -0.0055
     23  C4        67.6910   30.0450   63.5830 C.2   900  SRP900      0.3518
     24  O         71.0680   33.6820   69.6820 O.2   900  SRP900     -0.2481
     25  C         72.2910   33.7500   69.5790 C.2   900  SRP900      0.3412
     26  CA        73.1790   33.6820   70.8240 C.3   900  SRP900      0.2229
     27  N         72.3410   33.7530   72.0300 N.3   900  SRP900     -0.1181
     28  CB        73.9860   32.3810   70.8280 C.3   900  SRP900      0.2124
     29  OG        73.1310   31.2630   70.5720 O.3   900  SRP900     -0.2182
@<TRIPOS>BOND
     1    20    21    1
     2    20    18    2
     3    19    18    1
     4    21    22    1
     5    18    17    1
     6    22    23    2
     7    17    23    1
     8    17    16    2
     9    23    14    1
    10    12    11    1
    11    11    13    1
    12    11     9    1
    13    16    15    1
    14    14    15    1
    15    14    13    1
    16    10     9    1
    17    13     8    1
    18     9     7    1
    19     3     1    2
    20     8     7    1
    21     7     6    1
    22     2     1    1
    23     5     6    1
    24     5     1    1
    25     1     4    1
    26     4    25    1
    27    25    24    2
    28    25    26    1
    29    29    28    1
    30    26    28    1
    31    26    27    1
