@<TRIPOS>MOLECULE
1wli_FMN_A_1.pdb
 31 33 0 0 0
SMALL
GASTEIGER

@<TRIPOS>ATOM
      1  N1       -24.5290  -24.3360   27.4050 N.2   1123  FMN1123    -0.2887
      2  C2       -25.3480  -25.0890   28.1620 C.1   1123  FMN1123     0.3669
      3  O2       -25.2240  -25.1670   29.3770 O.2   1123  FMN1123    -0.1744
      4  N3       -26.3240  -25.9070   27.5640 N.2   1123  FMN1123    -0.2300
      5  C4       -26.5570  -25.9430   26.2210 C.1   1123  FMN1123     0.2513
      6  O4       -27.4500  -26.6720   25.7660 O.2   1123  FMN1123    -0.2057
      7  C4A      -25.6000  -25.2130   25.3970 C.2   1123  FMN1123     0.2706
      8  N5       -25.7800  -25.1530   24.0860 N.2   1123  FMN1123    -0.3841
      9  C5A      -25.0690  -24.1900   23.4230 C.2   1123  FMN1123     0.1452
     10  C6       -25.2420  -24.1060   21.9960 C.2   1123  FMN1123     0.0252
     11  C7       -24.6490  -23.1630   21.2510 C.2   1123  FMN1123    -0.0375
     12  C7M      -25.0030  -22.9190   19.7850 C.3   1123  FMN1123     0.0268
     13  C8       -23.6180  -22.3460   21.8040 C.3   1123  FMN1123     0.0417
     14  C8M      -22.8160  -21.4050   20.9380 C.3   1123  FMN1123     0.0091
     15  C9       -23.3350  -22.5100   23.1520 C.2   1123  FMN1123    -0.0049
     16  C9A      -24.0510  -23.3590   23.9710 C.2   1123  FMN1123     0.0795
     17  N10      -23.8800  -23.5170   25.3450 N.pl3 1123  FMN1123    -0.2545
     18  C10      -24.6400  -24.3670   26.0780 C.2   1123  FMN1123     0.2449
     19  C1'      -22.9150  -22.7130   26.0900 C.3   1123  FMN1123     0.1336
     20  C2'      -23.6100  -21.5200   26.7060 C.3   1123  FMN1123     0.2048
     21  O2'      -24.0160  -20.5660   25.6910 O.3   1123  FMN1123    -0.2185
     22  C3'      -22.6940  -20.7900   27.6890 C.3   1123  FMN1123     0.2165
     23  O3'      -21.5310  -20.2000   27.0040 O.3   1123  FMN1123    -0.2175
     24  C4'      -22.2190  -21.5860   28.8650 C.3   1123  FMN1123     0.2147
     25  O4'      -23.2830  -22.4390   29.3730 O.3   1123  FMN1123    -0.2176
     26  C5'      -21.6840  -20.7090   29.9760 C.3   1123  FMN1123     0.1892
     27  O5'      -22.7830  -19.9840   30.5670 O.3   1123  FMN1123    -0.2674
     28  P        -22.5470  -18.7170   31.4820 P.3   1123  FMN1123     0.5327
     29  O1P      -21.8440  -17.6640   30.6560 O.2   1123  FMN1123    -0.2224
     30  O2P      -21.6580  -19.1950   32.6370 O.3   1123  FMN1123    -0.1145
     31  O3P      -23.9640  -18.2610   31.8990 O.3   1123  FMN1123    -0.1145
@<TRIPOS>BOND
     1    12    11    1
     2    14    13    1
     3    11    13    1
     4    11    10    2
     5    13    15    1
     6    10     9    1
     7    15    16    2
     8     9    16    1
     9     9     8    2
    10    16    17    1
    11     8     7    2
    12    17    18    1
    13    17    19    1
    14     7    18    1
    15     7     5    1
    16    21    20    1
    17     6     5    2
    18    18     1    2
    19    19    20    1
    20     5     4    2
    21    20    22    1
    22    23    22    1
    23     1     2    2
    24     4     2    2
    25    22    24    1
    26     2     3    2
    27    24    25    1
    28    24    26    1
    29    26    27    1
    30    27    28    1
    31    29    28    2
    32    28    31    1
    33    28    30    1
