@<TRIPOS>MOLECULE
1wlj_U5P_A_1.pdb
 21 22 0 0 0
SMALL
GASTEIGER

@<TRIPOS>ATOM
      1  N1         9.2220   45.2480   30.5390 N.am  300  U5P300     -0.1766
      2  C2         9.4990   46.5050   31.0440 C.1   300  U5P300      0.2845
      3  N3        10.3050   47.2840   30.2530 N.2   300  U5P300     -0.2452
      4  C4        10.8540   46.9410   29.0340 C.1   300  U5P300      0.2182
      5  C5        10.5310   45.6170   28.5820 C.2   300  U5P300      0.1242
      6  C6         9.7450   44.8360   29.3330 C.2   300  U5P300      0.0929
      7  O2         9.0610   46.8990   32.1120 O.2   300  U5P300     -0.1918
      8  O4        11.5260   47.7720   28.4200 O.2   300  U5P300     -0.2085
      9  C1'        8.3460   44.3770   31.3330 C.3   300  U5P300      0.2401
     10  C2'        6.8780   44.8070   31.2860 C.3   300  U5P300      0.2319
     11  O2'        6.2660   44.5040   32.5250 O.3   300  U5P300     -0.2157
     12  C3'        6.3540   43.9430   30.1470 C.3   300  U5P300      0.2158
     13  C4'        7.0950   42.6380   30.3750 C.3   300  U5P300      0.1801
     14  O3'        4.9360   43.7620   30.1150 O.3   300  U5P300     -0.2175
     15  O4'        8.4180   43.0640   30.8000 O.3   300  U5P300     -0.3320
     16  C5'        7.2200   41.7500   29.1630 C.3   300  U5P300      0.1859
     17  O5'        7.9950   42.4110   28.1470 O.3   300  U5P300     -0.2675
     18  P          7.9970   41.8770   26.6090 P.3   300  U5P300      0.5327
     19  O1P        9.4340   42.0540   26.1410 O.3   300  U5P300     -0.1145
     20  O2P        7.0320   42.7790   25.8540 O.2   300  U5P300     -0.2224
     21  O3P        7.5290   40.4280   26.6430 O.3   300  U5P300     -0.1145
@<TRIPOS>BOND
     1    20    18    2
     2    19    18    1
     3    18    21    1
     4    18    17    1
     5    17    16    1
     6     8     4    2
     7     5     4    1
     8     5     6    2
     9     4     3    2
    10    16    13    1
    11     6     1    1
    12    14    12    1
    13    12    13    1
    14    12    10    1
    15     3     2    2
    16    13    15    1
    17     1     2   am
    18     1     9    1
    19    15     9    1
    20     2     7    2
    21    10     9    1
    22    10    11    1
