@<TRIPOS>MOLECULE
1wlk_FMN_A_1.pdb
 31 33 0 0 0
SMALL
GASTEIGER

@<TRIPOS>ATOM
      1  N1         7.3310   -0.4240   55.1200 N.2   1123  FMN1123    -0.2890
      2  C2         6.8980   -0.4660   56.4250 C.1   1123  FMN1123     0.3669
      3  O2         7.2890    0.3410   57.2680 O.2   1123  FMN1123    -0.1744
      4  N3         5.9730   -1.4670   56.7870 N.2   1123  FMN1123    -0.2300
      5  C4         5.4540   -2.4200   55.9470 C.1   1123  FMN1123     0.2513
      6  O4         4.6350   -3.2720   56.3570 O.2   1123  FMN1123    -0.2057
      7  C4A        5.9070   -2.3740   54.5600 C.2   1123  FMN1123     0.2700
      8  N5         5.4310   -3.2800   53.6680 N.2   1123  FMN1123    -0.3878
      9  C5A        5.8290   -3.1950   52.3390 C.2   1123  FMN1123     0.1320
     10  C6         5.2880   -4.1050   51.3780 C.2   1123  FMN1123     0.0250
     11  C7         5.6530   -4.0610   50.0170 C.2   1123  FMN1123    -0.0238
     12  C7M        5.0470   -5.0320   49.0400 C.3   1123  FMN1123     0.0308
     13  C8         6.6160   -3.0590   49.6100 C.2   1123  FMN1123    -0.0280
     14  C8M        7.0510   -2.9630   48.1410 C.3   1123  FMN1123     0.0304
     15  C9         7.1490   -2.1700   50.5300 C.2   1123  FMN1123    -0.0041
     16  C9A        6.7920   -2.1880   51.9010 C.3   1123  FMN1123     0.1497
     17  N10        7.2850   -1.2770   52.8910 N.pl3 1123  FMN1123    -0.2691
     18  C10        6.8580   -1.3370   54.2250 C.2   1123  FMN1123     0.2416
     19  C1'        8.2520   -0.2130   52.5320 C.3   1123  FMN1123     0.1294
     20  C2'        7.4950    1.1180   52.3320 C.3   1123  FMN1123     0.2044
     21  O2'        6.6630    1.0290   51.1870 O.3   1123  FMN1123    -0.2185
     22  C3'        8.4430    2.3190   52.2280 C.3   1123  FMN1123     0.2164
     23  O3'        9.2700    2.1180   51.0570 O.3   1123  FMN1123    -0.2175
     24  C4'        9.3620    2.4910   53.4290 C.3   1123  FMN1123     0.2147
     25  O4'        8.7000    2.2290   54.6810 O.3   1123  FMN1123    -0.2176
     26  C5'        9.9230    3.9070   53.5090 C.3   1123  FMN1123     0.1892
     27  O5'        8.8400    4.8320   53.7440 O.3   1123  FMN1123    -0.2674
     28  P          9.0120    6.3880   53.3630 P.3   1123  FMN1123     0.5327
     29  O1P        9.2900    6.4400   51.8760 O.2   1123  FMN1123    -0.2224
     30  O2P       10.1830    6.9270   54.1670 O.3   1123  FMN1123    -0.1145
     31  O3P        7.7090    7.0180   53.7600 O.3   1123  FMN1123    -0.1145
@<TRIPOS>BOND
     1    14    13    1
     2    12    11    1
     3    13    11    1
     4    13    15    2
     5    11    10    2
     6    15    16    1
     7    23    22    1
     8    21    20    1
     9    10     9    1
    10    29    28    2
    11    16     9    1
    12    16    17    1
    13    22    20    1
    14    22    24    1
    15    20    19    1
    16     9     8    2
    17    19    17    1
    18    17    18    1
    19    28    27    1
    20    28    31    1
    21    28    30    1
    22    24    26    1
    23    24    25    1
    24    26    27    1
    25     8     7    2
    26    18     7    1
    27    18     1    2
    28     7     5    1
    29     1     2    2
    30     5     6    2
    31     5     4    2
    32     2     4    2
    33     2     3    2
