@<TRIPOS>MOLECULE
1wlv_COA_C_1.pdb
 48 50 0 0 0
SMALL
GASTEIGER

@<TRIPOS>ATOM
      1  N1A       22.1290   24.6180  -14.8300 N.2   2003  COA2003     0.0021
      2  C2A       21.6320   23.3810  -14.5610 C.3   2003  COA2003     0.5254
      3  N3A       21.3570   23.0670  -13.2650 N.2   2003  COA2003    -0.0055
      4  C4A       21.5430   23.9080  -12.2160 C.2   2003  COA2003     0.3518
      5  C5A       22.0630   25.2110  -12.4920 C.2   2003  COA2003     0.2526
      6  C6A       22.3370   25.5070  -13.8200 C.2   2003  COA2003     0.4393
      7  N6A       22.8370   26.7370  -14.1330 N.pl3 2003  COA2003     0.2180
      8  N7A       22.1710   25.8970  -11.2930 N.2   2003  COA2003    -0.2095
      9  C8A       21.7340   25.0270  -10.3720 C.3   2003  COA2003     0.3377
     10  N9A       21.3490   23.8330  -10.8480 N.pl3 2003  COA2003    -0.1439
     11  C1B       20.8650   22.7860   -9.9490 C.3   2003  COA2003     0.3185
     12  C2B       21.8830   21.8220   -9.3200 C.3   2003  COA2003     0.2543
     13  O2B       22.5570   20.9590  -10.2350 O.3   2003  COA2003    -0.2131
     14  C3B       21.0550   21.1210   -8.2380 C.3   2003  COA2003     0.1928
     15  O3B       20.2350   20.0570   -8.7830 O.3   2003  COA2003    -0.2673
     16  P3B       20.7160   18.6190   -8.3810 P.3   2003  COA2003     0.5327
     17  O7A       20.6880   18.4400   -6.8340 O.3   2003  COA2003    -0.1145
     18  O8A       22.1680   18.3710   -8.8920 O.3   2003  COA2003    -0.1145
     19  O9A       19.6770   17.7100   -9.0900 O.2   2003  COA2003    -0.2224
     20  C4B       20.2090   22.3170   -7.7480 C.3   2003  COA2003     0.1795
     21  O4B       19.9550   23.1200   -8.8990 O.3   2003  COA2003    -0.3136
     22  C5B       20.8840   23.1890   -6.6500 C.3   2003  COA2003     0.1812
     23  O5B       22.1030   23.8920   -7.0620 O.3   2003  COA2003    -0.3112
     24  P1A       23.3520   24.1230   -6.1550 P.3   2003  COA2003     0.2189
     25  O1A       23.3460   23.1990   -4.9140 O.3   2003  COA2003    -0.4371
     26  O2A       24.5940   23.9060   -7.0710 O.2   2003  COA2003    -0.5170
     27  O3A       23.4380   25.6150   -5.7110 O.3   2003  COA2003    -0.2703
     28  P2A       22.4830   26.5050   -4.8520 P.3   2003  COA2003     0.2188
     29  O4A       22.3410   25.8990   -3.4630 O.3   2003  COA2003    -0.4371
     30  O5A       23.1510   27.8940   -4.8120 O.2   2003  COA2003    -0.5170
     31  O6A       21.0890   26.6730   -5.5590 O.3   2003  COA2003    -0.3138
     32  CBP       19.0950   27.9500   -6.1350 C.3   2003  COA2003     0.0645
     33  CCP       20.0300   27.5190   -4.9980 C.3   2003  COA2003     0.1519
     34  CDP       17.9780   28.8330   -5.5410 C.3   2003  COA2003     0.0056
     35  CEP       19.9500   28.8150   -7.0950 C.3   2003  COA2003     0.0056
     36  CAP       18.5580   26.6430   -6.7670 C.3   2003  COA2003     0.2312
     37  OAP       17.7950   25.9250   -5.7870 O.3   2003  COA2003    -0.2131
     38  C9P       17.7280   26.8160   -8.0420 C.2   2003  COA2003     0.2719
     39  O9P       18.2440   26.8520   -9.1560 O.2   2003  COA2003    -0.2706
     40  N8P       16.4030   26.9270   -7.8160 N.am  2003  COA2003    -0.2028
     41  C7P       15.4860   27.1000   -8.9420 C.3   2003  COA2003     0.1248
     42  C6P       15.3090   28.5800   -9.3210 C.3   2003  COA2003     0.1102
     43  C5P       14.3490   28.7010  -10.4920 C.2   2003  COA2003     0.2432
     44  O5P       14.4680   28.0250  -11.5110 O.2   2003  COA2003    -0.2733
     45  N4P       13.3810   29.6160  -10.2750 N.am  2003  COA2003    -0.2044
     46  C3P       12.3310   29.9120  -11.2620 C.3   2003  COA2003     0.1276
     47  C2P       12.8700   30.6210  -12.5160 C.3   2003  COA2003     0.0920
     48  S1P       13.6980   32.1840  -12.1360 S.3   2003  COA2003    -0.0802
@<TRIPOS>BOND
     1     1     2    1
     2     1     6    2
     3     2     3    1
     4     7     6    1
     5     6     5    1
     6     3     4    2
     7    47    48    1
     8    47    46    1
     9     5     4    1
    10     5     8    2
    11     4    10    1
    12    44    43    2
    13     8     9    1
    14    46    45    1
    15    10     9    1
    16    10    11    1
    17    43    45   am
    18    43    42    1
    19    13    12    1
    20    11    12    1
    21    11    21    1
    22    42    41    1
    23    12    14    1
    24    39    38    2
    25    19    16    2
    26    41    40    1
    27    21    20    1
    28    18    16    1
    29    15    16    1
    30    15    14    1
    31    16    17    1
    32    14    20    1
    33    38    40   am
    34    38    36    1
    35    20    22    1
    36    35    32    1
    37    26    24    2
    38    23    22    1
    39    23    24    1
    40    36    32    1
    41    36    37    1
    42    24    27    1
    43    24    25    1
    44    32    34    1
    45    32    33    1
    46    27    28    1
    47    31    33    1
    48    31    28    1
    49    28    30    2
    50    28    29    1
