@<TRIPOS>MOLECULE
1wlw_GLC_A_1.pdb
 12 12 0 0 0
SMALL
GASTEIGER

@<TRIPOS>ATOM
      1  C1        25.7240   29.8850   11.3970 C.3   402  GLC402      0.3024
      2  C2        24.8520   28.7180   11.7740 C.3   402  GLC402      0.2434
      3  C3        24.3010   28.9170   13.1780 C.3   402  GLC402      0.2199
      4  C4        25.4330   29.1940   14.1520 C.3   402  GLC402      0.2144
      5  C5        26.2520   30.3860   13.6600 C.3   402  GLC402      0.1836
      6  C6        27.4200   30.7220   14.5240 C.3   402  GLC402      0.2142
      7  O1        24.6600   30.9580   11.5510 O.3   402  GLC402     -0.1869
      8  O2        23.7330   28.6220   10.8980 O.3   402  GLC402     -0.2148
      9  O3        23.5330   27.8260   13.6120 O.3   402  GLC402     -0.2174
     10  O4        24.8820   29.5540   15.3810 O.3   402  GLC402     -0.2176
     11  O5        26.7700   30.0420   12.3560 O.3   402  GLC402     -0.3236
     12  O6        28.2400   29.5690   14.8150 O.3   402  GLC402     -0.2176
@<TRIPOS>BOND
     1     8     2    1
     2     1     7    1
     3     1     2    1
     4     1    11    1
     5     2     3    1
     6    11     5    1
     7     3     9    1
     8     3     4    1
     9     5     4    1
    10     5     6    1
    11     4    10    1
    12     6    12    1
