@<TRIPOS>MOLECULE
1wlw_GAL_A_1.pdb
 11 11 0 0 0
SMALL
GASTEIGER

@<TRIPOS>ATOM
      1  C1        25.4160   28.9010   16.5110 C.3   401  GAL401      0.1777
      2  C2        24.8110   29.6260   17.7250 C.3   401  GAL401      0.2141
      3  C3        25.3300   28.9970   18.8210 C.3   401  GAL401      0.2173
      4  C4        24.8960   27.4680   18.9610 C.3   401  GAL401      0.2142
      5  C5        25.4340   26.8710   17.6670 C.3   401  GAL401      0.1810
      6  C6        25.0410   25.4160   17.4660 C.3   401  GAL401      0.2141
      7  O2        25.2150   30.9830   17.6140 O.3   401  GAL401     -0.2176
      8  O3        24.9560   29.6260   20.1120 O.3   401  GAL401     -0.2175
      9  O4        23.4730   27.3200   19.0290 O.3   401  GAL401     -0.2176
     10  O5        24.9010   27.5740   16.5290 O.3   401  GAL401     -0.3481
     11  O6        25.7020   25.0470   16.2430 O.3   401  GAL401     -0.2176
@<TRIPOS>BOND
     1    11     6    1
     2     1    10    1
     3     1     2    1
     4    10     5    1
     5     6     5    1
     6     7     2    1
     7     5     4    1
     8     2     3    1
     9     3     4    1
    10     3     8    1
    11     4     9    1
