@<TRIPOS>MOLECULE
1wm0_PLB_X_1.pdb
 27 29 0 0 0
SMALL
GASTEIGER

@<TRIPOS>ATOM
      1 CL20       24.3700   24.0370   13.8390 Cl      1  PLB1       -0.0822
      2  C16       25.1280   25.5980   13.4860 C.ar    1  PLB1        0.0585
      3  C15       26.1770   25.8540   14.3240 C.ar    1  PLB1        0.0229
      4  C14       26.8290   27.0520   14.1500 C.ar    1  PLB1        0.0629
      5 CL19       28.2010   27.3380   15.2620 Cl      1  PLB1       -0.0821
      6  C17       24.7160   26.5070   12.5130 C.ar    1  PLB1        0.0116
      7  C18       25.3620   27.7220   12.3400 C.ar    1  PLB1        0.0063
      8  C13       26.4330   27.9790   13.1790 C.ar    1  PLB1        0.0660
      9  C11       27.1930   29.2590   13.0800 C.2     1  PLB1        0.2698
     10  O12       26.5140   30.2730   13.2520 O.2     1  PLB1       -0.2680
     11  N10       28.4890   29.1510   12.7010 N.am    1  PLB1       -0.1752
     12  C2        29.2400   30.1170   12.0830 C.ar    1  PLB1        0.0802
     13  C3        28.7320   31.4040   11.9320 C.ar    1  PLB1        0.0200
     14  C4        29.4460   32.3940   11.3270 C.ar    1  PLB1        0.0400
     15  C5        30.7230   32.1060   10.8810 C.ar    1  PLB1        0.1597
     16  C6        31.2570   30.8220   11.0450 C.ar    1  PLB1        0.0465
     17  C1        30.5110   29.8120   11.6440 C.ar    1  PLB1        0.0981
     18  C7        31.1060   28.4270   11.7940 C.2     1  PLB1        0.3891
     19  O9        30.5210   27.4600   12.3320 O.co2   1  PLB1       -0.2405
     20  O8        32.2620   28.2480   11.3680 O.co2   1  PLB1       -0.2405
     21  O21       31.4070   33.1260   10.2630 O.3     1  PLB1       -0.3917
     22  C22       32.7160   33.3910   10.6460 C.1     1  PLB1        0.1964
     23  N27       32.7700   33.6340   12.1000 N.2     1  PLB1       -0.1623
     24  C26       33.4150   34.6800   12.5980 C.2     1  PLB1        0.1099
     25  C25       34.0190   35.5860   11.7310 C.2     1  PLB1        0.0224
     26  C24       33.9700   35.4690   10.3510 C.3     1  PLB1        0.1670
     27  N23       33.3180   34.4390    9.8060 N.2     1  PLB1       -0.1847
@<TRIPOS>BOND
     1    27    26    1
     2    27    22    2
     3    21    22    1
     4    21    15    1
     5    26    25    1
     6    22    23    2
     7    15    16   ar
     8    15    14   ar
     9    16    17   ar
    10    14    13   ar
    11    20    18   ar
    12    17    18    1
    13    17    12   ar
    14    25    24    2
    15    18    19   ar
    16    13    12   ar
    17    12    11    1
    18    23    24    1
    19     7     6   ar
    20     7     8   ar
    21     6     2   ar
    22    11     9   am
    23     9     8    1
    24     9    10    2
    25     8     4   ar
    26     2     1    1
    27     2     3   ar
    28     4     3   ar
    29     4     5    1
