@<TRIPOS>MOLECULE
1wm1_PTB_A_1.pdb
 16 17 0 0 0
SMALL
GASTEIGER

@<TRIPOS>ATOM
      1  N         18.6800   -0.4760   -9.3240 N.3   401  PTB401     -0.2115
      2  CA        19.2460    0.2360   -8.1280 C.3   401  PTB401      0.1391
      3  C         20.7360   -0.0180   -7.9670 C.2   401  PTB401      0.2432
      4  O         21.1800   -1.1050   -7.6480 O.2   401  PTB401     -0.2848
      5  CB        18.4130   -0.1730   -6.9120 C.3   401  PTB401      0.0269
      6  CG        17.0900   -0.6470   -7.4630 C.3   401  PTB401      0.0207
      7  CD        17.3560   -1.0600   -8.9040 C.3   401  PTB401      0.0892
      8  C2        21.5840    1.1390   -8.1950 C.ar  401  PTB401      0.2860
      9  N3        21.2760    2.3710   -8.6440 N.ar  401  PTB401     -0.1041
     10  N4        22.3680    3.1040   -8.6820 N.ar  401  PTB401     -0.1113
     11  C5        23.4300    2.3720   -8.2560 C.ar  401  PTB401      0.2256
     12  O1        22.9740    1.0760   -7.9250 O.2   401  PTB401     -0.4173
     13  C6        24.8840    2.7160   -8.1010 C.3   401  PTB401      0.0704
     14  C7        25.0010    4.0230   -7.3180 C.3   401  PTB401      0.0093
     15  C8        25.5060    2.8940   -9.4810 C.3   401  PTB401      0.0093
     16  C9        25.6000    1.5920   -7.3540 C.3   401  PTB401      0.0093
@<TRIPOS>BOND
     1    15    13    1
     2     1     7    1
     3     1     2    1
     4     7     6    1
     5    10     9   ar
     6    10    11   ar
     7     9     8   ar
     8    11    13    1
     9    11    12   ar
    10     8     3    1
    11     8    12   ar
    12     2     3    1
    13     2     5    1
    14    13    16    1
    15    13    14    1
    16     3     4    2
    17     6     5    1
