@<TRIPOS>MOLECULE
1wma_AB3_A_1.pdb
 21 23 0 0 0
SMALL
GASTEIGER

@<TRIPOS>ATOM
      1  C20       30.2490   18.4000   -0.0130 C.3   307  AB3307      0.0491
      2  C14       29.6280   17.2380   -0.7810 C.3   307  AB3307      0.1509
      3  C19       30.6630   16.1170   -1.1000 C.3   307  AB3307      0.0491
      4  C21       28.9710   17.7310   -2.0940 C.3   307  AB3307      0.0491
      5  N11       28.6180   16.6400    0.1260 N.pl3 307  AB3307     -0.0877
      6  N15       28.4910   16.8900    1.3850 N.2   307  AB3307     -0.0915
      7  C7        27.7260   15.6890   -0.2380 C.2   307  AB3307      0.3404
      8  N3        27.4960   15.1200   -1.4620 N.2   307  AB3307     -0.0088
      9  C6        26.5270   14.2040   -1.5140 C.3   307  AB3307      0.5248
     10  N5        25.7670   13.8320   -0.4600 N.2   307  AB3307     -0.0027
     11  C2        25.9760   14.3930    0.7420 C.2   307  AB3307      0.4081
     12  N1        25.1310   14.0010    1.7340 N.pl3 307  AB3307      0.2118
     13  C4        26.9920   15.3560    0.9030 C.3   307  AB3307      0.2639
     14  C13       27.5290   16.1410    1.9350 C.2   307  AB3307      0.1227
     15  C18       27.2140   16.2100    3.3150 C.ar  307  AB3307      0.0214
     16  C28       27.0720   15.0340    4.0560 C.ar  307  AB3307      0.0433
     17  C27       27.0360   17.4580    3.9700 C.ar  307  AB3307      0.0015
     18  C30       26.7000   17.4720    5.3260 C.ar  307  AB3307      0.0033
     19  C26       26.5620   16.2760    6.0450 C.ar  307  AB3307      0.0420
     20  C29       26.7510   15.0440    5.4200 C.ar  307  AB3307      0.1958
     21  O33       26.5940   13.8930    6.0770 O.3   307  AB3307     -0.2866
@<TRIPOS>BOND
     1     4     2    1
     2     9     8    1
     3     9    10    1
     4     8     7    2
     5     3     2    1
     6     2     1    1
     7     2     5    1
     8    10    11    2
     9     7     5    1
    10     7    13    1
    11     5     6    1
    12    11    13    1
    13    11    12    1
    14    13    14    1
    15     6    14    2
    16    14    15    1
    17    15    17   ar
    18    15    16   ar
    19    17    18   ar
    20    16    20   ar
    21    18    19   ar
    22    20    19   ar
    23    20    21    1
