@<TRIPOS>MOLECULE
1wma_NDP_A_1.pdb
 48 52 0 0 0
SMALL
GASTEIGER

@<TRIPOS>ATOM
      1  PA        21.5390   21.1550   11.3790 P.3   309  NDP309      0.2189
      2  O1A       20.7430   22.1020   10.5470 O.2   309  NDP309     -0.5170
      3  O2A       22.8240   21.5910   11.9800 O.3   309  NDP309     -0.4371
      4  O5B       20.5740   20.6140   12.5170 O.3   309  NDP309     -0.3112
      5  C5B       21.1390   19.7130   13.5060 C.3   309  NDP309      0.1813
      6  C4B       20.0970   19.5400   14.6070 C.3   309  NDP309      0.1820
      7  O4B       20.6950   18.6490   15.5930 O.3   309  NDP309     -0.3136
      8  C3B       19.7980   20.8520   15.3350 C.3   309  NDP309      0.2157
      9  O3B       18.4490   20.7570   15.8400 O.3   309  NDP309     -0.2175
     10  C2B       20.7870   20.7960   16.4940 C.3   309  NDP309      0.2314
     11  O2B       20.4530   21.5950   17.6300 O.3   309  NDP309     -0.2630
     12  C1B       20.6890   19.3210   16.8600 C.3   309  NDP309      0.3158
     13  N9A       21.7540   18.8080   17.7250 N.pl3 309  NDP309     -0.1439
     14  C8A       23.0920   18.8740   17.5710 C.3   309  NDP309      0.3377
     15  N7A       23.7330   18.3880   18.6500 N.2   309  NDP309     -0.2095
     16  C5A       22.7260   18.0230   19.5080 C.2   309  NDP309      0.2526
     17  C6A       22.7250   17.5110   20.8300 C.2   309  NDP309      0.4393
     18  N6A       23.8460   17.3830   21.5790 N.pl3 309  NDP309      0.2180
     19  N1A       21.5380   17.2110   21.3900 N.2   309  NDP309      0.0021
     20  C2A       20.4190   17.4610   20.7230 C.3   309  NDP309      0.5254
     21  N3A       20.3040   18.0170   19.5110 N.2   309  NDP309     -0.0055
     22  C4A       21.5000   18.2570   18.9320 C.2   309  NDP309      0.3518
     23  O3        21.9300   19.8180   10.5840 O.3   309  NDP309     -0.2703
     24  PN        21.1290   18.9470    9.5170 P.3   309  NDP309      0.2189
     25  O1N       21.8030   19.1280    8.1980 O.2   309  NDP309     -0.5170
     26  O2N       19.6660   19.1630    9.6430 O.3   309  NDP309     -0.4371
     27  O5D       21.5400   17.4720    9.9890 O.3   309  NDP309     -0.3112
     28  C5D       20.5680   16.5830   10.5910 C.3   309  NDP309      0.1813
     29  C4D       21.1420   15.1950   10.5340 C.3   309  NDP309      0.1799
     30  O4D       21.3450   14.8540    9.1320 O.3   309  NDP309     -0.3327
     31  C3D       22.5030   15.0910   11.1910 C.3   309  NDP309      0.2158
     32  O3D       22.6560   13.8250   11.8620 O.3   309  NDP309     -0.2175
     33  C2D       23.4860   15.1200   10.0160 C.3   309  NDP309      0.2309
     34  O2D       24.6990   14.4480   10.3460 O.3   309  NDP309     -0.2158
     35  C1D       22.6970   14.3560    8.9640 C.3   309  NDP309      0.2263
     36  N1N       23.0660   14.6380    7.5660 N.pl3 309  NDP309     -0.2787
     37  C2N       22.9610   15.9190    7.0310 C.3   309  NDP309      0.1244
     38  C3N       23.1860   16.0670    5.6580 C.2   309  NDP309      0.0544
     39  C7N       23.0500   17.4170    4.9960 C.2   309  NDP309      0.2818
     40  O7N       23.4240   17.4790    3.8050 O.2   309  NDP309     -0.2670
     41  N7N       22.5520   18.4720    5.6250 N.am  309  NDP309     -0.0839
     42  C4N       23.5370   14.9700    4.8720 C.2   309  NDP309      0.0033
     43  C5N       23.6830   13.6950    5.4020 C.2   309  NDP309      0.0157
     44  C6N       23.4320   13.5420    6.7800 C.2   309  NDP309      0.0633
     45  P2B       20.9740   23.1370   17.7070 P.3   309  NDP309      0.5328
     46  O1X       20.8690   23.4290   19.1790 O.3   309  NDP309     -0.1145
     47  O2X       20.0400   23.9920   16.8530 O.2   309  NDP309     -0.2224
     48  O3X       22.4100   23.1460   17.2030 O.3   309  NDP309     -0.1145
@<TRIPOS>BOND
     1    40    39    2
     2    42    43    1
     3    42    38    2
     4    39    41   am
     5    39    38    1
     6    43    44    2
     7    38    37    1
     8    44    36    1
     9    37    36    1
    10    36    35    1
    11    25    24    2
    12    35    30    1
    13    35    33    1
    14    30    29    1
    15    24    26    1
    16    24    27    1
    17    24    23    1
    18    27    28    1
    19    33    34    1
    20    33    31    1
    21    29    28    1
    22    29    31    1
    23     2     1    2
    24    23     1    1
    25    31    32    1
    26     1     3    1
    27     1     4    1
    28     4     5    1
    29     5     6    1
    30     6     8    1
    31     6     7    1
    32     8     9    1
    33     8    10    1
    34     7    12    1
    35    10    12    1
    36    10    11    1
    37    47    45    2
    38    12    13    1
    39    48    45    1
    40    14    13    1
    41    14    15    1
    42    11    45    1
    43    45    46    1
    44    13    22    1
    45    15    16    2
    46    22    16    1
    47    22    21    2
    48    16    17    1
    49    21    20    1
    50    20    19    1
    51    17    19    2
    52    17    18    1
