@<TRIPOS>MOLECULE
1wmq_HIS_A_1.pdb
 11 11 0 0 0
SMALL
GASTEIGER

@<TRIPOS>ATOM
      1  N         16.0530    3.4690   95.0980 N.3   2001  HIS2001    -0.1204
      2  CA        14.6440    3.6100   95.5580 C.3   2001  HIS2001     0.1999
      3  C         13.7700    4.4810   94.6590 C.2   2001  HIS2001     0.3822
      4  O         14.1680    4.7570   93.5170 O.co2 2001  HIS2001    -0.2440
      5  CB        14.6380    4.1340   96.9910 C.3   2001  HIS2001     0.0740
      6  CG        15.3680    3.2380   97.9380 C.2   2001  HIS2001     0.0651
      7  ND1       16.7410    3.1290   97.9470 N.2   2001  HIS2001    -0.2310
      8  CD2       14.9130    2.3380   98.8440 C.3   2001  HIS2001     0.1683
      9  CE1       17.1020    2.1990   98.8110 C.2   2001  HIS2001     0.1939
     10  NE2       16.0110    1.7030   99.3690 N.2   2001  HIS2001    -0.2440
     11  OXT       12.6740    4.8580   95.0870 O.co2 2001  HIS2001    -0.2440
@<TRIPOS>BOND
     1     4     3   ar
     2     3    11   ar
     3     3     2    1
     4     1     2    1
     5     2     5    1
     6     5     6    1
     7     6     7    2
     8     6     8    1
     9     7     9    1
    10     9    10    2
    11     8    10    1
