@<TRIPOS>MOLECULE
1wmr_NAG_A_1.pdb
 14 14 0 0 0
SMALL
GASTEIGER

@<TRIPOS>ATOM
      1  C1        28.2040   65.1840   36.7600 C.3   1000  NAG1000     0.1665
      2  C2        29.1790   66.0010   37.6370 C.3   1000  NAG1000     0.1576
      3  C3        29.9210   67.1010   36.8420 C.3   1000  NAG1000     0.2069
      4  C4        30.4290   66.5910   35.4900 C.3   1000  NAG1000     0.2134
      5  C5        29.2860   65.9080   34.7490 C.3   1000  NAG1000     0.1809
      6  C6        29.6900   65.3720   33.3890 C.3   1000  NAG1000     0.2141
      7  C7        28.8560   66.5380   39.9730 C.2   1000  NAG1000     0.2420
      8  C8        29.7650   67.6500   40.4730 C.3   1000  NAG1000     0.0964
      9  N2        28.4300   66.6220   38.7160 N.am  1000  NAG1000    -0.2019
     10  O3        31.0280   67.5730   37.6010 O.3   1000  NAG1000    -0.2184
     11  O4        30.9280   67.6750   34.7190 O.3   1000  NAG1000    -0.2176
     12  O5        28.8210   64.7920   35.5260 O.3   1000  NAG1000    -0.3489
     13  O6        28.6750   64.5430   32.8410 O.3   1000  NAG1000    -0.2176
     14  O7        28.5380   65.6180   40.7290 O.2   1000  NAG1000    -0.2733
@<TRIPOS>BOND
     1    13     6    1
     2     6     5    1
     3    11     4    1
     4     5     4    1
     5     5    12    1
     6     4     3    1
     7    12     1    1
     8     1     2    1
     9     3    10    1
    10     3     2    1
    11     2     9    1
    12     9     7   am
    13     7     8    1
    14     7    14    2
