@<TRIPOS>MOLECULE
1wms_GDP_A_1.pdb
 28 30 0 0 0
SMALL
GASTEIGER

@<TRIPOS>ATOM
      1  PB        -3.2890   15.8900    8.7460 P.3   1001  GDP1001     0.5373
      2  O1B       -4.6740   15.7150    8.2040 O.2   1001  GDP1001    -0.2221
      3  O2B       -3.2920   16.0600   10.2350 O.3   1001  GDP1001    -0.1143
      4  O3B       -2.2940   14.8920    8.2410 O.3   1001  GDP1001    -0.1143
      5  O3A       -2.8130   17.3710    8.1990 O.3   1001  GDP1001    -0.2261
      6  PA        -1.8490   17.7150    7.0040 P.3   1001  GDP1001     0.2231
      7  O1A       -0.4240   17.4650    7.3330 O.3   1001  GDP1001    -0.4370
      8  O2A       -2.3780   17.1710    5.7360 O.2   1001  GDP1001    -0.5169
      9  O5'       -1.9560   19.2870    6.9650 O.3   1001  GDP1001    -0.3111
     10  C5'       -3.3190   19.9210    6.8750 C.3   1001  GDP1001     0.1813
     11  C4'       -3.0660   21.2270    6.2010 C.3   1001  GDP1001     0.1799
     12  O4'       -2.3740   22.1650    7.1530 O.3   1001  GDP1001    -0.3326
     13  C3'       -2.1860   21.2300    4.9120 C.3   1001  GDP1001     0.2158
     14  O3'       -2.7260   22.3630    4.0990 O.3   1001  GDP1001    -0.2175
     15  C2'       -0.8020   21.5970    5.4970 C.3   1001  GDP1001     0.2310
     16  O2'        0.0340   22.2290    4.5110 O.3   1001  GDP1001    -0.2158
     17  C1'       -1.1670   22.5530    6.5740 C.3   1001  GDP1001     0.2293
     18  N9        -0.0930   22.6230    7.6400 N.pl3 1001  GDP1001    -0.2354
     19  C8         0.4380   21.4140    8.2220 C.3   1001  GDP1001     0.2246
     20  N7         1.3050   21.8700    9.2020 N.2   1001  GDP1001    -0.2322
     21  C5         1.2680   23.2140    9.1900 C.2   1001  GDP1001     0.2182
     22  C6         1.9370   24.2120    9.8780 C.1   1001  GDP1001     0.2372
     23  O6         2.8350   23.9050   10.8130 O.2   1001  GDP1001    -0.2069
     24  N1         1.6560   25.5020    9.6290 N.2   1001  GDP1001    -0.2485
     25  C2         0.7060   25.7890    8.7280 C.1   1001  GDP1001     0.2531
     26  N2         0.5720   27.1110    8.5760 N.pl3 1001  GDP1001    -0.0226
     27  N3         0.0490   24.9710    7.9690 N.2   1001  GDP1001    -0.3074
     28  C4         0.3390   23.7630    8.2090 C.2   1001  GDP1001     0.2300
@<TRIPOS>BOND
     1    14    13    1
     2    16    15    1
     3    13    15    1
     4    13    11    1
     5    15    17    1
     6     8     6    2
     7    11    10    1
     8    11    12    1
     9    17    12    1
    10    17    18    1
    11    10     9    1
    12     9     6    1
    13     6     7    1
    14     6     5    1
    15    18    28    1
    16    18    19    1
    17    27    28    2
    18    27    25    2
    19     5     1    1
    20     2     1    2
    21    28    21    1
    22    19    20    1
    23     4     1    1
    24    26    25    1
    25    25    24    2
    26     1     3    1
    27    21    20    2
    28    21    22    1
    29    24    22    2
    30    22    23    2
