@<TRIPOS>MOLECULE
1wmu_HEM_A_1.pdb
 43 50 0 0 0
SMALL
GASTEIGER

@<TRIPOS>ATOM
      1 FE         61.9650  -37.9810   17.0470 Fe    201  HEM201      0.0000
      2  CHA       61.6470  -39.0750   20.2760 C.2   201  HEM201      0.0000
      3  CHB       63.6790  -40.9040   16.2690 C.2   201  HEM201      0.0000
      4  CHC       62.3440  -36.8510   13.8660 C.2   201  HEM201      0.0000
      5  CHD       60.3390  -34.9670   17.9180 C.2   201  HEM201      0.0000
      6  NA        62.5410  -39.6940   18.0910 N.ar  201  HEM201      0.0000
      7  C1A       62.2880  -39.9100   19.3900 C.ar  201  HEM201      0.0000
      8  C2A       62.8310  -41.2060   19.7530 C.ar  201  HEM201      0.0000
      9  C3A       63.4190  -41.7290   18.6230 C.ar  201  HEM201      0.0000
     10  C4A       63.2280  -40.7570   17.5660 C.ar  201  HEM201      0.0000
     11  CMA       64.1380  -43.0620   18.4890 C.3   201  HEM201      0.0000
     12  CAA       62.7450  -41.8190   21.1370 C.3   201  HEM201      0.0000
     13  CBA       63.9270  -41.5410   22.0750 C.3   201  HEM201      0.0000
     14  CGA       63.8060  -42.3240   23.3880 C.2   201  HEM201      0.0000
     15  O1A       63.2530  -43.4510   23.3550 O.co2 201  HEM201      0.0000
     16  O2A       64.2800  -41.7730   24.3930 O.co2 201  HEM201      0.0000
     17  NB        62.8380  -38.7350   15.3810 N.2   201  HEM201      0.0000
     18  C1B       63.4800  -39.9430   15.2770 C.2   201  HEM201      0.0000
     19  C2B       63.9520  -40.0820   13.9240 C.2   201  HEM201      0.0000
     20  C3B       63.5740  -38.9370   13.2350 C.2   201  HEM201      0.0000
     21  C4B       62.8660  -38.0920   14.1860 C.2   201  HEM201      0.0000
     22  CMB       64.7220  -41.2840   13.3940 C.3   201  HEM201      0.0000
     23  CAB       63.8210  -38.5750   11.7760 C.3   201  HEM201      0.0000
     24  CBB       65.2750  -38.4900   11.3600 C.3   201  HEM201      0.0000
     25  NC        61.4220  -36.2360   16.0670 N.ar  201  HEM201      0.0000
     26  C1C       61.6900  -36.0210   14.7520 C.ar  201  HEM201      0.0000
     27  C2C       61.1850  -34.7160   14.3670 C.ar  201  HEM201      0.0000
     28  C3C       60.6210  -34.1820   15.5210 C.ar  201  HEM201      0.0000
     29  C4C       60.7690  -35.1430   16.5960 C.ar  201  HEM201      0.0000
     30  CMC       61.3030  -34.1280   12.9730 C.3   201  HEM201      0.0000
     31  CAC       59.9600  -32.8080   15.6500 C.2   201  HEM201      0.0000
     32  CBC       60.6480  -31.6670   15.3960 C.2   201  HEM201      0.0000
     33  ND        61.1320  -37.1680   18.7910 N.2   201  HEM201      0.0000
     34  C1D       60.5300  -35.9360   18.9150 C.2   201  HEM201      0.0000
     35  C2D       60.1310  -35.7960   20.3110 C.2   201  HEM201      0.0000
     36  C3D       60.5040  -36.9520   20.9700 C.2   201  HEM201      0.0000
     37  C4D       61.1310  -37.8160   19.9820 C.2   201  HEM201      0.0000
     38  CMD       59.4480  -34.6060   20.9500 C.3   201  HEM201      0.0000
     39  CAD       60.3200  -37.2610   22.4600 C.3   201  HEM201      0.0000
     40  CBD       61.7020  -37.4970   23.1260 C.3   201  HEM201      0.0000
     41  CGD       61.8390  -37.2920   24.6280 C.2   201  HEM201      0.0000
     42  O1D       60.8530  -36.8840   25.2780 O.co2 201  HEM201      0.0000
     43  O2D       62.9790  -37.5310   25.0920 O.co2 201  HEM201      0.0000
@<TRIPOS>BOND
     1    24    23    1
     2    23    20    1
     3    30    27    1
     4    20    19    2
     5    20    21    1
     6    22    19    1
     7     4    21    2
     8     4    26    1
     9    19    18    1
    10    21    17    1
    11    27    26   ar
    12    27    28   ar
    13    26    25   ar
    14    18    17    2
    15    18     3    1
    16    17     1    1
    17    32    31    2
    18    28    31    1
    19    28    29   ar
    20    25    29   ar
    21    25     1    1
    22     3    10    2
    23    29     5    1
    24     1     6    1
    25     1    33    1
    26    10     6   ar
    27    10     9   ar
    28     5    34    2
    29     6     7   ar
    30    11     9    1
    31     9     8   ar
    32    33    34    1
    33    33    37    2
    34    34    35    1
    35     7     8   ar
    36     7     2    2
    37     8    12    1
    38    37     2    1
    39    37    36    1
    40    35    38    1
    41    35    36    2
    42    36    39    1
    43    12    13    1
    44    13    14    1
    45    39    40    1
    46    40    41    1
    47    15    14   ar
    48    14    16   ar
    49    41    43   ar
    50    41    42   ar
