@<TRIPOS>MOLECULE
1wmz_NGA_A_1.pdb
 15 15 0 0 0
SMALL
GASTEIGER

@<TRIPOS>ATOM
      1  C1        10.5590  -25.9080   70.8240 C.3   501  NGA501      0.2917
      2  C2         9.7060  -24.9750   69.9170 C.3   501  NGA501      0.1871
      3  C3         8.6430  -24.1120   70.5300 C.3   501  NGA501      0.2095
      4  C4         8.0530  -24.6680   71.7870 C.3   501  NGA501      0.2136
      5  C5         8.9290  -25.5330   72.6600 C.3   501  NGA501      0.1835
      6  C6         8.1770  -26.2810   73.7800 C.3   501  NGA501      0.2142
      7  C7        10.8700  -24.7250   67.7970 C.2   501  NGA501      0.2421
      8  C8        11.7010  -23.7910   66.9590 C.3   501  NGA501      0.0964
      9  N2        10.5050  -24.2290   68.9860 N.am  501  NGA501     -0.1991
     10  O1        11.1920  -27.0070   70.1570 O.3   501  NGA501     -0.1879
     11  O3         7.6170  -23.5980   69.6570 O.3   501  NGA501     -0.2183
     12  O4         7.1220  -25.6390   71.2940 O.3   501  NGA501     -0.2176
     13  O5         9.9120  -26.3420   72.0350 O.3   501  NGA501     -0.3242
     14  O6         9.2180  -26.7010   74.6730 O.3   501  NGA501     -0.2176
     15  O7        10.5420  -25.8310   67.4120 O.2   501  NGA501     -0.2733
@<TRIPOS>BOND
     1     8     7    1
     2    15     7    2
     3     7     9   am
     4     9     2    1
     5    11     3    1
     6     2     3    1
     7     2     1    1
     8    10     1    1
     9     3     4    1
    10     1    13    1
    11    12     4    1
    12     4     5    1
    13    13     5    1
    14     5     6    1
    15     6    14    1
