@<TRIPOS>MOLECULE
1wmz_A2G_B_1.pdb
 15 15 0 0 0
SMALL
GASTEIGER

@<TRIPOS>ATOM
      1  C1        -5.7720   -7.8440    1.0150 C.3   502  A2G502      0.2917
      2  C2        -5.3060   -7.4170    2.3800 C.3   502  A2G502      0.1871
      3  C3        -5.1410   -5.9170    2.5690 C.3   502  A2G502      0.2095
      4  C4        -4.7600   -5.1690    1.3240 C.3   502  A2G502      0.2136
      5  C5        -5.2680   -5.6720   -0.0080 C.3   502  A2G502      0.1835
      6  C6        -4.6390   -5.1410   -1.2710 C.3   502  A2G502      0.2142
      7  C7        -5.6730   -9.1880    3.9830 C.2   502  A2G502      0.2421
      8  C8        -6.5780   -9.7280    5.0210 C.3   502  A2G502      0.0964
      9  O         -5.3950   -7.0670   -0.1030 O.3   502  A2G502     -0.3242
     10  O1        -7.1560   -7.4440    1.0980 O.3   502  A2G502     -0.1879
     11  O3        -4.3580   -5.5120    3.6650 O.3   502  A2G502     -0.2183
     12  O4        -3.3320   -5.4920    1.2050 O.3   502  A2G502     -0.2176
     13  O6        -5.5530   -5.4040   -2.4060 O.3   502  A2G502     -0.2176
     14  O7        -4.6550   -9.7790    3.6600 O.2   502  A2G502     -0.2733
     15  N2        -6.0470   -8.0250    3.4500 N.am  502  A2G502     -0.1991
@<TRIPOS>BOND
     1    13     6    1
     2     6     5    1
     3     9     5    1
     4     9     1    1
     5     5     4    1
     6     1    10    1
     7     1     2    1
     8    12     4    1
     9     4     3    1
    10     2     3    1
    11     2    15    1
    12     3    11    1
    13    15     7   am
    14    14     7    2
    15     7     8    1
