@<TRIPOS>MOLECULE
1wn6_BST_A_1.pdb
 31 32 0 0 0
SMALL
GASTEIGER

@<TRIPOS>ATOM
      1  O4        46.6990   17.2620   36.2980 O.co2 1003  BST1003    -0.2429
      2  N1        43.4550   14.7250   38.7110 N.am  1003  BST1003    -0.1902
      3  C2        42.4780   13.7010   38.3580 C.1   1003  BST1003     0.2203
      4  O2        41.4790   13.9360   37.6870 O.2   1003  BST1003    -0.2058
      5  N3        42.7060   12.3840   38.8200 N.2   1003  BST1003    -0.1415
      6  C4        43.8920   12.1000   39.6210 C.3   1003  BST1003     0.3179
      7  C5        44.8850   13.2150   39.9610 C.2   1003  BST1003     0.0632
      8  C6        44.6230   14.4350   39.5010 C.2   1003  BST1003     0.0798
      9  C1'       43.1930   16.1080   38.2030 C.3   1003  BST1003     0.2061
     10  C2'       42.7350   17.1080   39.2230 C.3   1003  BST1003     0.0538
     11  C3'       43.1900   18.3810   39.3190 C.3   1003  BST1003     0.0291
     12  C4'       44.2990   18.7230   38.2380 C.3   1003  BST1003     0.1337
     13  C5'       44.3650   17.7800   37.0000 C.3   1003  BST1003     0.2391
     14  O5'       44.4280   16.4620   37.5430 O.3   1003  BST1003    -0.3262
     15  O3        45.4530   18.5870   35.0040 O.co2 1003  BST1003    -0.2429
     16  C6'       45.6320   17.7910   36.1400 C.2   1003  BST1003     0.3931
     17  N6        44.1420   20.1030   37.7560 N.am  1003  BST1003    -0.2041
     18  C7        45.0600   21.1620   37.6990 C.2   1003  BST1003     0.2429
     19  O7        46.2230   21.0070   38.0990 O.2   1003  BST1003    -0.2733
     20  C8        44.5420   22.4810   37.1220 C.3   1003  BST1003     0.1059
     21  C9        45.3450   23.7450   37.5380 C.3   1003  BST1003     0.1044
     22  N9        46.7640   23.7470   37.1480 N.3   1003  BST1003    -0.1323
     23  C10       44.6930   25.0390   36.9530 C.3   1003  BST1003     0.0625
     24  C11       43.7650   25.7790   37.9600 C.3   1003  BST1003     0.1797
     25  N12       43.0250   26.9150   37.3940 N.pl3 1003  BST1003    -0.2232
     26  C13       43.7320   28.1980   37.2870 C.3   1003  BST1003     0.2208
     27  C14       41.6780   26.7580   36.9520 C.cat 1003  BST1003     0.5034
     28  N14       40.8710   27.9390   37.0420 N.pl3 1003  BST1003     0.1321
     29  N15       41.1290   25.6780   36.4910 N.pl3 1003  BST1003     0.1321
     30  N4        44.6870   11.0650   38.8750 N.3   1003  BST1003    -0.0731
     31  O6        43.3620   11.5250   40.7980 O.3   1003  BST1003    -0.1745
@<TRIPOS>BOND
     1    15    16   ar
     2    16     1   ar
     3    16    13    1
     4    29    27    2
     5    27    28    1
     6    27    25    1
     7    23    21    1
     8    23    24    1
     9    13    14    1
    10    13    12    1
    11    20    21    1
    12    20    18    1
    13    22    21    1
    14    26    25    1
    15    25    24    1
    16    14     9    1
    17     4     3    2
    18    18    17   am
    19    18    19    2
    20    17    12    1
    21     9     2    1
    22     9    10    1
    23    12    11    1
    24     3     2   am
    25     3     5    2
    26     2     8    1
    27     5     6    1
    28    30     6    1
    29    10    11    1
    30     8     7    2
    31     6     7    1
    32     6    31    1
