@<TRIPOS>MOLECULE
1wnb_NAD_A_1.pdb
 44 48 0 0 0
SMALL
GASTEIGER

@<TRIPOS>ATOM
      1  PA        63.0050   95.3380   63.3160 P.3   1001  NAD1001     0.2189
      2  O1A       63.2990   94.6100   64.6070 O.3   1001  NAD1001    -0.4371
      3  O2A       61.6960   94.7280   62.7430 O.2   1001  NAD1001    -0.5170
      4  O5B       64.3190   95.0750   62.3950 O.3   1001  NAD1001    -0.3112
      5  C5B       64.2040   93.9430   61.4930 C.3   1001  NAD1001     0.1813
      6  C4B       64.6370   94.2870   60.0690 C.3   1001  NAD1001     0.1821
      7  O4B       63.5480   94.8770   59.4040 O.3   1001  NAD1001    -0.3135
      8  C3B       65.8080   95.2810   59.9750 C.3   1001  NAD1001     0.2184
      9  O3B       66.7220   94.8360   58.9330 O.3   1001  NAD1001    -0.2174
     10  C2B       65.1460   96.6140   59.6270 C.3   1001  NAD1001     0.2570
     11  O2B       66.0070   97.5660   58.9510 O.3   1001  NAD1001    -0.2130
     12  C1B       63.9830   96.0670   58.7620 C.3   1001  NAD1001     0.3186
     13  N9A       62.9040   97.0510   58.5210 N.pl3 1001  NAD1001    -0.1439
     14  C8A       62.3440   97.9620   59.4010 C.3   1001  NAD1001     0.3377
     15  N7A       61.4120   98.6940   58.7250 N.2   1001  NAD1001    -0.2095
     16  C5A       61.3630   98.2540   57.4240 C.2   1001  NAD1001     0.2526
     17  C6A       60.6080   98.6390   56.2890 C.2   1001  NAD1001     0.4393
     18  N6A       59.6990   99.6390   56.3470 N.pl3 1001  NAD1001     0.2180
     19  N1A       60.8420   97.9760   55.0780 N.2   1001  NAD1001     0.0021
     20  C2A       61.7980   96.9750   54.9970 C.3   1001  NAD1001     0.5254
     21  N3A       62.5250   96.5690   56.1020 N.2   1001  NAD1001    -0.0055
     22  C4A       62.3100   97.2120   57.2930 C.2   1001  NAD1001     0.3518
     23  O3        62.8130   96.8100   63.9260 O.3   1001  NAD1001    -0.2703
     24  PN        63.5990   97.3830   65.2480 P.3   1001  NAD1001     0.2189
     25  O1N       64.9830   97.6500   64.7650 O.2   1001  NAD1001    -0.5170
     26  O2N       62.7510   98.5540   65.5390 O.3   1001  NAD1001    -0.4371
     27  O5D       63.5920   96.4620   66.6250 O.3   1001  NAD1001    -0.3112
     28  C5D       62.8240   95.3020   67.0450 C.3   1001  NAD1001     0.1813
     29  C4D       61.7870   95.2380   68.2210 C.3   1001  NAD1001     0.1799
     30  O4D       60.7470   94.3160   67.8690 O.3   1001  NAD1001    -0.3327
     31  C3D       62.2310   94.6580   69.5790 C.3   1001  NAD1001     0.2158
     32  O3D       61.7280   95.3540   70.6910 O.3   1001  NAD1001    -0.2175
     33  C2D       61.5780   93.3090   69.7730 C.3   1001  NAD1001     0.2309
     34  O2D       60.7160   93.4140   70.9030 O.3   1001  NAD1001    -0.2158
     35  C1D       60.8170   93.0140   68.4790 C.3   1001  NAD1001     0.2263
     36  N1N       61.6600   92.0630   67.7150 N.pl3 1001  NAD1001    -0.2787
     37  C2N       61.3790   90.7860   67.2280 C.3   1001  NAD1001     0.1244
     38  C3N       62.4500   90.1540   66.5410 C.2   1001  NAD1001     0.0544
     39  C7N       62.6080   88.8240   65.8750 C.2   1001  NAD1001     0.2818
     40  O7N       61.6240   87.8440   65.7600 O.2   1001  NAD1001    -0.2670
     41  N7N       63.8250   88.6390   65.3440 N.am  1001  NAD1001    -0.0839
     42  C4N       63.6710   90.7740   66.3740 C.2   1001  NAD1001     0.0033
     43  C5N       63.9320   92.0050   66.8530 C.2   1001  NAD1001     0.0157
     44  C6N       62.8980   92.5880   67.5060 C.2   1001  NAD1001     0.0633
@<TRIPOS>BOND
     1    20    19    1
     2    20    21    1
     3    19    17    2
     4    21    22    2
     5    17    18    1
     6    17    16    1
     7    22    16    1
     8    22    13    1
     9    16    15    2
    10    13    12    1
    11    13    14    1
    12    15    14    1
    13    12     7    1
    14    12    10    1
    15     9     8    1
    16    11    10    1
    17     7     6    1
    18    10     8    1
    19     8     6    1
    20     6     5    1
    21     5     4    1
    22     4     1    1
    23     3     1    2
    24     1    23    1
    25     1     2    1
    26    23    24    1
    27    25    24    2
    28    24    26    1
    29    24    27    1
    30    41    39   am
    31    40    39    2
    32    39    38    1
    33    42    38    2
    34    42    43    1
    35    38    37    1
    36    27    28    1
    37    43    44    2
    38    28    29    1
    39    37    36    1
    40    44    36    1
    41    36    35    1
    42    30    29    1
    43    30    35    1
    44    29    31    1
    45    35    33    1
    46    31    33    1
    47    31    32    1
    48    33    34    1
