@<TRIPOS>MOLECULE
1wng_SAH_A_1.pdb
 26 28 0 0 0
SMALL
GASTEIGER

@<TRIPOS>ATOM
      1  N         33.4990   92.5380   66.5220 N.3   1300  SAH1300    -0.1208
      2  CA        32.1040   92.2180   66.1880 C.3   1300  SAH1300     0.1952
      3  CB        31.3940   91.6090   67.4000 C.3   1300  SAH1300     0.0422
      4  CG        32.0850   90.3390   67.9000 C.3   1300  SAH1300     0.0597
      5  SD        31.1250   89.5060   69.2170 S.3   1300  SAH1300    -0.1375
      6  C         31.3770   93.5060   65.7970 C.2   1300  SAH1300     0.3819
      7  O         31.9160   94.5970   65.9780 O.co2 1300  SAH1300    -0.2441
      8  OXT       30.2450   93.4590   65.3170 O.co2 1300  SAH1300    -0.2441
      9  C5'       30.0340   88.4490   68.1960 C.3   1300  SAH1300     0.0899
     10  C4'       28.5710   88.4450   68.6470 C.3   1300  SAH1300     0.1630
     11  O4'       27.9240   89.7120   68.4270 O.3   1300  SAH1300    -0.3153
     12  C3'       27.7490   87.4360   67.8450 C.3   1300  SAH1300     0.2168
     13  O3'       27.8990   86.1420   68.4350 O.3   1300  SAH1300    -0.2175
     14  C2'       26.3510   87.9630   68.1580 C.3   1300  SAH1300     0.2569
     15  O2'       26.0080   87.6890   69.5190 O.3   1300  SAH1300    -0.2130
     16  C1'       26.5840   89.4630   67.9630 C.3   1300  SAH1300     0.3185
     17  N9        26.5020   89.8180   66.5270 N.pl3 1300  SAH1300    -0.1439
     18  C8        27.5230   90.1020   65.7200 C.3   1300  SAH1300     0.3377
     19  N7        27.0640   90.4350   64.5150 N.2   1300  SAH1300    -0.2095
     20  C5        25.7370   90.3590   64.5520 C.2   1300  SAH1300     0.2526
     21  C6        24.7210   90.5830   63.6300 C.2   1300  SAH1300     0.4393
     22  N6        25.0060   90.9600   62.3880 N.pl3 1300  SAH1300     0.2180
     23  N1        23.4450   90.4090   64.0110 N.2   1300  SAH1300     0.0021
     24  C2        23.1380   90.0270   65.2390 C.3   1300  SAH1300     0.5254
     25  N3        24.0800   89.8040   66.1390 N.2   1300  SAH1300    -0.0055
     26  C4        25.3780   89.9620   65.8320 C.2   1300  SAH1300     0.3518
@<TRIPOS>BOND
     1    22    21    1
     2    21    23    2
     3    21    20    1
     4    23    24    1
     5    19    20    2
     6    19    18    1
     7    20    26    1
     8    24    25    1
     9     8     6   ar
    10    18    17    1
    11     6     7   ar
    12     6     2    1
    13    26    25    2
    14    26    17    1
    15     2     1    1
    16     2     3    1
    17    17    16    1
    18     3     4    1
    19    12    14    1
    20    12    13    1
    21    12    10    1
    22     4     5    1
    23    16    14    1
    24    16    11    1
    25    14    15    1
    26     9    10    1
    27     9     5    1
    28    11    10    1
