@<TRIPOS>MOLECULE
1wnl_ADP_A_1.pdb
 27 29 0 0 0
SMALL
GASTEIGER

@<TRIPOS>ATOM
      1  PB       -17.1150  -15.1450   -2.9810 P.3   1301  ADP1301     0.5373
      2  O1B      -17.5650  -16.0210   -1.8730 O.3   1301  ADP1301    -0.1143
      3  O2B      -15.7820  -14.5040   -2.7320 O.3   1301  ADP1301    -0.1143
      4  O3B      -17.1620  -15.8650   -4.3860 O.2   1301  ADP1301    -0.2221
      5  PA       -19.0780  -13.2920   -4.0820 P.3   1301  ADP1301     0.2231
      6  O1A      -18.5250  -13.5920   -5.4570 O.2   1301  ADP1301    -0.5169
      7  O2A      -20.5100  -13.6990   -3.8470 O.3   1301  ADP1301    -0.4370
      8  O3A      -18.1240  -13.9160   -2.9920 O.3   1301  ADP1301    -0.2261
      9  O5'      -18.7870  -11.7470   -3.8790 O.3   1301  ADP1301    -0.3111
     10  C5'      -19.1800  -11.1000   -2.6290 C.3   1301  ADP1301     0.1813
     11  C4'      -18.1400  -11.2680   -1.5070 C.3   1301  ADP1301     0.1821
     12  O4'      -17.0480  -10.3640   -1.7900 O.3   1301  ADP1301    -0.3135
     13  C3'      -18.6100  -10.8930   -0.0960 C.3   1301  ADP1301     0.2184
     14  O3'      -19.1210  -12.0890    0.5380 O.3   1301  ADP1301    -0.2174
     15  C2'      -17.3520  -10.2740    0.5390 C.3   1301  ADP1301     0.2570
     16  O2'      -16.5470  -11.2230    1.2600 O.3   1301  ADP1301    -0.2130
     17  C1'      -16.5360   -9.7150   -0.6410 C.3   1301  ADP1301     0.3186
     18  N9       -16.7330   -8.2300   -0.8720 N.pl3 1301  ADP1301    -0.1439
     19  C8       -17.8210   -7.4650   -0.5680 C.3   1301  ADP1301     0.3377
     20  N7       -17.6800   -6.1770   -0.9160 N.2   1301  ADP1301    -0.2095
     21  C5       -16.4440   -6.1240   -1.4700 C.2   1301  ADP1301     0.2526
     22  C6       -15.7080   -5.0200   -2.0470 C.2   1301  ADP1301     0.4393
     23  N6       -16.1190   -3.7980   -2.1500 N.pl3 1301  ADP1301     0.2180
     24  N1       -14.4500   -5.3700   -2.5190 N.2   1301  ADP1301     0.0021
     25  C2       -13.9320   -6.6600   -2.4520 C.3   1301  ADP1301     0.5254
     26  N3       -14.6010   -7.6910   -1.9250 N.2   1301  ADP1301    -0.0055
     27  C4       -15.8360   -7.3840   -1.4530 C.2   1301  ADP1301     0.3518
@<TRIPOS>BOND
     1     6     5    2
     2     4     1    2
     3     5     9    1
     4     5     7    1
     5     5     8    1
     6     9    10    1
     7     8     1    1
     8     1     3    1
     9     1     2    1
    10    10    11    1
    11    24    25    1
    12    24    22    2
    13    25    26    1
    14    23    22    1
    15    22    21    1
    16    26    27    2
    17    12    11    1
    18    12    17    1
    19    11    13    1
    20    21    27    1
    21    21    20    2
    22    27    18    1
    23    20    19    1
    24    18    17    1
    25    18    19    1
    26    17    15    1
    27    13    14    1
    28    13    15    1
    29    15    16    1
