@<TRIPOS>MOLECULE
1wnt_NAP_A_1.pdb
 48 52 0 0 0
SMALL
GASTEIGER

@<TRIPOS>ATOM
      1  PA        43.1010   55.3110   70.4430 P.3   245  NAP245      0.2189
      2  O1A       43.6010   55.8500   69.1550 O.2   245  NAP245     -0.5170
      3  O2A       42.9770   56.2360   71.6010 O.3   245  NAP245     -0.4371
      4  O5B       44.0010   54.0410   70.7900 O.3   245  NAP245     -0.3112
      5  C5B       43.8500   52.7790   70.1270 C.3   245  NAP245      0.1813
      6  C4B       45.1280   52.0190   70.4210 C.3   245  NAP245      0.1820
      7  O4B       45.3390   51.0130   69.3950 O.3   245  NAP245     -0.3136
      8  C3B       46.3660   52.8980   70.4430 C.3   245  NAP245      0.2157
      9  O3B       47.1290   52.6530   71.6330 O.3   245  NAP245     -0.2175
     10  C2B       47.1180   52.4930   69.1930 C.3   245  NAP245      0.2314
     11  O2B       48.5450   52.5820   69.3120 O.3   245  NAP245     -0.2630
     12  C1B       46.7220   51.0340   69.0210 C.3   245  NAP245      0.3158
     13  N9A       47.0010   50.5780   67.6420 N.pl3 245  NAP245     -0.1439
     14  C8A       46.5040   51.0990   66.4960 C.3   245  NAP245      0.3377
     15  N7A       46.9430   50.4730   65.4050 N.2   245  NAP245     -0.2095
     16  C5A       47.7080   49.5160   65.9090 C.2   245  NAP245      0.2526
     17  C6A       48.4700   48.5900   65.1750 C.2   245  NAP245      0.4393
     18  N6A       48.4520   48.5480   63.8420 N.pl3 245  NAP245      0.2180
     19  N1A       49.2200   47.7100   65.9020 N.2   245  NAP245      0.0021
     20  C2A       49.2730   47.7330   67.2550 C.3   245  NAP245      0.5254
     21  N3A       48.5810   48.6600   67.9390 N.2   245  NAP245     -0.0055
     22  C4A       47.7760   49.5550   67.2990 C.2   245  NAP245      0.3518
     23  O3        41.6860   54.6010   70.1220 O.3   245  NAP245     -0.2703
     24  PN        40.3380   54.1920   70.9030 P.3   245  NAP245      0.2189
     25  O1N       39.5080   55.4250   71.0200 O.2   245  NAP245     -0.5170
     26  O2N       40.7640   53.4830   72.1350 O.3   245  NAP245     -0.4371
     27  O5D       39.6210   53.0870   69.9710 O.3   245  NAP245     -0.3112
     28  C5D       40.0030   51.7030   69.9100 C.3   245  NAP245      0.1813
     29  C4D       38.9020   50.7740   69.4470 C.3   245  NAP245      0.1799
     30  O4D       37.6170   51.3340   69.8430 O.3   245  NAP245     -0.3327
     31  C3D       38.7650   50.5790   67.9450 C.3   245  NAP245      0.2158
     32  O3D       38.2880   49.3250   67.5120 O.3   245  NAP245     -0.2175
     33  C2D       37.9060   51.7680   67.5510 C.3   245  NAP245      0.2309
     34  O2D       37.4000   51.3820   66.2690 O.3   245  NAP245     -0.2158
     35  C1D       36.8640   51.6420   68.6640 C.3   245  NAP245      0.2263
     36  N1N       35.9170   52.7650   68.8840 N.pl3 245  NAP245     -0.2787
     37  C2N       36.4520   54.0370   69.1600 C.3   245  NAP245      0.1244
     38  C3N       35.5830   55.1090   69.3710 C.2   245  NAP245      0.0544
     39  C7N       36.0640   56.5200   69.6910 C.2   245  NAP245      0.2818
     40  O7N       35.2510   57.4500   69.6160 O.2   245  NAP245     -0.2670
     41  N7N       37.1590   56.5960   70.4450 N.am  245  NAP245     -0.0839
     42  C4N       34.1960   54.8790   69.2990 C.2   245  NAP245      0.0033
     43  C5N       33.6090   53.6550   69.0210 C.2   245  NAP245      0.0157
     44  C6N       34.4800   52.6170   68.8240 C.2   245  NAP245      0.0633
     45  P2B       49.4210   53.7310   68.5910 P.3   245  NAP245      0.5328
     46  O1X       48.6770   55.0120   68.7490 O.3   245  NAP245     -0.1145
     47  O2X       49.4750   53.2050   67.2030 O.2   245  NAP245     -0.2224
     48  O3X       50.7320   53.6940   69.2750 O.3   245  NAP245     -0.1145
@<TRIPOS>BOND
     1    18    17    1
     2    17    19    2
     3    17    16    1
     4    15    16    2
     5    15    14    1
     6    19    20    1
     7    16    22    1
     8    34    33    1
     9    14    13    1
    10    47    45    2
    11    20    21    1
    12    22    13    1
    13    22    21    2
    14    32    31    1
    15    33    31    1
    16    33    35    1
    17    13    12    1
    18    31    29    1
    19    45    46    1
    20    45    48    1
    21    45    11    1
    22    35    36    1
    23    35    30    1
    24    44    36    1
    25    44    43    2
    26    36    37    1
    27    12    10    1
    28    12     7    1
    29    43    42    1
    30     2     1    2
    31    37    38    1
    32    10    11    1
    33    10     8    1
    34    42    38    2
    35    38    39    1
    36     7     6    1
    37    29    30    1
    38    29    28    1
    39    40    39    2
    40    39    41   am
    41    28    27    1
    42    27    24    1
    43    23     1    1
    44    23    24    1
    45     5     6    1
    46     5     4    1
    47     6     8    1
    48     8     9    1
    49     1     4    1
    50     1     3    1
    51    24    25    2
    52    24    26    1
