@<TRIPOS>MOLECULE
1wnv_HEM_A_1.pdb
 43 50 0 0 0
SMALL
GASTEIGER

@<TRIPOS>ATOM
      1 FE         23.9930   -8.9530    0.4180 Fe    901  HEM901      0.0000
      2  CHA       27.2790   -9.9080    0.9130 C.2   901  HEM901      0.0000
      3  CHB       24.5650   -6.1880    2.4320 C.2   901  HEM901      0.0000
      4  CHC       20.7520   -8.0000    0.0450 C.2   901  HEM901      0.0000
      5  CHD       23.5120  -11.4550   -1.7440 C.2   901  HEM901      0.0000
      6  NA        25.6270   -8.1700    1.4610 N.2   901  HEM901      0.0000
      7  C1A       26.8760   -8.7290    1.5480 C.2   901  HEM901      0.0000
      8  C2A       27.6880   -7.9030    2.4280 C.2   901  HEM901      0.0000
      9  C3A       26.9430   -6.8710    2.8440 C.2   901  HEM901      0.0000
     10  C4A       25.6220   -7.0320    2.2760 C.2   901  HEM901      0.0000
     11  CMA       27.3510   -5.7300    3.7600 C.3   901  HEM901      0.0000
     12  CAA       29.1570   -8.2030    2.7430 C.3   901  HEM901      0.0000
     13  CBA       29.2090   -9.0770    3.9710 C.3   901  HEM901      0.0000
     14  CGA       30.6560   -9.2650    4.3240 C.2   901  HEM901      0.0000
     15  O1A       31.4000   -9.8930    3.5110 O.co2 901  HEM901      0.0000
     16  O2A       31.0600   -8.8260    5.4280 O.co2 901  HEM901      0.0000
     17  NB        22.8980   -7.3750    1.1050 N.ar  901  HEM901      0.0000
     18  C1B       23.3040   -6.3610    1.9120 C.ar  901  HEM901      0.0000
     19  C2B       22.1740   -5.5070    2.1800 C.ar  901  HEM901      0.0000
     20  C3B       21.1140   -6.0020    1.5190 C.ar  901  HEM901      0.0000
     21  C4B       21.5460   -7.1970    0.8400 C.ar  901  HEM901      0.0000
     22  CMB       22.1910   -4.2350    3.0170 C.3   901  HEM901      0.0000
     23  CAB       19.6890   -5.4050    1.5370 C.2   901  HEM901      0.0000
     24  CBB       19.1620   -5.1610    2.7780 C.2   901  HEM901      0.0000
     25  NC        22.4210   -9.6040   -0.6300 N.2   901  HEM901      0.0000
     26  C1C       21.1620   -9.0870   -0.6540 C.2   901  HEM901      0.0000
     27  C2C       20.3380   -9.8680   -1.5540 C.2   901  HEM901      0.0000
     28  C3C       21.0980  -10.8370   -2.0530 C.2   901  HEM901      0.0000
     29  C4C       22.4230  -10.6830   -1.4900 C.2   901  HEM901      0.0000
     30  CMC       18.8540   -9.5530   -1.7930 C.3   901  HEM901      0.0000
     31  CAC       20.6710  -11.9330   -3.0500 C.2   901  HEM901      0.0000
     32  CBC       20.6920  -13.2140   -2.6590 C.2   901  HEM901      0.0000
     33  ND        25.2330  -10.4000   -0.3450 N.ar  901  HEM901      0.0000
     34  C1D       24.7340  -11.4080   -1.1360 C.ar  901  HEM901      0.0000
     35  C2D       25.7270  -12.4470   -1.2540 C.ar  901  HEM901      0.0000
     36  C3D       26.9150  -11.9970   -0.4400 C.ar  901  HEM901      0.0000
     37  C4D       26.5080  -10.7090    0.1090 C.ar  901  HEM901      0.0000
     38  CMD       25.6240  -13.7590   -2.0480 C.3   901  HEM901      0.0000
     39  CAD       28.2170  -12.8070   -0.3010 C.3   901  HEM901      0.0000
     40  CBD       28.7370  -12.8040    1.1240 C.3   901  HEM901      0.0000
     41  CGD       30.0330  -12.0110    1.3350 C.2   901  HEM901      0.0000
     42  O1D       30.4060  -11.9060    2.5270 O.co2 901  HEM901      0.0000
     43  O2D       30.7140  -11.4880    0.3980 O.co2 901  HEM901      0.0000
@<TRIPOS>BOND
     1    31    32    2
     2    31    28    1
     3    28    27    2
     4    28    29    1
     5    38    35    1
     6    30    27    1
     7     5    29    1
     8     5    34    2
     9    27    26    1
    10    29    25    2
    11    35    34   ar
    12    35    36   ar
    13    34    33   ar
    14    26    25    1
    15    26     4    2
    16    25     1    1
    17    36    39    1
    18    36    37   ar
    19    33    37   ar
    20    33     1    1
    21    39    40    1
    22     4    21    1
    23    37     2    2
    24    43    41   ar
    25     1    17    1
    26     1     6    1
    27    21    17   ar
    28    21    20   ar
    29     2     7    1
    30    17    18   ar
    31    40    41    1
    32    41    42   ar
    33     6     7    2
    34     6    10    1
    35    20    23    1
    36    20    19   ar
    37    23    24    2
    38     7     8    1
    39    18    19   ar
    40    18     3    1
    41    19    22    1
    42    10     3    2
    43    10     9    1
    44     8    12    1
    45     8     9    2
    46    12    13    1
    47     9    11    1
    48    15    14   ar
    49    13    14    1
    50    14    16   ar
