@<TRIPOS>MOLECULE
1wnw_HEM_A_1.pdb
 43 50 0 0 0
SMALL
GASTEIGER

@<TRIPOS>ATOM
      1 FE         24.2470   -8.8960    0.0820 Fe    901  HEM901      0.0000
      2  CHA       27.6600   -9.6710    0.4900 C.2   901  HEM901      0.0000
      3  CHB       24.7100   -6.2340    2.1680 C.2   901  HEM901      0.0000
      4  CHC       21.0180   -8.1330   -0.3030 C.2   901  HEM901      0.0000
      5  CHD       23.9910  -11.5290   -2.0470 C.2   901  HEM901      0.0000
      6  NA        25.8080   -8.1370    1.0920 N.2   901  HEM901      0.0000
      7  C1A       27.1040   -8.6220    1.2010 C.2   901  HEM901      0.0000
      8  C2A       27.8390   -7.8690    2.1430 C.2   901  HEM901      0.0000
      9  C3A       27.0270   -6.9420    2.6250 C.2   901  HEM901      0.0000
     10  C4A       25.7660   -7.0470    1.9570 C.2   901  HEM901      0.0000
     11  CMA       27.3510   -5.8830    3.6580 C.3   901  HEM901      0.0000
     12  CAA       29.2740   -8.0670    2.6230 C.3   901  HEM901      0.0000
     13  CBA       29.3240   -9.2120    3.6410 C.3   901  HEM901      0.0000
     14  CGA       30.7840   -9.3090    4.0590 C.2   901  HEM901      0.0000
     15  O1A       31.5510   -9.9990    3.3920 O.co2 901  HEM901      0.0000
     16  O2A       31.2180   -8.6850    5.0880 O.co2 901  HEM901      0.0000
     17  NB        23.0430   -7.4160    0.8650 N.ar  901  HEM901      0.0000
     18  C1B       23.4770   -6.3750    1.5730 C.ar  901  HEM901      0.0000
     19  C2B       22.3480   -5.4800    1.7510 C.ar  901  HEM901      0.0000
     20  C3B       21.3560   -6.0260    1.0610 C.ar  901  HEM901      0.0000
     21  C4B       21.7520   -7.2530    0.4850 C.ar  901  HEM901      0.0000
     22  CMB       22.4750   -4.1950    2.5520 C.3   901  HEM901      0.0000
     23  CAB       19.9550   -5.5220    0.8370 C.3   901  HEM901      0.0000
     24  CBB       19.1990   -5.8560    1.8670 C.3   901  HEM901      0.0000
     25  NC        22.7960   -9.7110   -0.9470 N.2   901  HEM901      0.0000
     26  C1C       21.5130   -9.2190   -0.9890 C.2   901  HEM901      0.0000
     27  C2C       20.7600  -10.0800   -1.8800 C.2   901  HEM901      0.0000
     28  C3C       21.5850  -11.0330   -2.3210 C.2   901  HEM901      0.0000
     29  C4C       22.8900  -10.7980   -1.7700 C.2   901  HEM901      0.0000
     30  CMC       19.2710   -9.9190   -2.1820 C.3   901  HEM901      0.0000
     31  CAC       21.2310  -12.1400   -3.3060 C.2   901  HEM901      0.0000
     32  CBC       21.3650  -13.4150   -2.9340 C.2   901  HEM901      0.0000
     33  ND        25.5470  -10.2440   -0.5900 N.ar  901  HEM901      0.0000
     34  C1D       25.2250  -11.2730   -1.5200 C.ar  901  HEM901      0.0000
     35  C2D       26.3990  -11.9710   -1.8880 C.ar  901  HEM901      0.0000
     36  C3D       27.5460  -11.4110   -1.1040 C.ar  901  HEM901      0.0000
     37  C4D       26.9270  -10.3790   -0.3280 C.ar  901  HEM901      0.0000
     38  CMD       26.5610  -13.1320   -2.8250 C.3   901  HEM901      0.0000
     39  CAD       29.0540  -11.7990   -1.1390 C.3   901  HEM901      0.0000
     40  CBD       29.5910  -12.5890    0.0520 C.3   901  HEM901      0.0000
     41  CGD       29.8840  -11.6670    1.2960 C.2   901  HEM901      0.0000
     42  O1D       30.5490  -10.5950    1.1900 O.co2 901  HEM901      0.0000
     43  O2D       29.5460  -12.0730    2.4480 O.co2 901  HEM901      0.0000
@<TRIPOS>BOND
     1    31    32    2
     2    31    28    1
     3    38    35    1
     4    28    27    2
     5    28    29    1
     6    30    27    1
     7     5    29    1
     8     5    34    2
     9    35    34   ar
    10    35    36   ar
    11    27    26    1
    12    29    25    2
    13    34    33   ar
    14    39    36    1
    15    39    40    1
    16    36    37   ar
    17    26    25    1
    18    26     4    2
    19    25     1    1
    20    33    37   ar
    21    33     1    1
    22    37     2    2
    23     4    21    1
    24    40    41    1
    25     1    17    1
    26     1     6    1
    27    21    17   ar
    28    21    20   ar
    29     2     7    1
    30    23    20    1
    31    23    24    1
    32    17    18   ar
    33    20    19   ar
    34     6     7    2
    35     6    10    1
    36    42    41   ar
    37     7     8    1
    38    41    43   ar
    39    18    19   ar
    40    18     3    1
    41    19    22    1
    42    10     3    2
    43    10     9    1
    44     8    12    1
    45     8     9    2
    46    12    13    1
    47     9    11    1
    48    15    14   ar
    49    13    14    1
    50    14    16   ar
