@<TRIPOS>MOLECULE
1wnx_HEM_A_1.pdb
 43 50 0 0 0
SMALL
GASTEIGER

@<TRIPOS>ATOM
      1 FE        -29.5400    9.7350    1.3250 Fe    901  HEM901      0.0000
      2  CHA      -27.2170   10.7220   -0.9990 C.2   901  HEM901      0.0000
      3  CHB      -30.0980    6.8410   -0.4880 C.2   901  HEM901      0.0000
      4  CHC      -31.7720    8.7980    3.5370 C.2   901  HEM901      0.0000
      5  CHD      -28.6550   12.4440    3.3810 C.2   901  HEM901      0.0000
      6  NA       -28.7700    8.9010   -0.3910 N.ar  901  HEM901      0.0000
      7  C1A      -27.8720    9.5230   -1.2520 C.ar  901  HEM901      0.0000
      8  C2A      -27.7520    8.6730   -2.4260 C.ar  901  HEM901      0.0000
      9  C3A      -28.5460    7.5800   -2.2530 C.ar  901  HEM901      0.0000
     10  C4A      -29.2440    7.7330   -0.9570 C.ar  901  HEM901      0.0000
     11  CMA      -28.7320    6.3710   -3.1870 C.3   901  HEM901      0.0000
     12  CAA      -26.7940    8.9660   -3.6620 C.3   901  HEM901      0.0000
     13  CBA      -27.4570    9.9330   -4.5970 C.3   901  HEM901      0.0000
     14  CGA      -26.4990    9.9730   -5.8150 C.2   901  HEM901      0.0000
     15  O1A      -25.4690   10.6860   -5.6480 O.co2 901  HEM901      0.0000
     16  O2A      -26.8140    9.2650   -6.8390 O.co2 901  HEM901      0.0000
     17  NB       -30.6600    8.1350    1.4390 N.2   901  HEM901      0.0000
     18  C1B      -30.7970    6.9930    0.6880 C.2   901  HEM901      0.0000
     19  C2B      -31.7850    6.0920    1.2240 C.2   901  HEM901      0.0000
     20  C3B      -32.2370    6.6780    2.3270 C.2   901  HEM901      0.0000
     21  C4B      -31.5710    7.9440    2.5060 C.2   901  HEM901      0.0000
     22  CMB      -32.2380    4.7100    0.6910 C.3   901  HEM901      0.0000
     23  CAB      -33.3070    6.0970    3.2240 C.2   901  HEM901      0.0000
     24  CBB      -33.0450    5.9150    4.4670 C.2   901  HEM901      0.0000
     25  NC       -30.0890   10.4510    3.2170 N.ar  901  HEM901      0.0000
     26  C1C      -31.1100    9.9210    3.8940 C.ar  901  HEM901      0.0000
     27  C2C      -31.3340   10.8120    5.0770 C.ar  901  HEM901      0.0000
     28  C3C      -30.4550   11.8130    4.9610 C.ar  901  HEM901      0.0000
     29  C4C      -29.6440   11.6020    3.8160 C.ar  901  HEM901      0.0000
     30  CMC      -32.3830   10.6590    6.2090 C.3   901  HEM901      0.0000
     31  CAC      -30.1730   13.0170    5.8790 C.3   901  HEM901      0.0000
     32  CBC      -29.2540   12.7830    6.8330 C.3   901  HEM901      0.0000
     33  ND       -28.1250   11.2580    1.2370 N.2   901  HEM901      0.0000
     34  C1D      -28.0590   12.3520    2.1170 C.2   901  HEM901      0.0000
     35  C2D      -27.1930   13.3810    1.5500 C.2   901  HEM901      0.0000
     36  C3D      -26.6950   12.8280    0.2210 C.2   901  HEM901      0.0000
     37  C4D      -27.3370   11.5240    0.0860 C.2   901  HEM901      0.0000
     38  CMD      -26.7950   14.7480    2.2020 C.3   901  HEM901      0.0000
     39  CAD      -25.7790   13.6240   -0.7720 C.3   901  HEM901      0.0000
     40  CBD      -24.4100   12.9990   -1.0250 C.3   901  HEM901      0.0000
     41  CGD      -23.5090   12.9130    0.1920 C.2   901  HEM901      0.0000
     42  O1D      -23.9500   13.3060    1.3120 O.co2 901  HEM901      0.0000
     43  O2D      -22.3300   12.4390    0.0480 O.co2 901  HEM901      0.0000
@<TRIPOS>BOND
     1    16    14   ar
     2    14    15   ar
     3    14    13    1
     4    13    12    1
     5    12     8    1
     6    11     9    1
     7     8     9   ar
     8     8     7   ar
     9     9    10   ar
    10     7     2    2
    11     7     6   ar
    12    40    39    1
    13    40    41    1
    14     2    37    1
    15    10     3    2
    16    10     6   ar
    17    39    36    1
    18     3    18    1
    19     6     1    1
    20    43    41   ar
    21    37    36    1
    22    37    33    2
    23    41    42   ar
    24    36    35    2
    25    18    19    1
    26    18    17    2
    27    22    19    1
    28    19    20    2
    29    33     1    1
    30    33    34    1
    31     1    17    1
    32     1    25    1
    33    17    21    1
    34    35    34    1
    35    35    38    1
    36    34     5    2
    37    20    21    1
    38    20    23    1
    39    21     4    2
    40    25    29   ar
    41    25    26   ar
    42    23    24    2
    43     5    29    1
    44     4    26    1
    45    29    28   ar
    46    26    27   ar
    47    28    27   ar
    48    28    31    1
    49    27    30    1
    50    31    32    1
