@<TRIPOS>MOLECULE
1wo2_BGC_A_1.pdb
 12 12 0 0 0
SMALL
GASTEIGER

@<TRIPOS>ATOM
      1  C2        34.2970   19.9610   53.5330 C.3   1992  BGC1992     0.2434
      2  C3        33.7750   20.5460   54.8300 C.3   1992  BGC1992     0.2199
      3  C4        33.5010   19.4180   55.8470 C.3   1992  BGC1992     0.2144
      4  C5        34.6330   18.3560   55.9220 C.3   1992  BGC1992     0.1836
      5  C6        34.0840   17.0400   56.4180 C.3   1992  BGC1992     0.2142
      6  C1        35.5640   19.2030   53.8690 C.3   1992  BGC1992     0.3024
      7  O1        36.1860   18.7720   52.7100 O.3   1992  BGC1992    -0.1869
      8  O2        34.5570   20.9810   52.5840 O.3   1992  BGC1992    -0.2148
      9  O3        32.5780   21.2710   54.5830 O.3   1992  BGC1992    -0.2174
     10  O4        33.3370   20.0420   57.2410 O.3   1992  BGC1992    -0.2176
     11  O5        35.2160   18.0530   54.6310 O.3   1992  BGC1992    -0.3236
     12  O6        33.3810   16.3830   55.3710 O.3   1992  BGC1992    -0.2176
@<TRIPOS>BOND
     1     8     1    1
     2     7     6    1
     3     1     6    1
     4     1     2    1
     5     6    11    1
     6     9     2    1
     7    11     4    1
     8     2     3    1
     9    12     5    1
    10     3     4    1
    11     3    10    1
    12     4     5    1
