@<TRIPOS>MOLECULE
1wo2_GLC_A_1.pdb
 11 11 0 0 0
SMALL
GASTEIGER

@<TRIPOS>ATOM
      1  C1        30.9720   18.9040   62.5750 C.3   1990  GLC1990     0.1777
      2  C2        31.1270   19.7530   63.8360 C.3   1990  GLC1990     0.2141
      3  C3        32.2460   19.1920   64.7120 C.3   1990  GLC1990     0.2173
      4  C4        31.9450   17.7260   65.0420 C.3   1990  GLC1990     0.2142
      5  C5        31.7900   16.9110   63.7540 C.3   1990  GLC1990     0.1810
      6  C6        31.3820   15.4660   63.9910 C.3   1990  GLC1990     0.2141
      7  O2        31.4230   21.1010   63.4870 O.3   1990  GLC1990    -0.2176
      8  O3        32.3530   19.9510   65.9090 O.3   1990  GLC1990    -0.2175
      9  O4        33.0010   17.1840   65.8250 O.3   1990  GLC1990    -0.2176
     10  O5        30.7850   17.5120   62.8910 O.3   1990  GLC1990    -0.3481
     11  O6        30.2410   15.3820   64.8250 O.3   1990  GLC1990    -0.2176
@<TRIPOS>BOND
     1     1    10    1
     2     1     2    1
     3    10     5    1
     4     7     2    1
     5     5     6    1
     6     5     4    1
     7     2     3    1
     8     6    11    1
     9     3     4    1
    10     3     8    1
    11     4     9    1
