@<TRIPOS>MOLECULE
1woa_G2H_A_1.pdb
 10 9 0 0 0
SMALL
GASTEIGER

@<TRIPOS>ATOM
      1  C1        64.9780   48.6780  111.2260 C.2   300  G2H300      0.2399
      2  C2        66.2580   48.3750  111.6100 C.3   300  G2H300      0.2231
      3  C3        67.0720   49.2610  112.6460 C.3   300  G2H300      0.2201
      4  P         67.4700   46.8910  109.6040 P.3   300  G2H300      0.5330
      5  O11       64.1040   48.3520  110.5740 O.2   300  G2H300     -0.2855
      6  O31       66.6260   49.9860  113.8850 O.3   300  G2H300     -0.2172
      7  O1P       67.0590   47.2630  111.1820 O.3   300  G2H300     -0.2620
      8  O2P       68.9220   46.3570  109.6380 O.3   300  G2H300     -0.1145
      9  O3P       67.3760   48.1910  108.7590 O.2   300  G2H300     -0.2224
     10  O4P       66.4530   45.7980  109.1080 O.3   300  G2H300     -0.1145
@<TRIPOS>BOND
     1     9     4    2
     2    10     4    1
     3     4     8    1
     4     4     7    1
     5     5     1    2
     6     7     2    1
     7     1     2    1
     8     2     3    1
     9     3     6    1
