@<TRIPOS>MOLECULE
1wok_CNQ_A_1.pdb
 20 22 0 0 0
SMALL
GASTEIGER

@<TRIPOS>ATOM
      1  C1        12.0690   -4.7890   46.7380 C.ar    1  CNQ1        0.0018
      2  C2        10.8480   -4.1000   46.9430 C.ar    1  CNQ1        0.0213
      3  C3        10.3020   -3.2880   45.9170 C.ar    1  CNQ1        0.1061
      4  C4        10.9960   -3.1530   44.6310 C.ar    1  CNQ1        0.1526
      5  C5        12.2440   -3.8600   44.4230 C.ar    1  CNQ1        0.0876
      6  C6        12.7620   -4.6730   45.4930 C.ar    1  CNQ1        0.0073
      7  N7         9.1070   -2.6100   46.1120 N.2     1  CNQ1       -0.2602
      8  C8         8.5560   -1.8210   45.1440 C.3     1  CNQ1        0.1840
      9  C9         9.1960   -1.6670   43.8870 C.2     1  CNQ1        0.1335
     10  N10       10.4000   -2.3360   43.6600 N.2     1  CNQ1       -0.4025
     11  C11       13.0090   -3.7840   43.1510 C.2     1  CNQ1        0.2867
     12  N12       12.9910   -2.5780   42.5520 N.am    1  CNQ1       -0.0836
     13  O13       13.6160   -4.6940   42.6060 O.2     1  CNQ1       -0.2666
     14  C14        8.6760   -0.8300   42.7570 C.ar    1  CNQ1        0.0274
     15  C15        7.2890   -0.8570   42.4700 C.ar    1  CNQ1        0.0031
     16  C16        6.7440   -0.0860   41.4130 C.ar    1  CNQ1        0.0115
     17  C17        7.6130    0.7180   40.6380 C.ar    1  CNQ1        0.0577
     18  C18        8.9990    0.7620   40.9040 C.ar    1  CNQ1        0.0115
     19  C19        9.5220   -0.0190   41.9690 C.ar    1  CNQ1        0.0031
     20 CL24        6.9770    1.6500   39.3560 Cl      1  CNQ1       -0.0822
@<TRIPOS>BOND
     1    20    17    1
     2    17    18   ar
     3    17    16   ar
     4    18    19   ar
     5    16    15   ar
     6    19    14   ar
     7    15    14   ar
     8    12    11   am
     9    13    11    2
    10    14     9    1
    11    11     5    1
    12    10     9    2
    13    10     4    2
    14     9     8    1
    15     5     4   ar
    16     5     6   ar
    17     4     3   ar
    18     8     7    1
    19     6     1   ar
    20     3     7    2
    21     3     2   ar
    22     1     2   ar
