@<TRIPOS>MOLECULE
1woo_THG_A_1.pdb
 32 34 0 0 0
SMALL
GASTEIGER

@<TRIPOS>ATOM
      1  N3         4.9850   27.7680   11.9130 N.2   2887  THG2887    -0.2474
      2  C2         4.3900   27.3650   10.7180 C.1   2887  THG2887     0.2608
      3  N1         3.6950   26.1950   10.6280 N.2   2887  THG2887    -0.2683
      4  C8A        3.5590   25.3430   11.7000 C.1   2887  THG2887     0.1270
      5  C4A        4.1480   25.6760   13.0330 C.2   2887  THG2887     0.2463
      6  C4         4.9170   26.9950   13.0700 C.1   2887  THG2887     0.2441
      7  N8         2.8540   24.1380   11.6270 N.2   2887  THG2887    -0.2054
      8  C7         2.6170   23.1190   12.6840 C.3   2887  THG2887     0.1634
      9  C6         2.7550   23.7260   14.1160 C.3   2887  THG2887     0.1514
     10  N5         3.9260   24.6820   14.1110 N.2   2887  THG2887    -0.2469
     11  C9         1.4330   24.4400   14.4520 C.3   2887  THG2887     0.1385
     12  N10        1.4180   25.1020   15.7530 N.pl3 2887  THG2887    -0.2355
     13  C4'        0.9350   26.3730   15.8500 C.ar  2887  THG2887     0.0654
     14  C3'       -0.0020   26.7160   16.9110 C.ar  2887  THG2887     0.0162
     15  C2'       -0.5340   28.0710   17.0110 C.ar  2887  THG2887     0.0059
     16  C1'       -0.1190   29.0590   16.0460 C.ar  2887  THG2887     0.0551
     17  C6'        0.8160   28.7000   15.0050 C.ar  2887  THG2887     0.0059
     18  C5'        1.3360   27.3920   14.9020 C.ar  2887  THG2887     0.0162
     19  C11       -0.6150   30.4920   16.0350 C.2   2887  THG2887     0.2652
     20  N         -1.8100   30.7580   16.6550 N.am  2887  THG2887    -0.1918
     21  CA        -2.4360   32.0790   16.7150 C.3   2887  THG2887     0.1986
     22  C         -3.3750   32.0880   17.9150 C.2   2887  THG2887     0.3842
     23  OX2       -3.6300   33.1100   18.5490 O.co2 2887  THG2887    -0.2437
     24  OX1       -3.9440   30.9430   18.2900 O.co2 2887  THG2887    -0.2437
     25  CB        -3.1620   32.1780   15.3590 C.3   2887  THG2887     0.0451
     26  CG        -3.9070   33.4850   15.1290 C.3   2887  THG2887     0.1164
     27  CD        -4.6160   33.5700   13.7820 C.2   2887  THG2887     0.3649
     28  OE1       -5.2330   34.6010   13.5370 O.co2 2887  THG2887    -0.2457
     29  OE2       -4.5880   32.5830   12.8710 O.co2 2887  THG2887    -0.2457
     30  O11        0.0160   31.3930   15.4730 O.2   2887  THG2887    -0.2684
     31  O4         5.4600   27.3650   14.1490 O.2   2887  THG2887    -0.2063
     32  N2         4.4540   28.1190    9.5690 N.pl3 2887  THG2887    -0.0220
@<TRIPOS>BOND
     1    32     2    1
     2     3     2    2
     3     3     4    2
     4     2     1    2
     5     7     4    2
     6     7     8    1
     7     4     5    1
     8     1     6    2
     9     8     9    1
    10    29    27   ar
    11     5     6    1
    12     5    10    2
    13     6    31    2
    14    28    27   ar
    15    27    26    1
    16    10     9    1
    17     9    11    1
    18    11    12    1
    19    18    17   ar
    20    18    13   ar
    21    17    16   ar
    22    26    25    1
    23    25    21    1
    24    30    19    2
    25    12    13    1
    26    13    14   ar
    27    19    16    1
    28    19    20   am
    29    16    15   ar
    30    20    21    1
    31    21    22    1
    32    14    15   ar
    33    22    24   ar
    34    22    23   ar
