@<TRIPOS>MOLECULE
1wop_FFO_A_1.pdb
 34 36 0 0 0
SMALL
GASTEIGER

@<TRIPOS>ATOM
      1  N1         3.6470   26.2540   10.6130 N.2   2887  FFO2887    -0.2723
      2  C2         4.3320   27.4160   10.7100 C.1   2887  FFO2887     0.2603
      3  NA2        4.4310   28.1560    9.5480 N.pl3 2887  FFO2887    -0.0221
      4  N3         4.8970   27.8340   11.9020 N.2   2887  FFO2887    -0.2512
      5  C4         4.7910   27.0870   13.0570 C.1   2887  FFO2887     0.2256
      6  O4         5.3120   27.4760   14.1440 O.2   2887  FFO2887    -0.2106
      7  C4A        4.0300   25.7670   13.0140 C.3   2887  FFO2887     0.2939
      8  N5         3.7770   24.7990   14.1020 N.am  2887  FFO2887    -0.2448
      9  C6         2.6540   23.8030   14.0620 C.3   2887  FFO2887     0.1243
     10  C7         2.6020   23.2090   12.6230 C.3   2887  FFO2887     0.1586
     11  N8         2.7750   24.2430   11.5940 N.2   2887  FFO2887    -0.2090
     12  C8A        3.4730   25.4260   11.6840 C.1   2887  FFO2887     0.1088
     13  C9         1.3050   24.4850   14.3540 C.3   2887  FFO2887     0.1340
     14  N10        1.2370   25.1130   15.6590 N.pl3 2887  FFO2887    -0.2358
     15  C11       -0.1070   29.0790   16.0000 C.ar  2887  FFO2887     0.0551
     16  C12       -0.5480   28.1150   16.9440 C.ar  2887  FFO2887     0.0059
     17  C13       -0.0800   26.7620   16.8280 C.ar  2887  FFO2887     0.0162
     18  C14        0.8210   26.3960   15.7720 C.ar  2887  FFO2887     0.0654
     19  C15        1.2570   27.3850   14.8450 C.ar  2887  FFO2887     0.0162
     20  C16        0.7940   28.7030   14.9630 C.ar  2887  FFO2887     0.0059
     21  C         -0.5720   30.5210   16.0170 C.2   2887  FFO2887     0.2652
     22  O          0.0540   31.4260   15.4560 O.2   2887  FFO2887    -0.2684
     23  N         -1.7430   30.7860   16.6420 N.am  2887  FFO2887    -0.1918
     24  CA        -2.3320   32.1150   16.6940 C.3   2887  FFO2887     0.1986
     25  CB        -3.0750   32.2190   15.3550 C.3   2887  FFO2887     0.0451
     26  CG        -3.7530   33.5580   15.1330 C.3   2887  FFO2887     0.1164
     27  CD        -4.5080   33.6420   13.8080 C.2   2887  FFO2887     0.3649
     28  OE1       -5.0780   34.6970   13.5400 O.co2 2887  FFO2887    -0.2457
     29  OE2       -4.5680   32.6250   12.9390 O.co2 2887  FFO2887    -0.2457
     30  CT        -3.2680   32.1280   17.8820 C.2   2887  FFO2887     0.3842
     31  O1        -3.5970   33.1590   18.4490 O.co2 2887  FFO2887    -0.2437
     32  O2        -3.7540   30.9710   18.3250 O.co2 2887  FFO2887    -0.2437
     33  C5A        4.5530   24.8060   15.1380 C.2   2887  FFO2887     0.3045
     34  O5B        4.4820   24.0740   16.1280 O.2   2887  FFO2887    -0.2649
@<TRIPOS>BOND
     1     3     2    1
     2     1     2    2
     3     1    12    2
     4     2     4    2
     5    11    12    2
     6    11    10    1
     7    12     7    1
     8     4     5    2
     9    10     9    1
    10    29    27   ar
    11     7     5    1
    12     7     8    1
    13     5     6    2
    14    28    27   ar
    15    27    26    1
    16     9     8    1
    17     9    13    1
    18     8    33   am
    19    13    14    1
    20    19    20   ar
    21    19    18   ar
    22    20    15   ar
    23    26    25    1
    24    33    34    2
    25    25    24    1
    26    22    21    2
    27    14    18    1
    28    18    17   ar
    29    15    21    1
    30    15    16   ar
    31    21    23   am
    32    23    24    1
    33    24    30    1
    34    17    16   ar
    35    30    32   ar
    36    30    31   ar
