@<TRIPOS>MOLECULE
1woq_BGC_A_1.pdb
 12 12 0 0 0
SMALL
GASTEIGER

@<TRIPOS>ATOM
      1  C2        60.8480   95.3670   82.1370 C.3   290  BGC290      0.2434
      2  C3        61.2510   95.1660   83.6040 C.3   290  BGC290      0.2199
      3  C4        62.3290   94.0770   83.7080 C.3   290  BGC290      0.2144
      4  C5        63.5020   94.4200   82.7780 C.3   290  BGC290      0.1836
      5  C6        64.5860   93.3600   82.7480 C.3   290  BGC290      0.2142
      6  C1        62.1000   95.6710   81.3100 C.3   290  BGC290      0.3024
      7  O1        61.7750   95.8200   79.9720 O.3   290  BGC290     -0.1869
      8  O2        59.9250   96.4380   82.0320 O.3   290  BGC290     -0.2148
      9  O3        60.1170   94.8030   84.3770 O.3   290  BGC290     -0.2174
     10  O4        62.7930   93.9830   85.0510 O.3   290  BGC290     -0.2176
     11  O5        63.0260   94.5860   81.4240 O.3   290  BGC290     -0.3236
     12  O6        64.0510   92.0790   82.4510 O.3   290  BGC290     -0.2176
@<TRIPOS>BOND
     1     7     6    1
     2     6    11    1
     3     6     1    1
     4    11     4    1
     5     8     1    1
     6     1     2    1
     7    12     5    1
     8     5     4    1
     9     4     3    1
    10     2     3    1
    11     2     9    1
    12     3    10    1
