@<TRIPOS>MOLECULE
1wor_RED_A_1.pdb
 12 11 0 0 0
SMALL
GASTEIGER

@<TRIPOS>ATOM
      1  C1        12.3280   20.2220   24.8500 C.2   900  RED900      0.3649
      2  O1        12.6550   20.3470   26.0320 O.co2 900  RED900     -0.2457
      3  OXT       13.0250   19.6000   24.0640 O.co2 900  RED900     -0.2457
      4  C2        11.0440   20.8310   24.3040 C.3   900  RED900      0.1141
      5  C3        11.1370   21.9320   23.2730 C.3   900  RED900      0.0118
      6  C4        10.1640   21.6410   22.1600 C.3   900  RED900      0.0015
      7  C5        10.2950   22.7770   21.1880 C.3   900  RED900      0.0117
      8  C6         8.9710   23.3010   20.6520 C.3   900  RED900      0.0588
      9  C7         8.2920   22.3480   19.6580 C.3   900  RED900      0.0242
     10  C8         8.5280   22.6170   18.1760 C.3   900  RED900      0.0696
     11  S8         6.9790   22.6290   17.2340 S.3   900  RED900     -0.0821
     12  S6         7.9210   23.6530   22.0690 S.3   900  RED900     -0.0830
@<TRIPOS>BOND
     1    11    10    1
     2    10     9    1
     3     9     8    1
     4     8     7    1
     5     8    12    1
     6     7     6    1
     7     6     5    1
     8     5     4    1
     9     3     1   ar
    10     4     1    1
    11     1     2   ar
