@<TRIPOS>MOLECULE
1wp4_NDP_A_1.pdb
 48 52 0 0 0
SMALL
GASTEIGER

@<TRIPOS>ATOM
      1  PA        84.1220   23.4180   88.3920 P.3   1301  NDP1301     0.2189
      2  O1A       85.1260   22.9850   89.3390 O.3   1301  NDP1301    -0.4371
      3  O2A       83.9080   24.8610   87.9950 O.2   1301  NDP1301    -0.5170
      4  O5B       84.3240   22.5210   87.0430 O.3   1301  NDP1301    -0.3112
      5  C5B       83.4760   22.7350   85.8980 C.3   1301  NDP1301     0.1813
      6  C4B       83.9640   21.7090   84.8730 C.3   1301  NDP1301     0.1820
      7  O4B       83.1220   21.8940   83.6940 O.3   1301  NDP1301    -0.3136
      8  C3B       85.3920   21.8290   84.3840 C.3   1301  NDP1301     0.2157
      9  O3B       85.9290   20.4940   84.1550 O.3   1301  NDP1301    -0.2175
     10  C2B       85.3100   22.5970   83.1280 C.3   1301  NDP1301     0.2314
     11  O2B       86.4110   22.5780   82.2100 O.3   1301  NDP1301    -0.2630
     12  C1B       84.0220   22.0880   82.5980 C.3   1301  NDP1301     0.3158
     13  N9A       83.4280   23.0120   81.5960 N.pl3 1301  NDP1301    -0.1439
     14  C8A       82.9670   24.3400   81.7680 C.3   1301  NDP1301     0.3377
     15  N7A       82.5010   24.8300   80.6430 N.2   1301  NDP1301    -0.2095
     16  C5A       82.6420   23.8500   79.7060 C.2   1301  NDP1301     0.2526
     17  C6A       82.3390   23.7400   78.3170 C.2   1301  NDP1301     0.4393
     18  N6A       81.7820   24.7710   77.6720 N.pl3 1301  NDP1301     0.2180
     19  N1A       82.6170   22.5740   77.6460 N.2   1301  NDP1301     0.0021
     20  C2A       83.1870   21.5090   78.2990 C.3   1301  NDP1301     0.5254
     21  N3A       83.5100   21.5140   79.6140 N.2   1301  NDP1301    -0.0055
     22  C4A       83.2100   22.7260   80.2670 C.2   1301  NDP1301     0.3518
     23  O3        82.7370   22.7840   88.8240 O.3   1301  NDP1301    -0.2703
     24  PN        82.2360   21.8300   90.0130 P.3   1301  NDP1301     0.2189
     25  O1N       82.4620   22.5430   91.2680 O.3   1301  NDP1301    -0.4371
     26  O2N       82.9810   20.5570   89.7280 O.2   1301  NDP1301    -0.5170
     27  O5D       80.6930   21.6430   89.6740 O.3   1301  NDP1301    -0.3112
     28  C5D       80.2180   20.9410   88.4720 C.3   1301  NDP1301     0.1813
     29  C4D       78.6870   20.6190   88.6770 C.3   1301  NDP1301     0.1799
     30  O4D       78.5150   19.8760   89.8890 O.3   1301  NDP1301    -0.3327
     31  C3D       77.8060   21.8680   88.8270 C.3   1301  NDP1301     0.2158
     32  O3D       76.5670   21.6330   88.1420 O.3   1301  NDP1301    -0.2175
     33  C2D       77.6850   22.0590   90.3250 C.3   1301  NDP1301     0.2309
     34  O2D       76.5990   22.9180   90.6510 O.3   1301  NDP1301    -0.2158
     35  C1D       77.5910   20.5430   90.7690 C.3   1301  NDP1301     0.2263
     36  N1N       78.0250   20.2410   92.1810 N.pl3 1301  NDP1301    -0.2787
     37  C2N       79.1930   20.9050   92.7320 C.3   1301  NDP1301     0.1244
     38  C3N       79.5480   20.5490   94.1110 C.2   1301  NDP1301     0.0544
     39  C7N       80.7150   21.1580   94.7700 C.2   1301  NDP1301     0.2818
     40  O7N       80.8750   21.1390   96.0090 O.2   1301  NDP1301    -0.2670
     41  N7N       81.6830   21.7720   94.0430 N.am  1301  NDP1301    -0.0839
     42  C4N       78.7370   19.5980   94.7920 C.2   1301  NDP1301     0.0033
     43  C5N       77.6300   18.9820   94.2430 C.2   1301  NDP1301     0.0157
     44  C6N       77.2700   19.3000   92.9380 C.2   1301  NDP1301     0.0633
     45  P2B       87.7670   23.2870   82.4490 P.3   1301  NDP1301     0.5328
     46  O1X       88.3060   23.3790   81.0800 O.2   1301  NDP1301    -0.2224
     47  O2X       88.5950   22.4370   83.3520 O.3   1301  NDP1301    -0.1145
     48  O3X       87.5330   24.6590   83.0550 O.3   1301  NDP1301    -0.1145
@<TRIPOS>BOND
     1    19    20    1
     2    19    17    2
     3    18    17    1
     4    20    21    1
     5    17    16    1
     6    21    22    2
     7    16    22    1
     8    16    15    2
     9    22    13    1
    10    15    14    1
    11    46    45    2
    12    13    14    1
    13    13    12    1
    14    11    45    1
    15    11    10    1
    16    45    48    1
    17    45    47    1
    18    12    10    1
    19    12     7    1
    20    10     8    1
    21     7     6    1
    22     9     8    1
    23     8     6    1
    24     6     5    1
    25     5     4    1
    26     4     1    1
    27     3     1    2
    28    32    31    1
    29     1    23    1
    30     1     2    1
    31    28    29    1
    32    28    27    1
    33    29    31    1
    34    29    30    1
    35    23    24    1
    36    31    33    1
    37    27    24    1
    38    26    24    2
    39    30    35    1
    40    24    25    1
    41    33    34    1
    42    33    35    1
    43    35    36    1
    44    36    37    1
    45    36    44    1
    46    37    38    1
    47    44    43    2
    48    41    39   am
    49    38    39    1
    50    38    42    2
    51    43    42    1
    52    39    40    2
