@<TRIPOS>MOLECULE
1wpc_ACI_A_1.pdb
 12 12 0 0 0
SMALL
GASTEIGER

@<TRIPOS>ATOM
      1  C1        22.5620  -46.3610   74.0900 C.3   601  ACI601      0.1249
      2  C2        23.0630  -47.6350   73.4170 C.3   601  ACI601      0.2020
      3  C3        22.1080  -48.0380   72.3010 C.3   601  ACI601      0.2137
      4  C4        20.7470  -48.3870   72.8950 C.3   601  ACI601      0.1872
      5  C5        20.1940  -47.2640   73.7660 C.3   601  ACI601      0.0676
      6  C6        18.7250  -47.1700   74.1420 C.3   601  ACI601      0.1847
      7  C7        21.0950  -46.4460   74.4970 C.3   601  ACI601      0.0270
      8  N1        22.7870  -45.2120   73.2310 N.3   601  ACI601     -0.1301
      9  O2        24.3610  -47.4140   72.8850 O.3   601  ACI601     -0.2188
     10  O3        22.6270  -49.1680   71.6150 O.3   601  ACI601     -0.2176
     11  O4        19.8300  -48.6670   71.8460 O.3   601  ACI601     -0.2202
     12  O6        18.2710  -48.4280   74.6200 O.3   601  ACI601     -0.2203
@<TRIPOS>BOND
     1    10     3    1
     2    11     4    1
     3     3     4    1
     4     3     2    1
     5     9     2    1
     6     4     5    1
     7     8     1    1
     8     2     1    1
     9     5     6    1
    10     5     7    1
    11     1     7    1
    12     6    12    1
