@<TRIPOS>MOLECULE
1wpc_GAL_A_1.pdb
 12 12 0 0 0
SMALL
GASTEIGER

@<TRIPOS>ATOM
      1  C1        30.8190  -20.7340   60.7960 C.3   609  GAL609      0.3024
      2  C2        31.8870  -20.8660   61.8870 C.3   609  GAL609      0.2434
      3  C3        31.9010  -22.2900   62.4330 C.3   609  GAL609      0.2199
      4  C4        30.4950  -22.7050   62.8940 C.3   609  GAL609      0.2144
      5  C5        29.4850  -22.4720   61.7590 C.3   609  GAL609      0.1836
      6  C6        28.0500  -22.7640   62.1610 C.3   609  GAL609      0.2142
      7  O1        30.7500  -19.4180   60.3690 O.3   609  GAL609     -0.1869
      8  O2        33.1660  -20.5550   61.3560 O.3   609  GAL609     -0.2148
      9  O3        32.8120  -22.3660   63.5210 O.3   609  GAL609     -0.2174
     10  O4        30.5000  -24.1010   63.2470 O.3   609  GAL609     -0.2176
     11  O5        29.5340  -21.0970   61.3200 O.3   609  GAL609     -0.3236
     12  O6        27.7990  -22.3660   63.5010 O.3   609  GAL609     -0.2176
@<TRIPOS>BOND
     1     7     1    1
     2     1    11    1
     3     1     2    1
     4    11     5    1
     5     8     2    1
     6     5     6    1
     7     5     4    1
     8     2     3    1
     9     6    12    1
    10     3     4    1
    11     3     9    1
    12     4    10    1
