@<TRIPOS>MOLECULE
1wpc_GLC_A_1.pdb
 11 11 0 0 0
SMALL
GASTEIGER

@<TRIPOS>ATOM
      1  C1        23.9520  -37.2660   71.0930 C.3   603  GLC603      0.1777
      2  C2        25.0190  -37.3590   72.1900 C.3   603  GLC603      0.2141
      3  C3        25.4510  -38.8120   72.3970 C.3   603  GLC603      0.2173
      4  C4        24.2340  -39.7010   72.6430 C.3   603  GLC603      0.2142
      5  C5        23.2330  -39.5400   71.4940 C.3   603  GLC603      0.1810
      6  C6        21.9510  -40.3200   71.7160 C.3   603  GLC603      0.2141
      7  O2        26.1430  -36.5770   71.8140 O.3   603  GLC603     -0.2176
      8  O3        26.3340  -38.9000   73.5040 O.3   603  GLC603     -0.2175
      9  O4        24.6560  -41.0730   72.7340 O.3   603  GLC603     -0.2176
     10  O5        22.8640  -38.1520   71.3540 O.3   603  GLC603     -0.3481
     11  O6        21.2190  -40.4540   70.5050 O.3   603  GLC603     -0.2176
@<TRIPOS>BOND
     1    11     6    1
     2     1    10    1
     3     1     2    1
     4    10     5    1
     5     5     6    1
     6     5     4    1
     7     7     2    1
     8     2     3    1
     9     3     4    1
    10     3     8    1
    11     4     9    1
