@<TRIPOS>MOLECULE
1wpg_ADP_A_1.pdb
 27 29 0 0 0
SMALL
GASTEIGER

@<TRIPOS>ATOM
      1  PB        71.4930   69.1460  -13.1380 P.3   1002  ADP1002     0.5373
      2  O1B       72.1110   70.4780  -13.4150 O.3   1002  ADP1002    -0.1143
      3  O2B       71.9460   68.0270  -14.2400 O.2   1002  ADP1002    -0.2221
      4  O3B       71.8700   68.6860  -11.7610 O.3   1002  ADP1002    -0.1143
      5  PA        68.8440   70.3840  -13.1990 P.3   1002  ADP1002     0.2231
      6  O1A       68.7600   71.0740  -14.4920 O.2   1002  ADP1002    -0.5169
      7  O2A       67.5460   69.7900  -12.8290 O.3   1002  ADP1002    -0.4370
      8  O3A       69.9320   69.2270  -13.2730 O.3   1002  ADP1002    -0.2261
      9  O5'       69.4120   71.3680  -12.0410 O.3   1002  ADP1002    -0.3111
     10  C5'       69.3500   70.9540  -10.6770 C.3   1002  ADP1002     0.1813
     11  C4'       69.9050   71.9990   -9.6830 C.3   1002  ADP1002     0.1821
     12  O4'       68.8730   72.6540   -8.9150 O.3   1002  ADP1002    -0.3135
     13  C3'       70.8610   71.3660   -8.7090 C.3   1002  ADP1002     0.2184
     14  O3'       72.2500   71.5300   -9.0970 O.3   1002  ADP1002    -0.2174
     15  C2'       70.5510   71.9510   -7.3290 C.3   1002  ADP1002     0.2570
     16  O2'       71.5560   72.8700   -6.8710 O.3   1002  ADP1002    -0.2130
     17  C1'       69.1730   72.4310   -7.5380 C.3   1002  ADP1002     0.3186
     18  N9        68.1030   71.6390   -6.8220 N.pl3 1002  ADP1002    -0.1439
     19  C8        67.7500   70.3580   -7.1730 C.3   1002  ADP1002     0.3377
     20  N7        66.7620   69.9200   -6.3600 N.2   1002  ADP1002    -0.2095
     21  C5        66.4620   70.8790   -5.4980 C.2   1002  ADP1002     0.2526
     22  C6        65.5530   71.0730   -4.4090 C.2   1002  ADP1002     0.4393
     23  N6        64.6780   70.1040   -4.0410 N.pl3 1002  ADP1002     0.2180
     24  N1        65.5390   72.2780   -3.7090 N.2   1002  ADP1002     0.0021
     25  C2        66.3850   73.3150   -4.0130 C.3   1002  ADP1002     0.5254
     26  N3        67.2560   73.1480   -5.0450 N.2   1002  ADP1002    -0.0055
     27  C4        67.3410   71.9820   -5.7940 C.2   1002  ADP1002     0.3518
@<TRIPOS>BOND
     1     6     5    2
     2     3     1    2
     3     2     1    1
     4     8     5    1
     5     8     1    1
     6     5     7    1
     7     5     9    1
     8     1     4    1
     9     9    10    1
    10    10    11    1
    11    11    12    1
    12    11    13    1
    13    14    13    1
    14    12    17    1
    15    13    15    1
    16    17    15    1
    17    17    18    1
    18    15    16    1
    19    19    18    1
    20    19    20    1
    21    18    27    1
    22    20    21    2
    23    27    21    1
    24    27    26    2
    25    21    22    1
    26    26    25    1
    27    22    23    1
    28    22    24    2
    29    25    24    1
