@<TRIPOS>MOLECULE
1wpg_TG1_A_1.pdb
 46 48 0 0 0
SMALL
GASTEIGER

@<TRIPOS>ATOM
      1  C34      102.7420   21.9860  -21.9410 C.3   1003  TG11003     0.0474
      2  C11      102.1180   20.5920  -21.5990 C.3   1003  TG11003     0.2470
      3  C7       103.1590   19.5240  -21.0730 C.3   1003  TG11003     0.2380
      4  C8       103.5460   19.6510  -19.5190 C.3   1003  TG11003     0.2067
      5  C9       104.6080   18.6630  -18.9760 C.3   1003  TG11003     0.0869
      6  C10      104.4020   17.0970  -19.1210 C.3   1003  TG11003     0.1465
      7  C1       104.3440   16.5510  -20.7020 C.3   1003  TG11003     0.1022
      8  C2       104.6150   14.9990  -20.9130 C.3   1003  TG11003     0.2195
      9  O1       105.6360   14.7830  -21.9270 O.3   1003  TG11003    -0.4477
     10  C13      106.6570   13.8560  -21.7230 C.2   1003  TG11003     0.3170
     11  O2       106.9580   13.3320  -20.6570 O.2   1003  TG11003    -0.2501
     12  C14      107.3500   13.5640  -23.0580 C.3   1003  TG11003     0.1096
     13  C15      107.1280   12.1610  -23.6400 C.3   1003  TG11003     0.0116
     14  C16      107.7670   10.9670  -22.8920 C.3   1003  TG11003     0.0006
     15  C17      106.9860    9.6440  -23.0820 C.3   1003  TG11003     0.0000
     16  C18      107.9180    8.4160  -23.2010 C.3   1003  TG11003     0.0000
     17  C19      107.2360    7.0420  -23.0670 C.3   1003  TG11003     0.0000
     18  C20      107.7340    6.2920  -21.8330 C.3   1003  TG11003     0.0000
     19  C3       103.3440   14.3990  -21.5440 C.3   1003  TG11003     0.2271
     20  O3       102.7820   13.4940  -20.5060 O.3   1003  TG11003    -0.4414
     21  C21      102.5780   12.2040  -20.8550 C.2   1003  TG11003     0.3372
     22  O4       102.5380   11.6720  -22.0690 O.2   1003  TG11003    -0.2453
     23  C22      102.7960   11.2470  -19.6470 C.2   1003  TG11003     0.0495
     24  C23      104.1030   10.4560  -19.8050 C.3   1003  TG11003     0.0375
     25  C24      102.0710   11.0580  -18.5420 C.2   1003  TG11003    -0.0236
     26  C25      100.7760   11.7220  -18.0980 C.3   1003  TG11003     0.0306
     27  C4       102.4500   15.6200  -21.8400 C.2   1003  TG11003    -0.0052
     28  C26      101.1110   15.4060  -22.5100 C.3   1003  TG11003     0.0296
     29  C5       103.0010   16.7870  -21.4260 C.2   1003  TG11003     0.0000
     30  C6       102.3800   18.2170  -21.5050 C.3   1003  TG11003     0.2211
     31  O5       101.9330   18.5810  -22.8140 O.3   1003  TG11003    -0.4435
     32  C12      101.5480   19.8750  -22.8030 C.2   1003  TG11003     0.3477
     33  O12      100.8390   20.4080  -23.6550 O.2   1003  TG11003    -0.2473
     34  C31      103.2120   16.5880  -18.2590 C.3   1003  TG11003     0.0443
     35  O9       105.4380   16.4410  -18.2760 O.3   1003  TG11003    -0.4552
     36  C32      106.7890   16.4070  -18.2870 C.2   1003  TG11003     0.3173
     37  O10      107.5110   16.8490  -19.1660 O.2   1003  TG11003    -0.2501
     38  C33      107.2950   15.7020  -17.1030 C.3   1003  TG11003     0.1212
     39  O7       102.3330   19.6150  -18.6600 O.3   1003  TG11003    -0.4493
     40  C27      101.8720   20.7520  -17.9880 C.2   1003  TG11003     0.3169
     41  O8       102.3220   21.8880  -18.0830 O.2   1003  TG11003    -0.2501
     42  C28      100.7120   20.3480  -17.0780 C.3   1003  TG11003     0.1096
     43  C29       99.3450   20.9310  -17.4760 C.3   1003  TG11003     0.0116
     44  C30       98.2590   20.4570  -16.5130 C.3   1003  TG11003     0.0006
     45  O6       104.3800   19.6120  -21.9020 O.3   1003  TG11003    -0.2147
     46  O11      100.9630   20.8300  -20.8010 O.3   1003  TG11003    -0.2114
@<TRIPOS>BOND
     1    33    32    2
     2    13    12    1
     3    13    14    1
     4    16    15    1
     5    16    17    1
     6    15    14    1
     7    17    18    1
     8    12    10    1
     9    31    32    1
    10    31    30    1
    11    32     2    1
    12    28    27    1
    13    22    21    2
    14     1     2    1
    15     9    10    1
    16     9     8    1
    17    45     3    1
    18    27    19    1
    19    27    29    2
    20    10    11    2
    21     2     3    1
    22     2    46    1
    23    19     8    1
    24    19    20    1
    25    30    29    1
    26    30     3    1
    27    29     7    1
    28     3     4    1
    29     8     7    1
    30    21    20    1
    31    21    23    1
    32     7     6    1
    33    24    23    1
    34    23    25    2
    35     4     5    1
    36     4    39    1
    37    37    36    2
    38     6     5    1
    39     6    35    1
    40     6    34    1
    41    39    40    1
    42    25    26    1
    43    36    35    1
    44    36    38    1
    45    41    40    2
    46    40    42    1
    47    43    42    1
    48    43    44    1
