@<TRIPOS>MOLECULE
1wpl_HBI_A_1.pdb
 17 18 0 0 0
SMALL
GASTEIGER

@<TRIPOS>ATOM
      1  N1        -4.9370    6.2590   32.8360 N.2   1003  HBI1003    -0.2672
      2  N2        -2.8430    5.4060   32.3420 N.pl3 1003  HBI1003    -0.0220
      3  C2        -3.7460    5.8810   33.3120 C.1   1003  HBI1003     0.2609
      4  N3        -3.3570    5.9170   34.6120 N.2   1003  HBI1003    -0.2466
      5  C4        -4.2410    6.3650   35.5390 C.1   1003  HBI1003     0.2569
      6  O4        -3.8720    6.4110   36.8430 O.2   1003  HBI1003    -0.2052
      7  C4A       -5.5310    6.7910   35.1710 C.2   1003  HBI1003     0.2989
      8  C8A       -5.8390    6.7070   33.7290 C.1   1003  HBI1003     0.1401
      9  N8        -7.1360    7.1210   33.2230 N.2   1003  HBI1003    -0.1992
     10  C7        -8.1360    7.6280   34.2800 C.3   1003  HBI1003     0.1940
     11  C6        -7.6870    7.6540   35.7950 C.2   1003  HBI1003     0.1466
     12  N5        -6.4860    7.2590   36.1290 N.2   1003  HBI1003    -0.3830
     13  C9        -8.6370    8.1330   36.8930 C.3   1003  HBI1003     0.2313
     14  O9        -8.7210    9.5870   36.8170 O.3   1003  HBI1003    -0.2130
     15  C10      -10.0930    7.5060   36.7950 C.3   1003  HBI1003     0.1888
     16  O10      -10.1200    6.0250   36.8360 O.3   1003  HBI1003    -0.2200
     17  C11      -10.9840    8.0550   37.9530 C.3   1003  HBI1003     0.0387
@<TRIPOS>BOND
     1     2     3    1
     2     1     3    2
     3     1     8    2
     4     9     8    2
     5     9    10    1
     6     3     4    2
     7     8     7    1
     8    10    11    1
     9     4     5    2
    10     7     5    1
    11     7    12    2
    12     5     6    2
    13    11    12    2
    14    11    13    1
    15    15    16    1
    16    15    13    1
    17    15    17    1
    18    14    13    1
