@<TRIPOS>MOLECULE
1wpl_3PO_A_1.pdb
 13 12 0 0 0
SMALL
GASTEIGER

@<TRIPOS>ATOM
      1  PG         5.4420   23.2740   16.8820 P.3   2005  3PO2005     0.5373
      2  O1G        6.6590   23.9360   16.3750 O.2   2005  3PO2005    -0.2221
      3  O2G        5.4500   21.8050   16.7300 O.3   2005  3PO2005    -0.1143
      4  O3G        5.1920   23.7070   18.3280 O.3   2005  3PO2005    -0.1143
      5  PB         3.4090   23.0430   14.7020 P.3   2005  3PO2005     0.2317
      6  O1B        2.7170   21.8140   15.2220 O.3   2005  3PO2005    -0.4368
      7  O2B        4.3500   22.8870   13.5760 O.2   2005  3PO2005    -0.5167
      8  O3B        4.1800   23.7710   15.9660 O.3   2005  3PO2005    -0.2257
      9  PA         0.6980   24.3170   14.7790 P.3   2005  3PO2005     0.5373
     10  O1A       -0.0910   23.1780   14.2320 O.3   2005  3PO2005    -0.1143
     11  O2A        0.5770   24.6580   16.2330 O.3   2005  3PO2005    -0.1143
     12  O3A        2.2450   24.0620   14.3730 O.3   2005  3PO2005    -0.2257
     13  O5'        0.4160   25.5860   13.8940 O.2   2005  3PO2005    -0.2221
@<TRIPOS>BOND
     1     7     5    2
     2    13     9    2
     3    10     9    1
     4    12     5    1
     5    12     9    1
     6     5     6    1
     7     5     8    1
     8     9    11    1
     9     8     1    1
    10     2     1    2
    11     3     1    1
    12     1     4    1
