@<TRIPOS>MOLECULE
1wpq_NAD_A_1.pdb
 44 48 0 0 0
SMALL
GASTEIGER

@<TRIPOS>ATOM
      1  PA        17.3150   66.5880 -228.9370 P.3   3001  NAD3001     0.2189
      2  O1A       18.0960   67.4250 -229.8560 O.2   3001  NAD3001    -0.5170
      3  O2A       16.9120   65.2310 -229.2170 O.3   3001  NAD3001    -0.4371
      4  O5B       16.8190   67.1940 -227.5280 O.3   3001  NAD3001    -0.3112
      5  C5B       17.0000   68.4680 -226.9400 C.3   3001  NAD3001     0.1813
      6  C4B       17.4500   68.1160 -225.5370 C.3   3001  NAD3001     0.1821
      7  O4B       18.1020   69.2670 -224.9350 O.3   3001  NAD3001    -0.3135
      8  C3B       16.3660   67.6030 -224.5340 C.3   3001  NAD3001     0.2184
      9  O3B       16.7560   66.3510 -224.0070 O.3   3001  NAD3001    -0.2174
     10  C2B       16.3540   68.6840 -223.4010 C.3   3001  NAD3001     0.2570
     11  O2B       16.4340   68.2300 -222.0720 O.3   3001  NAD3001    -0.2130
     12  C1B       17.6210   69.4610 -223.6400 C.3   3001  NAD3001     0.3186
     13  N9A       17.5280   70.8990 -223.3820 N.pl3 3001  NAD3001    -0.1439
     14  C8A       16.6120   71.8210 -223.8680 C.3   3001  NAD3001     0.3377
     15  N7A       16.8680   73.0120 -223.3690 N.2   3001  NAD3001    -0.2095
     16  C5A       17.9640   72.8940 -222.5360 C.2   3001  NAD3001     0.2526
     17  C6A       18.7050   73.8100 -221.7140 C.2   3001  NAD3001     0.4393
     18  N6A       18.3360   75.0930 -221.6580 N.pl3 3001  NAD3001     0.2180
     19  N1A       19.8070   73.3380 -220.9760 N.2   3001  NAD3001     0.0021
     20  C2A       20.2010   72.0150 -221.0190 C.3   3001  NAD3001     0.5254
     21  N3A       19.4900   71.1390 -221.8000 N.2   3001  NAD3001    -0.0055
     22  C4A       18.3880   71.5590 -222.5520 C.2   3001  NAD3001     0.3518
     23  O3        18.6180   65.9610 -228.5050 O.3   3001  NAD3001    -0.2703
     24  PN        19.8850   64.7010 -228.9630 P.3   3001  NAD3001     0.2189
     25  O1N       19.3970   64.0950 -230.2100 O.2   3001  NAD3001    -0.5170
     26  O2N       19.9880   63.7370 -227.7750 O.3   3001  NAD3001    -0.4371
     27  O5D       21.3070   65.3870 -229.2610 O.3   3001  NAD3001    -0.3112
     28  C5D       22.4790   65.1610 -228.5160 C.3   3001  NAD3001     0.1813
     29  C4D       23.6490   65.2500 -229.4850 C.3   3001  NAD3001     0.1799
     30  O4D       23.6150   63.9570 -230.1150 O.3   3001  NAD3001    -0.3327
     31  C3D       23.5530   66.2420 -230.5770 C.3   3001  NAD3001     0.2158
     32  O3D       24.6360   67.0690 -230.5470 O.3   3001  NAD3001    -0.2175
     33  C2D       23.4610   65.4480 -231.9160 C.3   3001  NAD3001     0.2309
     34  O2D       24.2650   65.8940 -232.9720 O.3   3001  NAD3001    -0.2158
     35  C1D       23.9020   64.0650 -231.5250 C.3   3001  NAD3001     0.2263
     36  N1N       23.2870   62.9260 -232.2720 N.pl3 3001  NAD3001    -0.2787
     37  C2N       21.8070   62.8540 -232.5130 C.3   3001  NAD3001     0.1244
     38  C3N       21.3080   61.7670 -233.2230 C.2   3001  NAD3001     0.0544
     39  C7N       19.7870   61.7120 -233.4670 C.2   3001  NAD3001     0.2818
     40  O7N       19.3430   60.7640 -234.1130 O.2   3001  NAD3001    -0.2670
     41  N7N       18.9140   62.6350 -233.0120 N.am  3001  NAD3001    -0.0839
     42  C4N       22.2050   60.6200 -233.7780 C.2   3001  NAD3001     0.0033
     43  C5N       23.6880   60.7380 -233.4970 C.2   3001  NAD3001     0.0157
     44  C6N       24.2310   61.9030 -232.7450 C.2   3001  NAD3001     0.0633
@<TRIPOS>BOND
     1    40    39    2
     2    42    43    1
     3    42    38    2
     4    43    44    2
     5    39    38    1
     6    39    41   am
     7    38    37    1
     8    34    33    1
     9    44    36    1
    10    37    36    1
    11    36    35    1
    12    33    35    1
    13    33    31    1
    14    35    30    1
    15    31    32    1
    16    31    29    1
    17    25    24    2
    18    30    29    1
    19     2     1    2
    20    29    28    1
    21    27    24    1
    22    27    28    1
    23     3     1    1
    24    24    23    1
    25    24    26    1
    26     1    23    1
    27     1     4    1
    28     4     5    1
    29     5     6    1
    30     6     7    1
    31     6     8    1
    32     7    12    1
    33     8     9    1
    34     8    10    1
    35    14    13    1
    36    14    15    1
    37    12    10    1
    38    12    13    1
    39    10    11    1
    40    13    22    1
    41    15    16    2
    42    22    16    1
    43    22    21    2
    44    16    17    1
    45    21    20    1
    46    17    18    1
    47    17    19    2
    48    20    19    1
