@<TRIPOS>MOLECULE
1wpq_13P_A_1.pdb
 10 9 0 0 0
SMALL
GASTEIGER

@<TRIPOS>ATOM
      1  P         20.0730   64.8070 -237.8950 P.3   2002  13P2002     0.5330
      2  O1P       20.2340   64.6050 -239.3820 O.2   2002  13P2002    -0.2224
      3  O2P       18.7890   64.4900 -237.2280 O.3   2002  13P2002    -0.1145
      4  O3P       20.5540   66.2080 -237.5740 O.3   2002  13P2002    -0.1145
      5  O1        21.0640   63.7890 -237.2920 O.3   2002  13P2002    -0.2621
      6  C1        22.2540   64.2650 -236.5250 C.3   2002  13P2002     0.2204
      7  C2        22.8480   62.9610 -236.3500 C.2   2002  13P2002     0.2140
      8  O2        22.2350   61.9280 -236.2560 O.2   2002  13P2002    -0.2906
      9  C3        24.3270   62.9100 -236.2890 C.3   2002  13P2002     0.2485
     10  O3        24.7290   61.4960 -236.1220 O.3   2002  13P2002    -0.2118
@<TRIPOS>BOND
     1     2     1    2
     2     1     4    1
     3     1     5    1
     4     1     3    1
     5     5     6    1
     6     6     7    1
     7     7     9    1
     8     7     8    2
     9     9    10    1
