@<TRIPOS>MOLECULE
1wpr_PMS_A_1.pdb
 10 10 0 0 0
SMALL
GASTEIGER

@<TRIPOS>ATOM
      1  C         52.9260   49.0360   72.0100 C.3   1001  PMS1001     0.1742
      2  S         52.4220   49.3230   70.2780 S.3   1001  PMS1001    -0.0138
      3  C1        54.4170   49.0350   72.1430 C.ar  1001  PMS1001     0.0010
      4  C2        55.1780   48.0260   71.5740 C.ar  1001  PMS1001    -0.0026
      5  C3        56.5700   48.0490   71.6730 C.ar  1001  PMS1001    -0.0003
      6  C4        57.2170   49.0920   72.3530 C.ar  1001  PMS1001    -0.0000
      7  C5        56.4620   50.1060   72.9290 C.ar  1001  PMS1001    -0.0003
      8  C6        55.0640   50.0710   72.8200 C.ar  1001  PMS1001    -0.0026
      9  O2S       53.0860   50.5280   69.7250 O.3   1001  PMS1001    -0.0778
     10  O1S       52.7960   48.1380   69.4290 O.3   1001  PMS1001    -0.0778
@<TRIPOS>BOND
     1    10     2    1
     2     9     2    1
     3     2     1    1
     4     4     5   ar
     5     4     3   ar
     6     5     6   ar
     7     1     3    1
     8     3     8   ar
     9     6     7   ar
    10     8     7   ar
