@<TRIPOS>MOLECULE
1wpu_HIS_A_1.pdb
 11 11 0 0 0
SMALL
GASTEIGER

@<TRIPOS>ATOM
      1  N         64.7780  -12.0950   -7.0150 N.3   2001  HIS2001    -0.1204
      2  CA        65.5130  -10.8790   -7.4500 C.3   2001  HIS2001     0.1999
      3  C         65.2610   -9.6670   -6.5610 C.2   2001  HIS2001     0.3822
      4  O         64.8410   -9.8590   -5.4060 O.co2 2001  HIS2001    -0.2440
      5  CB        65.1540  -10.5840   -8.9020 C.3   2001  HIS2001     0.0740
      6  CG        65.5680  -11.6780   -9.8350 C.2   2001  HIS2001     0.0651
      7  ND1       64.9630  -12.9140   -9.8470 N.2   2001  HIS2001    -0.2310
      8  CD2       66.5950  -11.7500  -10.7150 C.3   2001  HIS2001     0.1683
      9  CE1       65.6010  -13.7050  -10.6920 C.2   2001  HIS2001     0.1939
     10  NE2       66.5960  -13.0230  -11.2300 N.2   2001  HIS2001    -0.2440
     11  OXT       65.5030   -8.5350   -7.0090 O.co2 2001  HIS2001    -0.2440
@<TRIPOS>BOND
     1    10     8    1
     2    10     9    2
     3     8     6    1
     4     9     7    1
     5     7     6    2
     6     6     5    1
     7     5     2    1
     8     2     1    1
     9     2     3    1
    10    11     3   ar
    11     3     4   ar
