@<TRIPOS>MOLECULE
1wpv_HIS_A_1.pdb
 11 11 0 0 0
SMALL
GASTEIGER

@<TRIPOS>ATOM
      1  N         46.8410    2.8210   28.4720 N.3   1001  HIS1001    -0.1204
      2  CA        46.8530    3.2700   27.0530 C.3   1001  HIS1001     0.1999
      3  C         46.7870    2.1110   26.0610 C.2   1001  HIS1001     0.3822
      4  O         46.1660    1.0810   26.3910 O.co2 1001  HIS1001    -0.2440
      5  CB        48.1010    4.1190   26.8110 C.3   1001  HIS1001     0.0740
      6  CG        48.1170    5.3840   27.6070 C.2   1001  HIS1001     0.0651
      7  ND1       48.1250    5.3950   28.9860 N.2   1001  HIS1001    -0.2310
      8  CD2       48.0530    6.6800   27.2210 C.3   1001  HIS1001     0.1683
      9  CE1       48.0610    6.6430   29.4140 C.2   1001  HIS1001     0.1939
     10  NE2       48.0160    7.4420   28.3630 N.2   1001  HIS1001    -0.2440
     11  OXT       47.3390    2.2430   24.9530 O.co2 1001  HIS1001    -0.2440
@<TRIPOS>BOND
     1    11     3   ar
     2     3     4   ar
     3     3     2    1
     4     5     2    1
     5     5     6    1
     6     2     1    1
     7     8     6    1
     8     8    10    1
     9     6     7    2
    10    10     9    2
    11     7     9    1
