@<TRIPOS>MOLECULE
1wpy_BTN_A_1.pdb
 16 17 0 0 0
SMALL
GASTEIGER

@<TRIPOS>ATOM
      1  C11      -19.0040  -10.8540   -7.0780 C.2   1301  BTN1301     0.3649
      2  O11      -19.5680  -11.7320   -6.3900 O.co2 1301  BTN1301    -0.2457
      3  O12      -17.7450  -10.6640   -7.0230 O.co2 1301  BTN1301    -0.2457
      4  C10      -19.7910   -9.9770   -7.9970 C.3   1301  BTN1301     0.1141
      5  C9       -19.9970   -8.5790   -7.4970 C.3   1301  BTN1301     0.0118
      6  C8       -20.6420   -7.6850   -8.5270 C.3   1301  BTN1301     0.0015
      7  C7       -20.8550   -6.2680   -8.0240 C.3   1301  BTN1301     0.0129
      8  C2       -21.5120   -5.3260   -9.0310 C.3   1301  BTN1301     0.0729
      9  S1       -21.6350   -3.6410   -8.4720 S.3   1301  BTN1301    -0.1369
     10  C6       -22.5000   -3.2590  -10.0130 C.3   1301  BTN1301     0.0848
     11  C5       -23.5490   -4.3860  -10.0830 C.3   1301  BTN1301     0.1509
     12  N1       -24.7450   -4.1120   -9.2590 N.2   1301  BTN1301    -0.1859
     13  C3       -24.8910   -5.0550   -8.3060 C.1   1301  BTN1301     0.2386
     14  O3       -25.8100   -5.0860   -7.4490 O.2   1301  BTN1301    -0.2023
     15  N2       -23.8810   -5.9940   -8.3910 N.2   1301  BTN1301    -0.1860
     16  C4       -22.9670   -5.6910   -9.4770 C.3   1301  BTN1301     0.1500
@<TRIPOS>BOND
     1    11    10    1
     2    11    16    1
     3    11    12    1
     4    10     9    1
     5    16     8    1
     6    16    15    1
     7    12    13    2
     8     8     9    1
     9     8     7    1
    10     6     7    1
    11     6     5    1
    12    15    13    2
    13    13    14    2
    14     4     5    1
    15     4     1    1
    16     1     3   ar
    17     1     2   ar
