@<TRIPOS>MOLECULE
1wq1_GDP_R_1.pdb
 28 30 0 0 0
SMALL
GASTEIGER

@<TRIPOS>ATOM
      1  PB       -16.8680   21.1430   19.2550 P.3   167  GDP167      0.5373
      2  O1B      -16.0400   20.9200   20.4290 O.3   167  GDP167     -0.1143
      3  O2B      -16.2130   21.1360   17.9680 O.2   167  GDP167     -0.2221
      4  O3B      -18.0370   20.0550   19.2530 O.3   167  GDP167     -0.1143
      5  O3A      -17.6770   22.5130   19.4220 O.3   167  GDP167     -0.2261
      6  PA       -17.3880   23.8800   18.6320 P.3   167  GDP167      0.2231
      7  O1A      -15.9850   24.2340   18.8230 O.3   167  GDP167     -0.4370
      8  O2A      -17.8550   23.7130   17.2670 O.2   167  GDP167     -0.5169
      9  O5'      -18.3280   24.9410   19.3960 O.3   167  GDP167     -0.3111
     10  C5'      -19.6710   24.6220   19.6820 C.3   167  GDP167      0.1813
     11  C4'      -20.4960   25.8540   20.0870 C.3   167  GDP167      0.1799
     12  O4'      -20.0100   26.5440   21.2610 O.3   167  GDP167     -0.3326
     13  C3'      -20.4810   26.9320   18.9960 C.3   167  GDP167      0.2158
     14  O3'      -21.7370   27.6630   18.9400 O.3   167  GDP167     -0.2175
     15  C2'      -19.3240   27.8040   19.4580 C.3   167  GDP167      0.2310
     16  O2'      -19.3260   29.1060   18.8590 O.3   167  GDP167     -0.2158
     17  C1'      -19.5700   27.8730   20.9370 C.3   167  GDP167      0.2293
     18  N9       -18.3420   28.1760   21.6750 N.pl3 167  GDP167     -0.2354
     19  C8       -17.1510   27.5920   21.6000 C.3   167  GDP167      0.2246
     20  N7       -16.2410   28.0570   22.3880 N.2   167  GDP167     -0.2322
     21  C5       -16.8840   29.0150   23.1090 C.2   167  GDP167      0.2182
     22  C6       -16.4140   29.8660   24.1590 C.1   167  GDP167      0.2372
     23  O6       -15.3240   29.9090   24.7660 O.2   167  GDP167     -0.2069
     24  N1       -17.4070   30.7110   24.5630 N.2   167  GDP167     -0.2485
     25  C2       -18.6790   30.7440   24.0900 C.1   167  GDP167      0.2531
     26  N2       -19.4860   31.6640   24.5970 N.pl3 167  GDP167     -0.0226
     27  N3       -19.1290   29.9280   23.1390 N.2   167  GDP167     -0.3074
     28  C4       -18.1810   29.1020   22.6790 C.2   167  GDP167      0.2300
@<TRIPOS>BOND
     1     8     6    2
     2     3     1    2
     3     6     7    1
     4     6     9    1
     5     6     5    1
     6    16    15    1
     7    14    13    1
     8    13    15    1
     9    13    11    1
    10     4     1    1
    11     1     5    1
    12     1     2    1
    13     9    10    1
    14    15    17    1
    15    10    11    1
    16    11    12    1
    17    17    12    1
    18    17    18    1
    19    19    18    1
    20    19    20    1
    21    18    28    1
    22    20    21    2
    23    28    21    1
    24    28    27    2
    25    21    22    1
    26    27    25    2
    27    25    24    2
    28    25    26    1
    29    22    24    2
    30    22    23    2
