@<TRIPOS>MOLECULE
1wq3_IYR_A_1.pdb
 14 14 0 0 0
SMALL
GASTEIGER

@<TRIPOS>ATOM
      1  N        -20.3100   20.2520   77.3210 N.3   501  IYR501     -0.1205
      2  CA       -20.9320   20.2930   78.6730 C.3   501  IYR501      0.1986
      3  CB       -21.8850   21.5100   78.8150 C.3   501  IYR501      0.0569
      4  CC       -21.1200   22.8300   78.7460 C.ar  501  IYR501     -0.0195
      5  CD       -20.2990   23.2480   79.8360 C.ar  501  IYR501      0.0048
      6  CE       -19.5320   24.3950   79.7580 C.ar  501  IYR501      0.0686
      7  IE       -18.4420   25.0200   81.4070 I     501  IYR501     -0.0392
      8  CF       -19.5470   25.1490   78.6010 C.ar  501  IYR501      0.2010
      9  OF       -18.7940   26.2840   78.5660 O.3   501  IYR501     -0.2861
     10  CG       -20.3360   24.7820   77.4850 C.ar  501  IYR501      0.0422
     11  CH       -21.1320   23.6120   77.5730 C.ar  501  IYR501     -0.0009
     12  C        -21.7430   19.0030   78.8150 C.2   501  IYR501      0.3822
     13  O        -21.9200   18.6080   79.9550 O.co2 501  IYR501     -0.2440
     14  OXT      -22.1600   18.4610   77.7810 O.co2 501  IYR501     -0.2440
@<TRIPOS>BOND
     1     1     2    1
     2    10    11   ar
     3    10     8   ar
     4    11     4   ar
     5    14    12   ar
     6     9     8    1
     7     8     6   ar
     8     2     3    1
     9     2    12    1
    10     4     3    1
    11     4     5   ar
    12    12    13   ar
    13     6     5   ar
    14     6     7    1
