@<TRIPOS>MOLECULE
1wq4_TYR_A_1.pdb
 13 13 0 0 0
SMALL
GASTEIGER

@<TRIPOS>ATOM
      1  N         27.7610    7.5080   45.8920 N.3   501  TYR501     -0.1205
      2  CA        27.9860    8.1010   47.2410 C.3   501  TYR501      0.1986
      3  C         27.3450    9.4780   47.3200 C.2   501  TYR501      0.3822
      4  O         27.2850   10.0100   48.4470 O.co2 501  TYR501     -0.2440
      5  CB        29.4830    8.2240   47.5230 C.3   501  TYR501      0.0569
      6  CG        30.1890    6.8950   47.4360 C.ar  501  TYR501     -0.0200
      7  CD1       29.8910    5.8590   48.3410 C.ar  501  TYR501     -0.0009
      8  CD2       31.1280    6.6540   46.4350 C.ar  501  TYR501     -0.0009
      9  CE1       30.5200    4.6050   48.2440 C.ar  501  TYR501      0.0417
     10  CE2       31.7620    5.4070   46.3270 C.ar  501  TYR501      0.0417
     11  CZ        31.4550    4.3980   47.2300 C.ar  501  TYR501      0.1957
     12  OH        32.1030    3.1920   47.1190 O.3   501  TYR501     -0.2866
     13  OXT       26.9270    9.9920   46.2570 O.co2 501  TYR501     -0.2440
@<TRIPOS>BOND
     1     1     2    1
     2    13     3   ar
     3    10     8   ar
     4    10    11   ar
     5     8     6   ar
     6    12    11    1
     7    11     9   ar
     8     2     3    1
     9     2     5    1
    10     3     4   ar
    11     6     5    1
    12     6     7   ar
    13     9     7   ar
