@<TRIPOS>MOLECULE
1wqv_FUC_L_1.pdb
 10 10 0 0 0
SMALL
GASTEIGER

@<TRIPOS>ATOM
      1  C1        21.4150   32.2220   62.2210 C.3   1060  FUC1060     0.1776
      2  C2        20.2960   33.1670   62.6670 C.3   1060  FUC1060     0.2141
      3  C3        20.1970   34.3200   61.6500 C.3   1060  FUC1060     0.2172
      4  C4        19.9510   33.7270   60.2560 C.3   1060  FUC1060     0.2116
      5  C5        21.0540   32.7060   59.9290 C.3   1060  FUC1060     0.1483
      6  C6        20.7910   32.0800   58.5600 C.3   1060  FUC1060     0.0349
      7  O2        20.6050   33.6900   63.9650 O.3   1060  FUC1060    -0.2176
      8  O3        19.1080   35.1840   62.0000 O.3   1060  FUC1060    -0.2175
      9  O4        18.6790   33.0680   60.2430 O.3   1060  FUC1060    -0.2177
     10  O5        21.1060   31.6810   60.9330 O.3   1060  FUC1060    -0.3508
@<TRIPOS>BOND
     1     6     5    1
     2     5     4    1
     3     5    10    1
     4     9     4    1
     5     4     3    1
     6    10     1    1
     7     3     8    1
     8     3     2    1
     9     1     2    1
    10     2     7    1
