@<TRIPOS>MOLECULE
1wqv_PSM_H_1.pdb
 32 32 0 0 0
SMALL
GASTEIGER

@<TRIPOS>ATOM
      1  C15       35.7210    6.8580   10.2520 C.2   1001  PSM1001     0.2621
      2  O1        34.8600    7.1780   11.0710 O.2   1001  PSM1001    -0.2717
      3  C1        38.0640    6.9970   11.2430 C.3   1001  PSM1001     0.1787
      4  O2        39.1720    6.2450   11.7560 O.3   1001  PSM1001    -0.2211
      5  N4        36.6300    5.0550   11.6950 N.3   1001  PSM1001    -0.0715
      6  C5        36.9700    6.0480   10.6700 C.3   1001  PSM1001     0.2048
      7  C3        38.4400    8.2660   10.4070 C.3   1001  PSM1001     0.0376
      8  S1        36.3490    3.4150   11.2040 S.O2  1001  PSM1001     0.0578
      9  O4        36.2250    2.6990   12.4130 O.2   1001  PSM1001    -0.1561
     10  O3        37.4440    3.1100   10.3350 O.2   1001  PSM1001    -0.1561
     11  C9        34.8370    3.3420   10.3280 C.3   1001  PSM1001     0.1705
     12  C8        33.7030    3.3120   11.3070 C.3   1001  PSM1001     0.0271
     13  C7        32.3880    3.1950   10.5600 C.3   1001  PSM1001     0.0019
     14  N17       35.6850    7.1580    8.9410 N.am  1001  PSM1001    -0.1965
     15  C18       34.6010    7.9960    8.5170 C.3   1001  PSM1001     0.1736
     16  C28       33.2660    7.2910    8.7430 C.2   1001  PSM1001     0.2616
     17  O30       33.1530    6.0740    8.5970 O.2   1001  PSM1001    -0.2715
     18  C19       34.8210    8.5880    7.1290 C.3   1001  PSM1001     0.0427
     19  C20       36.1320    9.4050    7.0500 C.3   1001  PSM1001     0.0599
     20  S2        36.4010   10.5630    8.4490 S.3   1001  PSM1001    -0.1393
     21  C6        34.9610   11.6560    8.2330 C.3   1001  PSM1001     0.0692
     22  N31       32.2980    8.1570    9.1280 N.am  1001  PSM1001    -0.1991
     23  C32       31.0040    7.6190    9.4260 C.3   1001  PSM1001     0.1415
     24  C25       30.7600    7.3300   10.8880 C.ar  1001  PSM1001    -0.0006
     25  C16       31.5870    6.4110   11.5780 C.ar  1001  PSM1001    -0.0023
     26  C17       31.3830    6.1550   12.9350 C.ar  1001  PSM1001     0.0077
     27  C22       30.3810    6.8510   13.6590 C.ar  1001  PSM1001     0.0975
     28  C26       30.2370    6.6420   15.1310 C.2   1001  PSM1001     0.4766
     29  N1        30.8140    5.6160   15.7290 N.pl3 1001  PSM1001     0.2047
     30  N2        29.5190    7.4510   15.9080 N.pl3 1001  PSM1001     0.2047
     31  C23       29.5340    7.7550   12.9600 C.ar  1001  PSM1001     0.0077
     32  C24       29.7170    7.9760   11.5790 C.ar  1001  PSM1001    -0.0023
@<TRIPOS>BOND
     1    19    18    1
     2    19    20    1
     3    18    15    1
     4    21    20    1
     5    15    16    1
     6    15    14    1
     7    17    16    2
     8    16    22   am
     9    14     1   am
    10    22    23    1
    11    23    24    1
    12     1     6    1
    13     1     2    2
    14    11     8    1
    15    11    12    1
    16    10     8    2
    17     7     3    1
    18    13    12    1
    19     6     3    1
    20     6     5    1
    21    24    25   ar
    22    24    32   ar
    23     8     5    1
    24     8     9    2
    25     3     4    1
    26    25    26   ar
    27    32    31   ar
    28    26    27   ar
    29    31    27   ar
    30    27    28    1
    31    28    29    2
    32    28    30    1
