@<TRIPOS>MOLECULE
1wqv_BGC_L_1.pdb
 11 11 0 0 0
SMALL
GASTEIGER

@<TRIPOS>ATOM
      1  C2        38.2250   35.5490   61.3780 C.3   1052  BGC1052     0.2141
      2  C3        38.4350   34.4620   60.3140 C.3   1052  BGC1052     0.2173
      3  C4        39.3170   33.3560   60.8870 C.3   1052  BGC1052     0.2142
      4  C5        38.6700   32.7990   62.1650 C.3   1052  BGC1052     0.1810
      5  C6        39.5720   31.7060   62.7560 C.3   1052  BGC1052     0.2141
      6  C1        37.6270   34.9120   62.6700 C.3   1052  BGC1052     0.1777
      7  O2        37.3290   36.5360   60.8530 O.3   1052  BGC1052    -0.2176
      8  O3        39.0730   35.0340   59.1640 O.3   1052  BGC1052    -0.2175
      9  O4        39.4510   32.3030   59.9210 O.3   1052  BGC1052    -0.2176
     10  O5        38.4720   33.8440   63.1330 O.3   1052  BGC1052    -0.3481
     11  O6        39.8860   30.7100   61.7940 O.3   1052  BGC1052    -0.2176
@<TRIPOS>BOND
     1     8     2    1
     2     9     3    1
     3     2     3    1
     4     2     1    1
     5     7     1    1
     6     3     4    1
     7     1     6    1
     8    11     5    1
     9     4     5    1
    10     4    10    1
    11     6    10    1
