@<TRIPOS>MOLECULE
1wqw_BT5_A_1.pdb
 38 42 0 0 0
SMALL
GASTEIGER

@<TRIPOS>ATOM
      1  CBB      -19.2220  -11.0410   -6.8910 C.2   1301  BT51301     0.3210
      2  OBB      -19.7220  -11.9490   -6.1970 O.3   1301  BT51301    -0.4101
      3  OCB      -17.9810  -10.7680   -6.8280 O.2   1301  BT51301    -0.2498
      4  CAB      -20.0610  -10.2120   -7.8170 C.3   1301  BT51301     0.1098
      5  C9B      -20.2070   -8.7680   -7.3600 C.3   1301  BT51301     0.0117
      6  C8B      -20.8350   -7.8740   -8.3940 C.3   1301  BT51301     0.0015
      7  C7B      -20.9690   -6.4450   -7.8990 C.3   1301  BT51301     0.0129
      8  C2B      -21.6030   -5.4790   -8.8940 C.3   1301  BT51301     0.0729
      9  S1B      -21.7140   -3.7990   -8.3000 S.3   1301  BT51301    -0.1369
     10  C6B      -22.5730   -3.3850   -9.8350 C.3   1301  BT51301     0.0848
     11  C5B      -23.6220   -4.5050   -9.9440 C.3   1301  BT51301     0.1509
     12  N1B      -24.8130   -4.2500   -9.1150 N.2   1301  BT51301    -0.1859
     13  C3B      -24.9620   -5.2210   -8.1850 C.1   1301  BT51301     0.2386
     14  O3B      -25.8770   -5.2760   -7.3290 O.2   1301  BT51301    -0.2023
     15  N2B      -23.9640   -6.1560   -8.2970 N.2   1301  BT51301    -0.1860
     16  C4B      -23.0500   -5.8270   -9.3690 C.3   1301  BT51301     0.1500
     17  P        -19.3360  -13.0560   -5.1490 P.3   1301  BT51301     0.2722
     18  OP1      -17.8900  -13.4560   -5.3240 O.3   1301  BT51301    -0.4273
     19  OP2      -20.1290  -14.1740   -5.3320 O.2   1301  BT51301    -0.5082
     20  O5'      -19.5840  -12.4480   -3.6330 O.3   1301  BT51301    -0.3024
     21  C5'      -18.9110  -11.3230   -3.1730 C.3   1301  BT51301     0.1823
     22  C4'      -18.3390  -11.5610   -1.7770 C.3   1301  BT51301     0.1822
     23  O4'      -17.3510  -10.5910   -1.4540 O.3   1301  BT51301    -0.3135
     24  C3'      -19.3970  -11.5110   -0.7050 C.3   1301  BT51301     0.2184
     25  O3'      -19.5870  -12.7970   -0.1060 O.3   1301  BT51301    -0.2174
     26  C2'      -18.9400  -10.4520    0.2890 C.3   1301  BT51301     0.2570
     27  O2'      -18.7700  -10.9630    1.5950 O.3   1301  BT51301    -0.2130
     28  C1'      -17.6390   -9.8750   -0.2570 C.3   1301  BT51301     0.3186
     29  N9       -17.6910   -8.3780   -0.6310 N.pl3 1301  BT51301    -0.1439
     30  C8       -18.7420   -7.5150   -0.4270 C.3   1301  BT51301     0.3377
     31  N7       -18.4250   -6.2800   -0.8900 N.2   1301  BT51301    -0.2095
     32  C5       -17.1800   -6.3380   -1.3890 C.2   1301  BT51301     0.2526
     33  C6       -16.3930   -5.3520   -1.9840 C.2   1301  BT51301     0.4393
     34  N6       -16.8530   -4.1090   -2.1330 N.pl3 1301  BT51301     0.2180
     35  N1       -15.1060   -5.7200   -2.4150 N.2   1301  BT51301     0.0021
     36  C2       -14.6190   -7.0210   -2.2650 C.3   1301  BT51301     0.5254
     37  N3       -15.4160   -8.0020   -1.6710 N.2   1301  BT51301    -0.0055
     38  C4       -16.6850   -7.6510   -1.2410 C.2   1301  BT51301     0.3518
@<TRIPOS>BOND
     1    11    10    1
     2    11    16    1
     3    11    12    1
     4    10     9    1
     5    16     8    1
     6    16    15    1
     7    12    13    2
     8     8     9    1
     9     8     7    1
    10     6     7    1
    11     6     5    1
    12    15    13    2
    13    13    14    2
    14     4     5    1
    15     4     1    1
    16     1     3    2
    17     1     2    1
    18     2    17    1
    19    19    17    2
    20    18    17    1
    21    17    20    1
    22    20    21    1
    23    21    22    1
    24    35    36    1
    25    35    33    2
    26    36    37    1
    27    34    33    1
    28    33    32    1
    29    22    23    1
    30    22    24    1
    31    37    38    2
    32    23    28    1
    33    32    38    1
    34    32    31    2
    35    38    29    1
    36    31    30    1
    37    24    25    1
    38    24    26    1
    39    29    30    1
    40    29    28    1
    41    28    26    1
    42    26    27    1
