@<TRIPOS>MOLECULE
1wr5_HEM_A_1.pdb
 43 50 0 0 0
SMALL
GASTEIGER

@<TRIPOS>ATOM
      1 FE         23.9810   39.2920   25.0300 Fe    1004  HEM1004     0.0000
      2  CHA       22.0230   42.0920   24.3920 C.2   1004  HEM1004     0.0000
      3  CHB       21.7870   37.3510   23.3000 C.2   1004  HEM1004     0.0000
      4  CHC       25.7110   36.4690   25.8260 C.2   1004  HEM1004     0.0000
      5  CHD       26.1940   41.2040   26.5930 C.2   1004  HEM1004     0.0000
      6  NA        22.1950   39.6750   23.9750 N.ar  1004  HEM1004     0.0000
      7  C1A       21.5500   40.8810   23.9530 C.ar  1004  HEM1004     0.0000
      8  C2A       20.3320   40.6100   23.2720 C.ar  1004  HEM1004     0.0000
      9  C3A       20.2780   39.3210   22.8820 C.ar  1004  HEM1004     0.0000
     10  C4A       21.4610   38.6860   23.3910 C.ar  1004  HEM1004     0.0000
     11  CMA       19.2630   38.5880   22.0550 C.3   1004  HEM1004     0.0000
     12  CAA       19.3690   41.7150   22.8410 C.3   1004  HEM1004     0.0000
     13  CBA       19.5070   42.0550   21.3490 C.3   1004  HEM1004     0.0000
     14  CGA       18.3830   42.9430   20.7700 C.2   1004  HEM1004     0.0000
     15  O1A       17.2310   42.8140   21.2100 O.co2 1004  HEM1004     0.0000
     16  O2A       18.7110   43.9780   20.1670 O.co2 1004  HEM1004     0.0000
     17  NB        23.8030   37.2680   24.5870 N.2   1004  HEM1004     0.0000
     18  C1B       22.9910   36.7700   23.6130 C.2   1004  HEM1004     0.0000
     19  C2B       23.2530   35.3710   23.4270 C.2   1004  HEM1004     0.0000
     20  C3B       24.3510   35.0700   24.1800 C.2   1004  HEM1004     0.0000
     21  C4B       24.7340   36.2930   24.8540 C.2   1004  HEM1004     0.0000
     22  CMB       22.4930   34.5320   22.4110 C.3   1004  HEM1004     0.0000
     23  CAB       25.1780   33.9300   24.1330 C.3   1004  HEM1004     0.0000
     24  CBB       26.1670   33.7300   23.0710 C.3   1004  HEM1004     0.0000
     25  NC        25.7520   38.8980   26.0760 N.ar  1004  HEM1004     0.0000
     26  C1C       26.1360   37.6520   26.4300 C.ar  1004  HEM1004     0.0000
     27  C2C       27.1760   37.7950   27.4230 C.ar  1004  HEM1004     0.0000
     28  C3C       27.3740   39.1770   27.6240 C.ar  1004  HEM1004     0.0000
     29  C4C       26.4360   39.8550   26.7750 C.ar  1004  HEM1004     0.0000
     30  CMC       27.8640   36.6030   28.0580 C.3   1004  HEM1004     0.0000
     31  CAC       28.2590   39.7790   28.5780 C.3   1004  HEM1004     0.0000
     32  CBC       29.6410   39.4560   28.3440 C.3   1004  HEM1004     0.0000
     33  ND        24.0900   41.3340   25.4220 N.2   1004  HEM1004     0.0000
     34  C1D       25.1960   41.8980   25.9800 C.2   1004  HEM1004     0.0000
     35  C2D       25.0620   43.3210   25.9210 C.2   1004  HEM1004     0.0000
     36  C3D       23.8800   43.5430   25.3130 C.2   1004  HEM1004     0.0000
     37  C4D       23.2420   42.3010   25.0270 C.2   1004  HEM1004     0.0000
     38  CMD       26.0830   44.3160   26.4350 C.3   1004  HEM1004     0.0000
     39  CAD       23.2090   44.8600   25.1620 C.3   1004  HEM1004     0.0000
     40  CBD       22.4900   45.3310   26.4370 C.3   1004  HEM1004     0.0000
     41  CGD       21.6180   46.5110   26.2070 C.2   1004  HEM1004     0.0000
     42  O1D       22.1190   47.5970   25.8620 O.co2 1004  HEM1004     0.0000
     43  O2D       20.3750   46.3600   26.3220 O.co2 1004  HEM1004     0.0000
@<TRIPOS>BOND
     1    16    14   ar
     2    14    15   ar
     3    14    13    1
     4    13    12    1
     5    11     9    1
     6    22    19    1
     7    12     8    1
     8     9     8   ar
     9     9    10   ar
    10    24    23    1
    11     8     7   ar
    12     3    10    2
    13     3    18    1
    14    10     6   ar
    15    19    18    1
    16    19    20    2
    17    18    17    2
    18     7     6   ar
    19     7     2    2
    20     6     1    1
    21    23    20    1
    22    20    21    1
    23     2    37    1
    24    17    21    1
    25    17     1    1
    26    21     4    2
    27    37    36    1
    28    37    33    2
    29     1    33    1
    30     1    25    1
    31    39    36    1
    32    39    40    1
    33    36    35    2
    34    33    34    1
    35     4    26    1
    36    42    41   ar
    37    35    34    1
    38    35    38    1
    39    34     5    2
    40    25    26   ar
    41    25    29   ar
    42    41    43   ar
    43    41    40    1
    44    26    27   ar
    45     5    29    1
    46    29    28   ar
    47    27    28   ar
    48    27    30    1
    49    28    31    1
    50    32    31    1
