@<TRIPOS>MOLECULE
1wra_PC_A_1.pdb
 11 10 0 0 0
SMALL
GASTEIGER

@<TRIPOS>ATOM
      1  P1        56.2050   61.7360   40.7900 P.3   501  PC501       0.5325
      2  O1        55.6560   61.3590   39.2960 O.2   501  PC501      -0.2224
      3  O3        55.0130   62.2260   41.5940 O.3   501  PC501      -0.1145
      4  O4        57.4340   62.6890   40.9280 O.3   501  PC501      -0.1145
      5  O2        56.7500   60.3370   41.4350 O.3   501  PC501      -0.2725
      6  C1        55.9570   59.5280   42.2890 C.3   501  PC501       0.1317
      7  C2        56.7940   58.8150   43.3630 C.3   501  PC501      -0.0401
      8  N1        57.5270   57.5620   42.9750 N.4   501  PC501       0.3874
      9  C3        57.0040   56.9200   41.7350 C.3   501  PC501      -0.0959
     10  C4        58.9860   57.8130   42.7560 C.3   501  PC501      -0.0959
     11  C5        57.3970   56.6160   44.1360 C.3   501  PC501      -0.0959
@<TRIPOS>BOND
     1     2     1    2
     2     1     4    1
     3     1     5    1
     4     1     3    1
     5     5     6    1
     6     9     8    1
     7     6     7    1
     8    10     8    1
     9     8     7    1
    10     8    11    1
