@<TRIPOS>MOLECULE
1wrk_TFP_A_1.pdb
 28 31 0 0 0
SMALL
GASTEIGER

@<TRIPOS>ATOM
      1  C1         7.4000    0.6390    6.3090 C.ar  202  TFP202      0.0727
      2  C2         8.5830    1.3220    6.5840 C.ar  202  TFP202      0.0044
      3  C3         9.8050    0.7390    6.3100 C.ar  202  TFP202      0.0077
      4  C4         9.8520   -0.5800    5.7760 C.ar  202  TFP202      0.0431
      5  C5         8.6400   -1.2860    5.4820 C.ar  202  TFP202      0.0576
      6  C6         7.4000   -0.6480    5.7820 C.ar  202  TFP202      0.0192
      7  S         11.3540   -1.2630    5.4770 S.3   202  TFP202     -0.0844
      8  C7        11.0550   -2.9820    5.5520 C.ar  202  TFP202      0.0431
      9  C8        12.1330   -3.8480    5.8990 C.ar  202  TFP202      0.0077
     10  C9        11.9230   -5.2300    5.9600 C.ar  202  TFP202      0.0006
     11  C10       10.6660   -5.7800    5.6810 C.ar  202  TFP202      0.0013
     12  C11        9.5850   -4.9610    5.3400 C.ar  202  TFP202      0.0153
     13  C12        9.7530   -3.5360    5.2690 C.ar  202  TFP202      0.0576
     14  N1         8.6840   -2.6190    4.9400 N.pl3 202  TFP202     -0.2861
     15  C13        7.5890   -3.0980    4.0830 C.3   202  TFP202      0.0970
     16  C14        8.0290   -2.8550    2.6640 C.3   202  TFP202      0.0391
     17  C15        7.1050   -3.5910    1.7230 C.3   202  TFP202      0.0739
     18  N2         7.4360   -3.4440    0.2980 N.3   202  TFP202     -0.2703
     19  C16        6.4250   -4.2630   -0.3910 C.3   202  TFP202      0.0897
     20  C17        6.5000   -4.1050   -1.9090 C.3   202  TFP202      0.0897
     21  N3         6.4360   -2.6870   -2.3280 N.3   202  TFP202     -0.2691
     22  C18        7.3960   -1.8150   -1.6010 C.3   202  TFP202      0.0897
     23  C19        7.3220   -2.0120   -0.0820 C.3   202  TFP202      0.0897
     24  C20        6.7520   -2.6280   -3.7530 C.3   202  TFP202      0.0897
     25  C21        6.0520    1.2710    6.6110 C.3   202  TFP202      0.4186
     26  F1         5.4780    0.7990    7.6290 F     202  TFP202     -0.1659
     27  F2         5.1310    1.1770    5.7340 F     202  TFP202     -0.1659
     28  F3         6.0130    2.5230    6.8340 F     202  TFP202     -0.1659
@<TRIPOS>BOND
     1    24    21    1
     2    21    20    1
     3    21    22    1
     4    20    19    1
     5    22    23    1
     6    19    18    1
     7    23    18    1
     8    18    17    1
     9    17    16    1
    10    16    15    1
    11    15    14    1
    12    14    13    1
    13    14     5    1
    14    13    12   ar
    15    13     8   ar
    16    12    11   ar
    17     7     8    1
    18     7     4    1
    19     5     4   ar
    20     5     6   ar
    21     8     9   ar
    22    11    10   ar
    23    27    25    1
    24     4     3   ar
    25     6     1   ar
    26     9    10   ar
    27     1     2   ar
    28     1    25    1
    29     3     2   ar
    30    25    28    1
    31    25    26    1
