@<TRIPOS>MOLECULE
1wrl_TFP_A_1.pdb
 28 31 0 0 0
SMALL
GASTEIGER

@<TRIPOS>ATOM
      1  C1        39.1380   32.0810    5.0640 C.ar  202  TFP202      0.0727
      2  C2        39.4630   33.3970    4.7210 C.ar  202  TFP202      0.0044
      3  C3        38.4830   34.3750    4.6760 C.ar  202  TFP202      0.0077
      4  C4        37.1310   34.0280    4.9790 C.ar  202  TFP202      0.0431
      5  C5        36.7940   32.6790    5.3310 C.ar  202  TFP202      0.0576
      6  C6        37.8330   31.7040    5.3680 C.ar  202  TFP202      0.0192
      7  S         35.9450   35.2220    4.9080 S.3   202  TFP202     -0.0844
      8  C7        34.5020   34.3250    4.5000 C.ar  202  TFP202      0.0431
      9  C8        33.4660   34.9720    3.7660 C.ar  202  TFP202      0.0077
     10  C9        32.3110   34.2620    3.4340 C.ar  202  TFP202      0.0006
     11  C10       32.1470   32.9230    3.8110 C.ar  202  TFP202      0.0013
     12  C11       33.1360   32.2500    4.5270 C.ar  202  TFP202      0.0153
     13  C12       34.3450   32.9410    4.8940 C.ar  202  TFP202      0.0576
     14  N1        35.4350   32.3320    5.6320 N.pl3 202  TFP202     -0.2861
     15  C13       35.1400   31.3010    6.6560 C.3   202  TFP202      0.0970
     16  C14       34.4380   31.9860    7.8020 C.3   202  TFP202      0.0391
     17  C15       34.2720   31.0160    8.9540 C.3   202  TFP202      0.0739
     18  N2        33.5730   31.5770   10.1230 N.3   202  TFP202     -0.2703
     19  C16       33.5060   30.4880   11.1070 C.3   202  TFP202      0.0897
     20  C17       32.8170   30.9470   12.3950 C.3   202  TFP202      0.0897
     21  N3        33.3610   32.2220   12.9470 N.3   202  TFP202     -0.2691
     22  C18       33.6740   33.2730   11.9340 C.3   202  TFP202      0.0897
     23  C19       34.3400   32.7190   10.6700 C.3   202  TFP202      0.0897
     24  C20       32.3610   32.7720   13.8590 C.3   202  TFP202      0.0897
     25  C21       40.2080   30.9890    5.1110 C.3   202  TFP202      0.4186
     26  F1        40.1590   30.2430    6.1270 F     202  TFP202     -0.1659
     27  F2        41.4320   31.3510    5.1190 F     202  TFP202     -0.1659
     28  F3        40.2490   30.1520    4.1570 F     202  TFP202     -0.1659
@<TRIPOS>BOND
     1    10     9   ar
     2    10    11   ar
     3     9     8   ar
     4    11    12   ar
     5    28    25    1
     6     8    13   ar
     7     8     7    1
     8    12    13   ar
     9     3     2   ar
    10     3     4   ar
    11     2     1   ar
    12    13    14    1
    13     7     4    1
    14     4     5   ar
    15     1    25    1
    16     1     6   ar
    17    25    27    1
    18    25    26    1
    19     5     6   ar
    20     5    14    1
    21    14    15    1
    22    15    16    1
    23    16    17    1
    24    17    18    1
    25    18    23    1
    26    18    19    1
    27    23    22    1
    28    19    20    1
    29    22    21    1
    30    20    21    1
    31    21    24    1
