@<TRIPOS>MOLECULE
1wrn_HIS_A_1.pdb
 11 11 0 0 0
SMALL
GASTEIGER

@<TRIPOS>ATOM
      1  N         25.1070   -2.7550   37.1720 N.3   1001  HIS1001    -0.1204
      2  CA        25.5560   -1.7350   36.1830 C.3   1001  HIS1001     0.1999
      3  C         27.0720   -1.5070   36.1940 C.2   1001  HIS1001     0.3822
      4  O         27.8140   -2.4400   36.5700 O.co2 1001  HIS1001    -0.2440
      5  CB        24.8240   -0.3960   36.4120 C.3   1001  HIS1001     0.0740
      6  CG        23.3880   -0.4130   35.9820 C.2   1001  HIS1001     0.0651
      7  ND1       22.4310   -1.1650   36.6270 N.2   1001  HIS1001    -0.2310
      8  CD2       22.7570    0.1910   34.9440 C.3   1001  HIS1001     0.1683
      9  CE1       21.2750   -1.0230   36.0030 C.2   1001  HIS1001     0.1939
     10  NE2       21.4450   -0.2080   34.9780 N.2   1001  HIS1001    -0.2440
     11  OXT       27.5210   -0.4060   35.8110 O.co2 1001  HIS1001    -0.2440
@<TRIPOS>BOND
     1     8    10    1
     2     8     6    1
     3    10     9    2
     4    11     3   ar
     5     6     5    1
     6     6     7    2
     7     9     7    1
     8     2     3    1
     9     2     5    1
    10     2     1    1
    11     3     4   ar
