@<TRIPOS>MOLECULE
1wro_HIS_A_1.pdb
 11 11 0 0 0
SMALL
GASTEIGER

@<TRIPOS>ATOM
      1  N         47.8140    2.5010   28.6770 N.3   1001  HIS1001    -0.1204
      2  CA        47.3510    3.1950   27.4480 C.3   1001  HIS1001     0.1999
      3  C         47.1810    2.2450   26.2420 C.2   1001  HIS1001     0.3822
      4  O         46.4030    1.2700   26.3220 O.co2 1001  HIS1001    -0.2440
      5  CB        48.3510    4.2920   27.0910 C.3   1001  HIS1001     0.0740
      6  CG        48.3470    5.4430   28.0420 C.2   1001  HIS1001     0.0651
      7  ND1       48.0360    5.3050   29.3770 N.2   1001  HIS1001    -0.2310
      8  CD2       48.6570    6.7500   27.8590 C.3   1001  HIS1001     0.1683
      9  CE1       48.1550    6.4750   29.9760 C.2   1001  HIS1001     0.1939
     10  NE2       48.5310    7.3700   29.0780 N.2   1001  HIS1001    -0.2440
     11  OXT       47.8340    2.4860   25.2060 O.co2 1001  HIS1001    -0.2440
@<TRIPOS>BOND
     1    11     3   ar
     2     3     4   ar
     3     3     2    1
     4     5     2    1
     5     5     6    1
     6     2     1    1
     7     8     6    1
     8     8    10    1
     9     6     7    2
    10    10     9    2
    11     7     9    1
