@<TRIPOS>MOLECULE
1wrp_TRP_R_1.pdb
 15 16 0 0 0
SMALL
GASTEIGER

@<TRIPOS>ATOM
      1  N         29.9380    9.5910   16.0580 N.3     1  TRP1       -0.1205
      2  CA        28.7480    9.8620   15.2550 C.3     1  TRP1        0.1984
      3  C         27.4830    9.9120   16.1740 C.2     1  TRP1        0.3822
      4  O         27.6860    9.1970   17.2000 O.co2   1  TRP1       -0.2440
      5  CB        28.5430    8.7150   14.2280 C.3     1  TRP1        0.0549
      6  CG        27.8480    9.2520   13.0120 C.2     1  TRP1       -0.0138
      7  CD1       26.5330    9.1350   12.6710 C.2     1  TRP1        0.0907
      8  CD2       28.4100   10.2250   12.1160 C.3     1  TRP1        0.0819
      9  NE1       26.2810    9.8230   11.5110 N.2     1  TRP1       -0.2482
     10  CE2       27.4060   10.5030   11.1500 C.2     1  TRP1        0.0665
     11  CE3       29.6760   10.7730   11.9610 C.2     1  TRP1       -0.0164
     12  CZ2       27.6240   11.3940   10.1010 C.2     1  TRP1        0.0153
     13  CZ3       29.8960   11.6290   10.9040 C.2     1  TRP1       -0.0038
     14  CH2       28.8870   11.9500   10.0030 C.2     1  TRP1        0.0009
     15  OXT       26.4860   10.2130   15.9060 O.co2   1  TRP1       -0.2440
@<TRIPOS>BOND
     1    14    12    2
     2    14    13    1
     3    12    10    1
     4    13    11    2
     5    10     9    2
     6    10     8    1
     7     9     7    1
     8    11     8    1
     9     8     6    1
    10     7     6    2
    11     6     5    1
    12     5     2    1
    13     2     1    1
    14     2     3    1
    15    15     3   ar
    16     3     4   ar
