@<TRIPOS>MOLECULE
1wrq_HIS_A_1.pdb
 11 11 0 0 0
SMALL
GASTEIGER

@<TRIPOS>ATOM
      1  N         16.0990    4.0180   95.2380 N.3   2001  HIS2001    -0.1204
      2  CA        14.6850    3.7820   95.6370 C.3   2001  HIS2001     0.1999
      3  C         13.6840    4.5740   94.7950 C.2   2001  HIS2001     0.3822
      4  O         14.0000    4.8930   93.6340 O.co2 2001  HIS2001    -0.2440
      5  CB        14.5060    4.1160   97.1220 C.3   2001  HIS2001     0.0740
      6  CG        15.2980    3.2250   98.0310 C.2   2001  HIS2001     0.0651
      7  ND1       16.6750    3.2280   98.0580 N.2   2001  HIS2001    -0.2310
      8  CD2       14.9070    2.2470   98.8810 C.3   2001  HIS2001     0.1683
      9  CE1       17.0990    2.2840   98.8800 C.2   2001  HIS2001     0.1939
     10  NE2       16.0460    1.6740   99.3920 N.2   2001  HIS2001    -0.2440
     11  OXT       12.5830    4.8610   95.2950 O.co2 2001  HIS2001    -0.2440
@<TRIPOS>BOND
     1     4     3   ar
     2     3    11   ar
     3     3     2    1
     4     1     2    1
     5     2     5    1
     6     5     6    1
     7     6     7    2
     8     6     8    1
     9     7     9    1
    10     9    10    2
    11     8    10    1
