@<TRIPOS>MOLECULE
1wrr_UNC_A_1.pdb
 12 12 0 0 0
SMALL
GASTEIGER

@<TRIPOS>ATOM
      1  OD2       31.6380   25.6270   41.0620 O.2   999  UNC999     -0.1234
      2  N4        32.1940   25.7730   39.9730 N.pl3 999  UNC999      0.0914
      3  OD1       33.3800   25.4290   39.7550 O.2   999  UNC999     -0.1234
      4  C4        31.4840   26.4430   38.9710 C.2   999  UNC999      0.3187
      5  N3        30.2150   26.8910   39.0900 N.2   999  UNC999     -0.2808
      6  C2        29.6610   27.5560   37.9980 C.1   999  UNC999      0.3672
      7  O2        28.4860   27.9640   38.0580 O.2   999  UNC999     -0.1744
      8  C5        32.2450   26.6700   37.7600 C.2   999  UNC999      0.2508
      9  N5        33.4690   26.2390   37.6510 N.2   999  UNC999     -0.1297
     10  C6        31.6020   27.3790   36.6550 C.1   999  UNC999      0.2414
     11  O6        32.2700   27.5930   35.6350 O.2   999  UNC999     -0.2068
     12  N1        30.3390   27.7900   36.8430 N.2   999  UNC999     -0.2310
@<TRIPOS>BOND
     1    11    10    2
     2    10    12    2
     3    10     8    1
     4    12     6    2
     5     9     8    2
     6     8     4    1
     7     6     7    2
     8     6     5    2
     9     4     5    2
    10     4     2    1
    11     3     2    2
    12     2     1    2
