@<TRIPOS>MOLECULE
1wrs_TRP_R_1.pdb
 26 27 0 0 0
SMALL
GASTEIGER

@<TRIPOS>ATOM
      1  N         18.8030   12.9160   15.6300 N.3     1  TRP1       -0.3180
      2  CA        19.3060   11.5880   16.0610 C.3     1  TRP1        0.1117
      3  C         20.7270   11.7280   16.6040 C.2     1  TRP1        0.3727
      4  O         20.9090   11.3560   17.7530 O.co2   1  TRP1       -0.2446
      5  CB        19.3260   10.6150   14.8650 C.3     1  TRP1        0.0001
      6  CG        18.7010   11.2880   13.6340 C.ar    1  TRP1       -0.0204
      7  CD1       17.3940   11.5960   13.5380 C.ar    1  TRP1        0.0060
      8  CD2       19.3530   11.6720   12.5230 C.ar    1  TRP1        0.0029
      9  NE1       17.3040   12.1930   12.3540 N.ar    1  TRP1       -0.3604
     10  CE2       18.4530   12.2730   11.6650 C.ar    1  TRP1        0.0467
     11  CE3       20.6590   11.4830   12.0850 C.ar    1  TRP1       -0.0523
     12  CZ2       18.8260   12.6850   10.4150 C.ar    1  TRP1       -0.0378
     13  CZ3       21.0310   11.8840   10.8110 C.ar    1  TRP1       -0.0611
     14  CH2       20.1100   12.4830    9.9800 C.ar    1  TRP1       -0.0598
     15  OXT       21.5520   12.2110   15.8460 O.co2   1  TRP1       -0.2446
     16  H2        19.3470   13.2390   14.8050 H       1  TRP1        0.1190
     17  H         18.9180   13.5980   16.4070 H       1  TRP1        0.1190
     18  HA        18.6670   11.2120   16.8580 H       1  TRP1        0.0579
     19  HB2       20.3410   10.3250   14.6420 H       1  TRP1        0.0334
     20  HB3       18.7520    9.7360   15.1070 H       1  TRP1        0.0334
     21  HD1       16.5810   11.1950   14.1250 H       1  TRP1        0.0810
     22  HE1       16.4630   12.5610   12.0130 H       1  TRP1        0.1653
     23  HE3       21.4000   11.0810   12.7570 H       1  TRP1        0.0624
     24  HZ2       18.1340   13.2300    9.7940 H       1  TRP1        0.0638
     25  HZ3       22.0370   11.7020   10.4580 H       1  TRP1        0.0618
     26  HH2       20.3830   12.7580    8.9720 H       1  TRP1        0.0618
@<TRIPOS>BOND
     1    26    14    1
     2    24    12    1
     3    14    12   ar
     4    14    13   ar
     5    12    10   ar
     6    25    13    1
     7    13    11   ar
     8    10     9   ar
     9    10     8   ar
    10    22     9    1
    11    11     8   ar
    12    11    23    1
    13     9     7   ar
    14     8     6   ar
    15     7     6   ar
    16     7    21    1
    17     6     5    1
    18    19     5    1
    19    16     1    1
    20     5    20    1
    21     5     2    1
    22     1     2    1
    23     1    17    1
    24    15     3   ar
    25     2     3    1
    26     2    18    1
    27     3     4   ar
