@<TRIPOS>MOLECULE
1wrv_PLP_A_1.pdb
 15 15 0 0 0
SMALL
GASTEIGER

@<TRIPOS>ATOM
      1  N1        33.0860   83.0910   17.2600 N.ar  413  PLP413     -0.2452
      2  C2        32.9190   84.1730   16.4570 C.ar  413  PLP413      0.0978
      3  C2A       34.0250   85.2130   16.3830 C.3   413  PLP413      0.0555
      4  C3        31.7560   84.3080   15.7250 C.ar  413  PLP413      0.2049
      5  O3        31.5870   85.3940   14.9070 O.3   413  PLP413     -0.2857
      6  C4        30.7590   83.3420   15.8090 C.ar  413  PLP413      0.0182
      7  C4A       29.4530   83.5440   15.0070 C.3   413  PLP413      0.0342
      8  C5        30.9650   82.2360   16.6540 C.ar  413  PLP413      0.0261
      9  C6        32.1240   82.1360   17.3560 C.ar  413  PLP413      0.0965
     10  C5A       29.9710   81.0930   16.8350 C.3   413  PLP413      0.1815
     11  O4P       28.7290   81.4540   17.4060 O.3   413  PLP413     -0.2653
     12  P         27.4650   80.5300   17.0730 P.3   413  PLP413      0.5329
     13  O1P       27.2570   80.5130   15.6030 O.2   413  PLP413     -0.2224
     14  O2P       26.3360   81.3530   17.8170 O.3   413  PLP413     -0.1145
     15  O3P       27.7000   79.2250   17.7510 O.3   413  PLP413     -0.1145
@<TRIPOS>BOND
     1     5     4    1
     2     7     6    1
     3    13    12    2
     4     4     6   ar
     5     4     2   ar
     6     6     8   ar
     7     3     2    1
     8     2     1   ar
     9     8    10    1
    10     8     9   ar
    11    10    11    1
    12    12    11    1
    13    12    15    1
    14    12    14    1
    15     1     9   ar
