@<TRIPOS>MOLECULE
1ws1_BB2_A_1.pdb
 27 27 0 0 0
SMALL
GASTEIGER

@<TRIPOS>ATOM
      1  C5        -4.9730   44.3770   55.2300 C.3   400  BB2400      0.0603
      2  C3        -4.4200   44.0440   53.8400 C.2   400  BB2400      0.0873
      3  O4        -4.4140   44.9500   53.0380 O.2   400  BB2400     -0.5395
      4  N1        -4.0010   42.8200   53.5250 N.am  400  BB2400     -0.2030
      5  O2        -3.5700   42.5550   52.3880 O.3   400  BB2400     -0.4026
      6  C6        -6.5650   44.3290   55.0840 C.3   400  BB2400      0.0845
      7  C12       -7.3070   44.9290   56.2760 C.2   400  BB2400      0.2417
      8  O13       -7.0000   44.6240   57.4030 O.2   400  BB2400     -0.2733
      9  C7        -7.0070   42.8300   54.9920 C.3   400  BB2400      0.0095
     10  C8        -8.5320   42.9080   54.7410 C.3   400  BB2400      0.0005
     11  C9        -9.1510   41.6190   54.5510 C.3   400  BB2400      0.0000
     12  C10      -10.5730   41.7530   54.0230 C.3   400  BB2400      0.0000
     13  C11      -11.5180   42.3420   55.0060 C.3   400  BB2400      0.0000
     14  N14       -8.2950   45.8170   55.9570 N.am  400  BB2400     -0.1978
     15  C15       -9.1130   46.5460   56.9020 C.3   400  BB2400      0.1711
     16  C16       -8.8170   48.0510   56.9830 C.3   400  BB2400      0.0289
     17  C18       -8.7580   48.6800   55.6450 C.3   400  BB2400      0.0023
     18  C17       -7.4890   48.2190   57.6940 C.3   400  BB2400      0.0023
     19  C19      -10.5900   46.2420   56.5180 C.2   400  BB2400      0.2455
     20  O20      -10.8830   46.1010   55.3110 O.2   400  BB2400     -0.2730
     21  N21      -11.5180   46.1150   57.4910 N.am  400  BB2400     -0.2772
     22  C22      -12.9250   45.8040   57.1800 C.3   400  BB2400      0.1083
     23  C23      -11.3130   46.2470   58.9630 C.3   400  BB2400      0.0935
     24  C24      -12.6880   46.0030   59.5370 C.3   400  BB2400      0.0233
     25  C25      -13.4500   45.2600   58.4990 C.3   400  BB2400      0.0243
     26  C26      -13.7070   47.0270   56.7600 C.3   400  BB2400      0.2017
     27  O27      -13.5340   47.3590   55.5740 O.3   400  BB2400     -0.2186
@<TRIPOS>BOND
     1     5     4    1
     2     3     2    2
     3     4     2   am
     4     2     1    1
     5    12    11    1
     6    12    13    1
     7    11    10    1
     8    10     9    1
     9     9     6    1
    10     6     1    1
    11     6     7    1
    12    20    19    2
    13    27    26    1
    14    17    16    1
    15    14     7   am
    16    14    15    1
    17     7     8    2
    18    19    15    1
    19    19    21   am
    20    26    22    1
    21    15    16    1
    22    16    18    1
    23    22    21    1
    24    22    25    1
    25    21    23    1
    26    25    24    1
    27    23    24    1
