@<TRIPOS>MOLECULE
1ws2_URN_A_1.pdb
 10 10 0 0 0
SMALL
GASTEIGER

@<TRIPOS>ATOM
      1  O4        59.2320  -15.5080   10.6510 O.2   900  URN900     -0.2114
      2  C4        59.6850  -15.1560    9.5780 C.1   900  URN900      0.2190
      3  N3        60.4910  -15.9930    8.8180 N.2   900  URN900     -0.2351
      4  C5        59.3110  -13.7680    9.1670 C.3   900  URN900      0.2794
      5  N5        58.5000  -12.9280    9.9490 N.3   900  URN900     -0.1044
      6  C6        59.8310  -13.3680    7.8160 C.2   900  URN900      0.2461
      7  N6        59.5610  -12.1380    7.3010 N.pl3 900  URN900     -0.0941
      8  N1        60.6070  -14.2670    7.1160 N.2   900  URN900     -0.2913
      9  C2        60.9560  -15.5330    7.5710 C.1   900  URN900      0.3663
     10  O2        61.6660  -16.2210    6.7780 O.2   900  URN900     -0.1745
@<TRIPOS>BOND
     1    10     9    2
     2     8     9    2
     3     8     6    2
     4     7     6    1
     5     9     3    2
     6     6     4    1
     7     3     2    2
     8     4     2    1
     9     4     5    1
    10     2     1    2
