@<TRIPOS>MOLECULE
1ws4_GYP_A_1.pdb
 13 13 0 0 0
SMALL
GASTEIGER

@<TRIPOS>ATOM
      1  C1        51.0840   54.1280   66.3810 C.3   501  GYP501      0.2695
      2  C2        51.6640   55.4150   65.7840 C.3   501  GYP501      0.2406
      3  C3        51.6710   56.5720   66.7820 C.3   501  GYP501      0.2198
      4  C4        50.2330   56.8080   67.2470 C.3   501  GYP501      0.2144
      5  C5        49.7010   55.5160   67.9130 C.3   501  GYP501      0.1835
      6  C6        48.2610   55.6660   68.4270 C.3   501  GYP501      0.2142
      7  C7        51.4270   52.3010   67.9180 C.3   501  GYP501      0.1769
      8  O1        51.9540   53.5340   67.3700 O.3   501  GYP501     -0.3259
      9  O2        52.9930   55.1490   65.3030 O.3   501  GYP501     -0.2149
     10  O3        52.2070   57.7500   66.1450 O.3   501  GYP501     -0.2174
     11  O4        50.2100   57.8880   68.1810 O.3   501  GYP501     -0.2176
     12  O5        49.7480   54.4140   66.9400 O.3   501  GYP501     -0.3256
     13  O6        47.3570   55.9400   67.3600 O.3   501  GYP501     -0.2176
@<TRIPOS>BOND
     1     9     2    1
     2     2     1    1
     3     2     3    1
     4    10     3    1
     5     1    12    1
     6     1     8    1
     7     3     4    1
     8    12     5    1
     9     4     5    1
    10     4    11    1
    11    13     6    1
    12     8     7    1
    13     5     6    1
