@<TRIPOS>MOLECULE
1ws4_AMG_E_1.pdb
 13 13 0 0 0
SMALL
GASTEIGER

@<TRIPOS>ATOM
      1  C1        16.7150   88.5010   29.4700 C.3   503  AMG503      0.2695
      2  C2        15.9790   87.8200   30.6440 C.3   503  AMG503      0.2406
      3  C3        15.4700   88.8470   31.6730 C.3   503  AMG503      0.2198
      4  C4        16.6750   89.6330   32.1950 C.3   503  AMG503      0.2144
      5  C5        17.3740   90.3440   31.0180 C.3   503  AMG503      0.1835
      6  C6        18.5930   91.1590   31.4820 C.3   503  AMG503      0.2142
      7  C7        16.4280   89.9210   27.5000 C.3   503  AMG503      0.1769
      8  O1        15.7980   89.2690   28.6360 O.3   503  AMG503     -0.3259
      9  O2        14.8860   87.0360   30.1310 O.3   503  AMG503     -0.2149
     10  O3        14.8000   88.1630   32.7590 O.3   503  AMG503     -0.2174
     11  O4        17.4480   88.8420   33.0170 O.3   503  AMG503     -0.2176
     12  O5        17.8000   89.3470   30.0230 O.3   503  AMG503     -0.3256
     13  O6        19.6590   90.3030   31.8870 O.3   503  AMG503     -0.2176
@<TRIPOS>BOND
     1     7     8    1
     2     8     1    1
     3     1    12    1
     4     1     2    1
     5    12     5    1
     6     9     2    1
     7     2     3    1
     8     5     6    1
     9     5     4    1
    10     6    13    1
    11     3     4    1
    12     3    10    1
    13     4    11    1
