@<TRIPOS>MOLECULE
1ws5_MMA_A_1.pdb
 13 13 0 0 0
SMALL
GASTEIGER

@<TRIPOS>ATOM
      1  C1        51.3820   54.2590   66.5040 C.3   501  MMA501      0.2695
      2  C2        51.9890   55.6140   66.0330 C.3   501  MMA501      0.2406
      3  C3        51.8740   56.6800   67.1330 C.3   501  MMA501      0.2198
      4  C4        50.3980   56.8450   67.5380 C.3   501  MMA501      0.2144
      5  C5        49.8640   55.4890   68.0340 C.3   501  MMA501      0.1835
      6  C6        48.3930   55.5780   68.4330 C.3   501  MMA501      0.2142
      7  C7        52.5500   52.3250   67.9740 C.3   501  MMA501      0.1769
      8  O1        52.2880   53.6050   67.3030 O.3   501  MMA501     -0.3259
      9  O2        51.3600   56.0890   64.8480 O.3   501  MMA501     -0.2149
     10  O3        52.4190   57.9070   66.6670 O.3   501  MMA501     -0.2174
     11  O4        50.2800   57.8230   68.5520 O.3   501  MMA501     -0.2176
     12  O5        49.9950   54.5000   66.9670 O.3   501  MMA501     -0.3256
     13  O6        47.5410   55.8960   67.3390 O.3   501  MMA501     -0.2176
@<TRIPOS>BOND
     1     9     2    1
     2     2     1    1
     3     2     3    1
     4     1    12    1
     5     1     8    1
     6    10     3    1
     7    12     5    1
     8     3     4    1
     9     8     7    1
    10    13     6    1
    11     4     5    1
    12     4    11    1
    13     5     6    1
