@<TRIPOS>MOLECULE
1wsb_FMN_A_1.pdb
 31 33 0 0 0
SMALL
GASTEIGER

@<TRIPOS>ATOM
      1  N1       -13.5270   25.6920  -21.0610 N.2   149  FMN149     -0.2890
      2  C2       -14.2170   24.7520  -20.5970 C.1   149  FMN149      0.3669
      3  O2       -14.7180   24.7400  -19.4840 O.2   149  FMN149     -0.1744
      4  N3       -14.3710   23.5390  -21.4790 N.2   149  FMN149     -0.2300
      5  C4       -13.8330   23.4290  -22.7170 C.1   149  FMN149      0.2513
      6  O4       -13.9770   22.4290  -23.3840 O.2   149  FMN149     -0.2057
      7  C4A      -13.0920   24.5480  -23.2150 C.2   149  FMN149      0.2700
      8  N5       -12.5800   24.5700  -24.4230 N.2   149  FMN149     -0.3878
      9  C5A      -11.9250   25.6710  -24.9020 C.2   149  FMN149      0.1320
     10  C6       -11.5430   25.8350  -26.2810 C.2   149  FMN149      0.0250
     11  C7       -10.9260   26.9740  -26.7860 C.2   149  FMN149     -0.0238
     12  C7M      -10.4830   27.0570  -28.2740 C.3   149  FMN149      0.0308
     13  C8       -10.7170   28.1160  -25.9310 C.2   149  FMN149     -0.0280
     14  C8M      -10.0980   29.4410  -26.4400 C.3   149  FMN149      0.0304
     15  C9       -11.1140   27.9950  -24.6000 C.2   149  FMN149     -0.0041
     16  C9A      -11.7000   26.8370  -24.0520 C.3   149  FMN149      0.1497
     17  N10      -12.1950   26.7230  -22.7280 N.pl3 149  FMN149     -0.2691
     18  C10      -12.9670   25.7040  -22.2240 C.2   149  FMN149      0.2416
     19  C1'      -11.9690   27.9440  -21.8510 C.3   149  FMN149      0.1294
     20  C2'      -10.5750   27.9090  -21.2020 C.3   149  FMN149      0.2044
     21  O2'      -10.5580   26.9100  -20.2140 O.3   149  FMN149     -0.2185
     22  C3'      -10.5680   29.3020  -20.4790 C.3   149  FMN149      0.2164
     23  O3'      -10.2570   30.3240  -21.5170 O.3   149  FMN149     -0.2175
     24  C4'       -9.5190   29.2680  -19.3220 C.3   149  FMN149      0.2147
     25  O4'       -9.6860   30.6140  -18.7300 O.3   149  FMN149     -0.2176
     26  C5'       -8.0410   29.0750  -19.6710 C.3   149  FMN149      0.1892
     27  O5'       -7.2260   29.0200  -18.3760 O.3   149  FMN149     -0.2674
     28  P         -5.7720   29.0940  -18.5050 P.3   149  FMN149      0.5327
     29  O1P       -5.1960   27.9090  -19.3730 O.2   149  FMN149     -0.2224
     30  O2P       -5.2560   30.4270  -18.7710 O.3   149  FMN149     -0.1145
     31  O3P       -5.3530   28.8250  -17.0200 O.3   149  FMN149     -0.1145
@<TRIPOS>BOND
     1    12    11    1
     2    11    10    2
     3    11    13    1
     4    14    13    1
     5    10     9    1
     6    13    15    2
     7     9     8    2
     8     9    16    1
     9    15    16    1
    10     8     7    2
    11    16    17    1
    12     6     5    2
    13     7     5    1
    14     7    18    1
    15    17    18    1
    16    17    19    1
    17     5     4    2
    18    18     1    2
    19    19    20    1
    20    23    22    1
    21     4     2    2
    22    20    22    1
    23    20    21    1
    24     1     2    2
    25     2     3    2
    26    22    24    1
    27    26    24    1
    28    26    27    1
    29    29    28    2
    30    24    25    1
    31    30    28    1
    32    28    27    1
    33    28    31    1
