@<TRIPOS>MOLECULE
1wss_FUC_L_1.pdb
 10 10 0 0 0
SMALL
GASTEIGER

@<TRIPOS>ATOM
      1  C1        21.4880   32.3300   62.1890 C.3   1060  FUC1060     0.1776
      2  C2        20.4590   33.3690   62.6480 C.3   1060  FUC1060     0.2141
      3  C3        20.3230   34.4500   61.5740 C.3   1060  FUC1060     0.2172
      4  C4        19.9620   33.7900   60.2400 C.3   1060  FUC1060     0.2116
      5  C5        21.0120   32.7280   59.8990 C.3   1060  FUC1060     0.1483
      6  C6        20.6620   32.0590   58.5700 C.3   1060  FUC1060     0.0349
      7  O2        20.9180   33.9730   63.8610 O.3   1060  FUC1060    -0.2176
      8  O3        19.2920   35.3730   61.9500 O.3   1060  FUC1060    -0.2175
      9  O4        18.6800   33.1630   60.3550 O.3   1060  FUC1060    -0.2177
     10  O5        21.0830   31.7470   60.9430 O.3   1060  FUC1060    -0.3508
@<TRIPOS>BOND
     1     6     5    1
     2     5     4    1
     3     5    10    1
     4     4     9    1
     5     4     3    1
     6    10     1    1
     7     3     8    1
     8     3     2    1
     9     1     2    1
    10     2     7    1
