@<TRIPOS>MOLECULE
1wss_3CB_H_1.pdb
 41 42 0 0 0
SMALL
GASTEIGER

@<TRIPOS>ATOM
      1  C15       35.6350    6.9440    9.8530 C.2   2001  3CB2001     0.2595
      2  O1        34.8950    7.3560   10.7500 O.2   2001  3CB2001    -0.2718
      3  N17       35.4600    7.2150    8.5260 N.am  2001  3CB2001    -0.1965
      4  C18       34.3770    8.1620    8.2570 C.3   2001  3CB2001     0.1734
      5  C19       34.3420    8.7070    6.8330 C.3   2001  3CB2001     0.0444
      6  C20       35.7170    9.1260    6.3340 C.3   2001  3CB2001     0.1358
      7  C28       33.0670    7.4660    8.6220 C.2   2001  3CB2001     0.2615
      8  O30       32.9150    6.2610    8.4110 O.2   2001  3CB2001    -0.2715
      9  N31       32.1530    8.2830    9.1740 N.am  2001  3CB2001    -0.1991
     10  C32       30.7850    7.8120    9.3680 C.3   2001  3CB2001     0.1415
     11  C16       31.2230    6.5300   11.4540 C.ar  2001  3CB2001    -0.0023
     12  C17       31.0710    6.3040   12.8190 C.ar  2001  3CB2001     0.0077
     13  C22       30.1680    7.0620   13.5950 C.ar  2001  3CB2001     0.0975
     14  C23       29.3760    8.0410   12.9440 C.ar  2001  3CB2001     0.0077
     15  C24       29.5480    8.2900   11.5610 C.ar  2001  3CB2001    -0.0023
     16  C25       30.4880    7.5400   10.8150 C.ar  2001  3CB2001    -0.0006
     17  C26       30.0880    6.8150   15.0720 C.2   2001  3CB2001     0.4766
     18  N1        30.7370    5.7890   15.6480 N.pl3 2001  3CB2001     0.2047
     19  C2        35.7020    9.6530    4.9350 C.2   2001  3CB2001     0.4538
     20  N5        35.5980    8.8570    3.8740 N.pl3 2001  3CB2001     0.1994
     21  N3        35.8490   10.9690    4.7870 N.pl3 2001  3CB2001     0.1994
     22  C1        37.9540    7.0460   10.7650 C.3   2001  3CB2001     0.0268
     23  C4        39.1810    6.3040   11.2910 C.3   2001  3CB2001     0.0019
     24  N4        36.5420    5.0920   11.2670 N.3   2001  3CB2001    -0.0738
     25  C5        36.8590    6.0720   10.2120 C.3   2001  3CB2001     0.1747
     26  C3        38.3460    8.1880    9.7960 C.3   2001  3CB2001     0.0020
     27  S1        35.6830    3.6380   10.8750 S.O2  2001  3CB2001     0.0620
     28  O4        35.8400    2.8040   12.0080 O.2   2001  3CB2001    -0.1558
     29  O3        36.2380    3.2460    9.6320 O.2   2001  3CB2001    -0.1558
     30  C9        33.9860    4.0530   10.6240 C.3   2001  3CB2001     0.1969
     31  C6        39.8250    5.4620   10.1910 C.3   2001  3CB2001     0.0001
     32  C8        33.1190    2.9000   10.2910 C.ar  2001  3CB2001     0.0032
     33  C7        33.1420    2.3650    8.9960 C.ar  2001  3CB2001     0.0041
     34  C12       32.3720    1.2360    8.6800 C.ar  2001  3CB2001     0.0795
     35  C10       31.5960    0.6220    9.6860 C.ar  2001  3CB2001     0.0066
     36  C11       31.5630    1.1520   10.9870 C.ar  2001  3CB2001    -0.0001
     37  C13       32.3150    2.3060   11.2810 C.ar  2001  3CB2001    -0.0025
     38  N2        29.3430    7.5940   15.8580 N.pl3 2001  3CB2001     0.2047
     39  C14       32.3730    0.7070    7.3180 C.2   2001  3CB2001     0.3877
     40  O2        31.7120   -0.3020    7.0750 O.co2 2001  3CB2001    -0.2406
     41  O5        33.0290    1.2970    6.4610 O.co2 2001  3CB2001    -0.2406
@<TRIPOS>BOND
     1    20    19    2
     2    21    19    1
     3    19     6    1
     4     6     5    1
     5    41    39   ar
     6     5     4    1
     7    40    39   ar
     8    39    34    1
     9     4     3    1
    10     4     7    1
    11     8     7    2
    12     3     1   am
    13     7     9   am
    14    34    33   ar
    15    34    35   ar
    16    33    32   ar
    17     9    10    1
    18    10    16    1
    19    29    27    2
    20    35    36   ar
    21    26    22    1
    22     1    25    1
    23     1     2    2
    24    31    23    1
    25    25    22    1
    26    25    24    1
    27    32    30    1
    28    32    37   ar
    29    30    27    1
    30    22    23    1
    31    16    11   ar
    32    16    15   ar
    33    27    24    1
    34    27    28    2
    35    36    37   ar
    36    11    12   ar
    37    15    14   ar
    38    12    13   ar
    39    14    13   ar
    40    13    17    1
    41    17    18    2
    42    17    38    1
