@<TRIPOS>MOLECULE
1wss_BGC_L_1.pdb
 11 11 0 0 0
SMALL
GASTEIGER

@<TRIPOS>ATOM
      1  C2        38.2640   35.4870   61.1970 C.3   1052  BGC1052     0.2141
      2  C3        38.4220   34.3930   60.1400 C.3   1052  BGC1052     0.2173
      3  C4        39.2960   33.2780   60.7070 C.3   1052  BGC1052     0.2142
      4  C5        38.6830   32.7410   62.0130 C.3   1052  BGC1052     0.1810
      5  C6        39.6240   31.6870   62.6160 C.3   1052  BGC1052     0.2141
      6  C1        37.6560   34.8690   62.4910 C.3   1052  BGC1052     0.1777
      7  O2        37.4030   36.5100   60.6820 O.3   1052  BGC1052    -0.2176
      8  O3        39.0450   34.9380   58.9650 O.3   1052  BGC1052    -0.2175
      9  O4        39.3830   32.2140   59.7480 O.3   1052  BGC1052    -0.2176
     10  O5        38.4890   33.7980   62.9670 O.3   1052  BGC1052    -0.3481
     11  O6        40.0240   30.7270   61.6510 O.3   1052  BGC1052    -0.2176
@<TRIPOS>BOND
     1     8     2    1
     2     9     3    1
     3     2     3    1
     4     2     1    1
     5     7     1    1
     6     3     4    1
     7     1     6    1
     8    11     5    1
     9     4     5    1
    10     4    10    1
    11     6    10    1
