@<TRIPOS>MOLECULE
1wst_PLP_A_1.pdb
 15 15 0 0 0
SMALL
GASTEIGER

@<TRIPOS>ATOM
      1  N1        11.0060   28.0370   39.8860 N.2   418  PLP418     -0.2505
      2  C2        11.1800   28.2700   41.2560 C.2   418  PLP418      0.0675
      3  C2A       12.1200   27.4060   42.0110 C.3   418  PLP418      0.0499
      4  C3        10.5980   29.4700   41.8150 C.3   418  PLP418      0.1913
      5  O3        10.6280   29.5590   43.1940 O.3   418  PLP418     -0.2167
      6  C4         9.9090   30.3670   40.9810 C.3   418  PLP418      0.0581
      7  C4A        9.5730   31.6940   41.5800 C.3   418  PLP418      0.0075
      8  C5         9.7020   30.0780   39.6250 C.2   418  PLP418      0.0073
      9  C6        10.2770   28.8810   39.0590 C.2   418  PLP418      0.0921
     10  C5A        8.9950   30.9500   38.6110 C.3   418  PLP418      0.1776
     11  O4P        7.8090   30.3730   38.0280 O.3   418  PLP418     -0.2656
     12  P          7.1480   31.1340   36.9270 P.3   418  PLP418      0.5329
     13  O1P        8.1490   31.7430   35.9000 O.2   418  PLP418     -0.2224
     14  O2P        6.1690   30.1220   36.2180 O.3   418  PLP418     -0.1145
     15  O3P        6.3560   32.3210   37.5780 O.3   418  PLP418     -0.1145
@<TRIPOS>BOND
     1    13    12    2
     2    14    12    1
     3    12    15    1
     4    12    11    1
     5    11    10    1
     6    10     8    1
     7     9     8    2
     8     9     1    1
     9     8     6    1
    10     1     2    2
    11     6     7    1
    12     6     4    1
    13     2     4    1
    14     2     3    1
    15     4     5    1
