@<TRIPOS>MOLECULE
1wsv_THH_A_1.pdb
 33 35 0 0 0
SMALL
GASTEIGER

@<TRIPOS>ATOM
      1  OE1       22.0420   43.2530   51.2930 O.co2 3001  THH3001    -0.2457
      2  CD        22.1560   42.2930   50.4770 C.2   3001  THH3001     0.3649
      3  OE2       21.4010   42.2090   49.4700 O.co2 3001  THH3001    -0.2457
      4  CG        23.2600   41.3030   50.8160 C.3   3001  THH3001     0.1164
      5  CB        22.9350   40.5850   52.1180 C.3   3001  THH3001     0.0451
      6  CA        23.9150   39.4620   52.3700 C.3   3001  THH3001     0.1986
      7  CT        24.0230   39.0110   53.7940 C.2   3001  THH3001     0.3842
      8  O1        23.1390   38.3000   54.3150 O.co2 3001  THH3001    -0.2437
      9  O2        25.0560   39.3820   54.3910 O.co2 3001  THH3001    -0.2437
     10  N         23.5690   38.3350   51.5370 N.am  3001  THH3001    -0.1918
     11  C         24.4430   37.8040   50.6690 C.2   3001  THH3001     0.2652
     12  O         25.5980   38.1580   50.4460 O.2   3001  THH3001    -0.2684
     13  C12       23.9340   36.6050   49.8840 C.ar  3001  THH3001     0.0551
     14  C13       23.0500   35.6020   50.3680 C.ar  3001  THH3001     0.0059
     15  C14       22.5940   34.4690   49.6100 C.ar  3001  THH3001     0.0162
     16  C15       23.0200   34.2820   48.2840 C.ar  3001  THH3001     0.0654
     17  C16       23.8890   35.2770   47.8150 C.ar  3001  THH3001     0.0162
     18  C17       24.3300   36.3810   48.5580 C.ar  3001  THH3001     0.0059
     19  N10       22.7420   33.3200   47.4130 N.pl3 3001  THH3001    -0.2361
     20  C9        21.5960   33.3730   46.4920 C.3   3001  THH3001     0.1302
     21  C6        22.0610   32.6680   45.2180 C.3   3001  THH3001     0.1062
     22  C7        21.4180   32.9550   43.8830 C.3   3001  THH3001     0.1547
     23  N8        22.0960   34.0610   43.2260 N.2   3001  THH3001    -0.2096
     24  C8A       23.4020   34.3600   43.3830 C.1   3001  THH3001     0.1050
     25  N1        23.8340   35.3790   42.5770 N.2   3001  THH3001    -0.2726
     26  C4A       24.2180   33.5840   44.3840 C.3   3001  THH3001     0.2763
     27  N5        23.5400   32.5800   45.1090 N.3   3001  THH3001    -0.2435
     28  C11       24.3550   31.5120   45.6330 C.3   3001  THH3001     0.0915
     29  C4        25.6290   34.0380   44.4050 C.1   3001  THH3001     0.2218
     30  O4        26.6680   33.6300   45.1120 O.2   3001  THH3001    -0.2109
     31  N3        25.9140   35.0760   43.5390 N.2   3001  THH3001    -0.2515
     32  C2        25.1070   35.7540   42.6530 C.1   3001  THH3001     0.2603
     33  NA2       25.6260   36.7540   41.9070 N.pl3 3001  THH3001    -0.0221
@<TRIPOS>BOND
     1    33    32    1
     2    25    32    2
     3    25    24    2
     4    32    31    2
     5    23    24    2
     6    23    22    1
     7    24    26    1
     8    31    29    2
     9    22    21    1
    10    26    29    1
    11    26    27    1
    12    29    30    2
    13    27    21    1
    14    27    28    1
    15    21    20    1
    16    20    19    1
    17    19    16    1
    18    17    16   ar
    19    17    18   ar
    20    16    15   ar
    21    18    13   ar
    22     3     2   ar
    23    15    14   ar
    24    13    14   ar
    25    13    11    1
    26    12    11    2
    27     2     4    1
    28     2     1   ar
    29    11    10   am
    30     4     5    1
    31    10     6    1
    32     5     6    1
    33     6     7    1
    34     7     8   ar
    35     7     9   ar
