@<TRIPOS>MOLECULE
1wsw_FMN_A_1.pdb
 31 33 0 0 0
SMALL
GASTEIGER

@<TRIPOS>ATOM
      1  N1        79.2280   11.4210    6.1770 N.2   149  FMN149     -0.2887
      2  C2        79.4630   12.3730    5.2420 C.1   149  FMN149      0.3669
      3  O2        80.4090   13.1360    5.3120 O.2   149  FMN149     -0.1744
      4  N3        78.6050   12.4530    4.1370 N.2   149  FMN149     -0.2300
      5  C4        77.5420   11.6190    3.9400 C.1   149  FMN149      0.2513
      6  O4        76.8270   11.7360    2.9200 O.2   149  FMN149     -0.2057
      7  C4A       77.3130   10.6560    4.8890 C.2   149  FMN149      0.2706
      8  N5        76.3560    9.8650    4.7170 N.2   149  FMN149     -0.3841
      9  C5A       76.1480    8.8890    5.6150 C.2   149  FMN149      0.1452
     10  C6        75.1210    7.9570    5.3710 C.2   149  FMN149      0.0252
     11  C7        74.9270    6.9020    6.1840 C.2   149  FMN149     -0.0375
     12  C7M       73.7880    5.8170    5.8210 C.3   149  FMN149      0.0268
     13  C8        75.7380    6.7080    7.3090 C.3   149  FMN149      0.0417
     14  C8M       75.4930    5.4980    8.2100 C.3   149  FMN149      0.0091
     15  C9        76.7450    7.6040    7.6190 C.2   149  FMN149     -0.0049
     16  C9A       76.9650    8.7000    6.7790 C.2   149  FMN149      0.0795
     17  N10       77.9460    9.5970    6.9160 N.pl3 149  FMN149     -0.2545
     18  C10       78.1780   10.6000    5.9740 C.2   149  FMN149      0.2449
     19  C1'       78.9480    9.5320    8.0270 C.3   149  FMN149      0.1336
     20  C2'       78.4400   10.1950    9.4150 C.3   149  FMN149      0.2048
     21  O2'       78.2910   11.6660    9.0410 O.3   149  FMN149     -0.2185
     22  C3'       79.5380    9.9530   10.3460 C.3   149  FMN149      0.2165
     23  O3'       79.2880    8.6620   10.9660 O.3   149  FMN149     -0.2175
     24  C4'       79.6630   10.9990   11.4940 C.3   149  FMN149      0.2147
     25  O4'       80.7550   10.6490   12.4870 O.3   149  FMN149     -0.2176
     26  C5'       78.3780   11.0780   12.2160 C.3   149  FMN149      0.1892
     27  O5'       78.4560   12.2320   13.1960 O.3   149  FMN149     -0.2674
     28  P         77.4140   12.2530   14.4270 P.3   149  FMN149      0.5327
     29  O1P       77.6670   11.1310   15.4610 O.3   149  FMN149     -0.1145
     30  O2P       75.8280   12.1320   14.1500 O.2   149  FMN149     -0.2224
     31  O3P       77.6270   13.5920   15.0650 O.3   149  FMN149     -0.1145
@<TRIPOS>BOND
     1     6     5    2
     2     5     4    2
     3     5     7    1
     4     4     2    2
     5     8     7    2
     6     8     9    2
     7     7    18    1
     8     2     3    2
     9     2     1    2
    10    10     9    1
    11    10    11    2
    12     9    16    1
    13    12    11    1
    14    18     1    2
    15    18    17    1
    16    11    13    1
    17    16    17    1
    18    16    15    2
    19    17    19    1
    20    13    15    1
    21    13    14    1
    22    19    20    1
    23    21    20    1
    24    20    22    1
    25    22    23    1
    26    22    24    1
    27    24    26    1
    28    24    25    1
    29    26    27    1
    30    27    28    1
    31    30    28    2
    32    28    31    1
    33    28    29    1
