@<TRIPOS>MOLECULE
1wt1_UDP_A_1.pdb
 25 26 0 0 0
SMALL
GASTEIGER

@<TRIPOS>ATOM
      1  N1        12.0970   52.8970   50.4030 N.am  475  UDP475     -0.1766
      2  C2        12.2120   52.0880   51.5420 C.1   475  UDP475      0.2845
      3  N3        12.1020   52.7150   52.7870 N.2   475  UDP475     -0.2452
      4  C4        11.8850   54.0910   53.0670 C.1   475  UDP475      0.2182
      5  C5        11.7640   54.9370   51.9130 C.2   475  UDP475      0.1242
      6  C6        11.8790   54.2820   50.5490 C.2   475  UDP475      0.0929
      7  O2        12.4030   50.8670   51.4650 O.2   475  UDP475     -0.1918
      8  O4        11.8200   54.4350   54.2480 O.2   475  UDP475     -0.2085
      9  C1'       12.2090   52.2700   49.0500 C.3   475  UDP475      0.2401
     10  C2'       10.8680   51.9360   48.3410 C.3   475  UDP475      0.2319
     11  O2'       10.8680   50.6020   47.8680 O.3   475  UDP475     -0.2157
     12  C3'       10.7780   52.9820   47.2030 C.3   475  UDP475      0.2158
     13  C4'       12.2340   53.2920   46.8990 C.3   475  UDP475      0.1799
     14  O4'       12.9230   53.1590   48.1740 O.3   475  UDP475     -0.3320
     15  O3'       10.1580   52.3620   46.0700 O.3   475  UDP475     -0.2175
     16  C5'       12.4440   54.7200   46.3680 C.3   475  UDP475      0.1813
     17  O5'       12.3170   55.6340   47.4490 O.3   475  UDP475     -0.3111
     18  PA        11.5060   56.9740   47.6620 P.3   475  UDP475      0.2231
     19  O1A       10.0740   56.7020   47.3480 O.2   475  UDP475     -0.5169
     20  O2A       11.8130   57.4510   49.0560 O.3   475  UDP475     -0.4370
     21  O3A       12.1980   57.8090   46.4890 O.3   475  UDP475     -0.2261
     22  PB        12.5370   59.3650   46.3070 P.3   475  UDP475      0.5373
     23  O1B       11.9500   59.7360   44.8440 O.2   475  UDP475     -0.2221
     24  O2B       14.0170   59.3610   46.3480 O.3   475  UDP475     -0.1143
     25  O3B       11.7770   60.2580   47.2220 O.3   475  UDP475     -0.1143
@<TRIPOS>BOND
     1    23    22    2
     2    15    12    1
     3    22    24    1
     4    22    21    1
     5    22    25    1
     6    16    13    1
     7    16    17    1
     8    21    18    1
     9    13    12    1
    10    13    14    1
    11    12    10    1
    12    19    18    2
    13    17    18    1
    14    18    20    1
    15    11    10    1
    16    14     9    1
    17    10     9    1
    18     9     1    1
    19     1     6    1
    20     1     2   am
    21     6     5    2
    22     7     2    2
    23     2     3    2
    24     5     4    1
    25     3     4    2
    26     4     8    2
