@<TRIPOS>MOLECULE
1wt1_FUC_A_1.pdb
 10 10 0 0 0
SMALL
GASTEIGER

@<TRIPOS>ATOM
      1  C1        14.6990   62.7120   45.4160 C.3   453  FUC453      0.1776
      2  C2        13.3480   63.0590   46.0580 C.3   453  FUC453      0.2141
      3  C3        13.0870   64.5640   45.9830 C.3   453  FUC453      0.2172
      4  C4        13.2190   65.0500   44.5410 C.3   453  FUC453      0.2116
      5  C5        14.5870   64.6460   43.9750 C.3   453  FUC453      0.1483
      6  C6        14.7410   65.0220   42.5140 C.3   453  FUC453      0.0349
      7  O2        13.3530   62.6520   47.4180 O.3   453  FUC453     -0.2176
      8  O3        11.7810   64.8460   46.4660 O.3   453  FUC453     -0.2175
      9  O4        12.1830   64.4890   43.7490 O.3   453  FUC453     -0.2177
     10  O5        14.7670   63.2130   44.0660 O.3   453  FUC453     -0.3508
@<TRIPOS>BOND
     1     6     5    1
     2     9     4    1
     3     5    10    1
     4     5     4    1
     5    10     1    1
     6     4     3    1
     7     1     2    1
     8     3     2    1
     9     3     8    1
    10     2     7    1
