@<TRIPOS>MOLECULE
1wt2_UDP_A_1.pdb
 25 26 0 0 0
SMALL
GASTEIGER

@<TRIPOS>ATOM
      1  N1        13.3620   53.3530   48.6010 N.am  475  UDP475     -0.1766
      2  C2        14.1030   52.4900   49.4190 C.1   475  UDP475      0.2845
      3  N3        14.4110   52.9380   50.7090 N.2   475  UDP475     -0.2452
      4  C4        14.0690   54.1740   51.3200 C.1   475  UDP475      0.2182
      5  C5        13.3090   55.0710   50.4980 C.2   475  UDP475      0.1242
      6  C6        12.9620   54.6110   49.0960 C.2   475  UDP475      0.0929
      7  O2        14.4770   51.3760   49.0310 O.2   475  UDP475     -0.1918
      8  O4        14.4450   54.3690   52.4780 O.2   475  UDP475     -0.2085
      9  C1'       13.0090   52.9200   47.2140 C.3   475  UDP475      0.2401
     10  C2'       11.6160   52.2590   47.0370 C.3   475  UDP475      0.2319
     11  O2'       11.7290   51.0290   46.3480 O.3   475  UDP475     -0.2157
     12  C3'       10.7940   53.3130   46.2560 C.3   475  UDP475      0.2158
     13  C4'       11.8470   54.1070   45.5050 C.3   475  UDP475      0.1799
     14  O4'       13.0330   54.0640   46.3460 O.3   475  UDP475     -0.3320
     15  O3'        9.9440   52.6260   45.3290 O.3   475  UDP475     -0.2175
     16  C5'       11.4300   55.5730   45.2850 C.3   475  UDP475      0.1813
     17  O5'       12.1580   56.4070   46.1760 O.3   475  UDP475     -0.3111
     18  PA        11.7440   57.5330   47.2040 P.3   475  UDP475      0.2231
     19  O1A       10.7190   56.9640   48.1180 O.3   475  UDP475     -0.4370
     20  O2A       13.0140   58.0300   47.8420 O.2   475  UDP475     -0.5169
     21  O3A       11.0720   58.5250   46.1460 O.3   475  UDP475     -0.2261
     22  PB        11.6490   59.4330   44.9550 P.3   475  UDP475      0.5373
     23  O1B       11.6950   58.4380   43.6780 O.2   475  UDP475     -0.2221
     24  O2B       13.0010   59.7810   45.4540 O.3   475  UDP475     -0.1143
     25  O3B       10.7230   60.5130   44.5240 O.3   475  UDP475     -0.1143
@<TRIPOS>BOND
     1    23    22    2
     2    25    22    1
     3    22    24    1
     4    22    21    1
     5    16    13    1
     6    16    17    1
     7    15    12    1
     8    13    12    1
     9    13    14    1
    10    21    18    1
    11    17    18    1
    12    12    10    1
    13    14     9    1
    14    11    10    1
    15    10     9    1
    16    18    20    2
    17    18    19    1
    18     9     1    1
    19     1     6    1
    20     1     2   am
    21     7     2    2
    22     6     5    2
    23     2     3    2
    24     5     4    1
    25     3     4    2
    26     4     8    2
