@<TRIPOS>MOLECULE
1wt2_FUC_A_1.pdb
 10 10 0 0 0
SMALL
GASTEIGER

@<TRIPOS>ATOM
      1  C1        14.6770   62.6220   45.4610 C.3   453  FUC453      0.1776
      2  C2        13.3300   62.9090   46.1370 C.3   453  FUC453      0.2141
      3  C3        13.0060   64.4070   46.0800 C.3   453  FUC453      0.2172
      4  C4        13.1220   64.9350   44.6450 C.3   453  FUC453      0.2116
      5  C5        14.4800   64.5530   44.0390 C.3   453  FUC453      0.1483
      6  C6        14.5940   64.9450   42.5790 C.3   453  FUC453      0.0349
      7  O2        13.3760   62.4860   47.4920 O.3   453  FUC453     -0.2176
      8  O3        11.6880   64.6250   46.5600 O.3   453  FUC453     -0.2175
      9  O4        12.0760   64.4020   43.8490 O.3   453  FUC453     -0.2177
     10  O5        14.6750   63.1220   44.1120 O.3   453  FUC453     -0.3508
@<TRIPOS>BOND
     1     6     5    1
     2     9     4    1
     3     5    10    1
     4     5     4    1
     5    10     1    1
     6     4     3    1
     7     1     2    1
     8     3     2    1
     9     3     8    1
    10     2     7    1
