@<TRIPOS>MOLECULE
1wt2_DLG_A_1.pdb
 17 17 0 0 0
SMALL
GASTEIGER

@<TRIPOS>ATOM
      1  C1        17.9790   64.1170   46.0210 C.3   452  DLG452      0.2668
      2  C2        17.0540   62.9190   45.7630 C.3   452  DLG452      0.2105
      3  C3        17.5630   61.7170   46.5580 C.3   452  DLG452      0.0737
      4  C4        19.0130   61.4300   46.1780 C.3   452  DLG452      0.1843
      5  C5        19.8520   62.6840   46.4390 C.3   452  DLG452      0.1809
      6  C6        21.3140   62.5110   46.0620 C.3   452  DLG452      0.2141
      7  O1        17.5720   65.2310   45.2320 O.3   452  DLG452     -0.3286
      8  O2        15.7050   63.2390   46.1670 O.3   452  DLG452     -0.2176
      9  O4        19.0790   61.0880   44.7990 O.3   452  DLG452     -0.2204
     10  O5        19.3330   63.7870   45.6650 O.3   452  DLG452     -0.3258
     11  O6        22.0930   63.6180   46.4980 O.3   452  DLG452     -0.2176
     12  C11       17.9890   66.5050   45.8090 C.3   452  DLG452      0.1452
     13  C12       17.5860   67.4410   44.6520 C.3   452  DLG452      0.0368
     14  C13       17.8390   68.9900   44.8880 C.3   452  DLG452      0.0283
     15  C14       19.3930   69.4350   44.9220 C.2   452  DLG452     -0.0306
     16  C15       19.7550   70.7910   45.2090 C.2   452  DLG452     -0.0304
     17  C16       21.1300   71.2990   44.8100 C.3   452  DLG452      0.0303
@<TRIPOS>BOND
     1    13    14    1
     2    13    12    1
     3     9     4    1
     4    17    16    1
     5    14    15    1
     6    15    16    2
     7     7    12    1
     8     7     1    1
     9    10     1    1
    10    10     5    1
    11     2     1    1
    12     2     8    1
    13     2     3    1
    14     6     5    1
    15     6    11    1
    16     4     5    1
    17     4     3    1
