@<TRIPOS>MOLECULE
1wt3_UDP_A_1.pdb
 25 26 0 0 0
SMALL
GASTEIGER

@<TRIPOS>ATOM
      1  N1        12.0650   52.1430   48.6350 N.am  475  UDP475     -0.1766
      2  C2        12.4340   51.4110   49.7730 C.1   475  UDP475      0.2845
      3  N3        12.8760   52.1370   50.8860 N.2   475  UDP475     -0.2452
      4  C4        13.0070   53.5440   51.0270 C.1   475  UDP475      0.2182
      5  C5        12.6330   54.3110   49.8740 C.2   475  UDP475      0.1242
      6  C6        12.1510   53.5510   48.6530 C.2   475  UDP475      0.0929
      7  O2        12.3770   50.1740   49.8080 O.2   475  UDP475     -0.1918
      8  O4        13.4200   53.9800   52.1030 O.2   475  UDP475     -0.2085
      9  C1'       11.5870   51.4140   47.4170 C.3   475  UDP475      0.2401
     10  C2'       10.0610   51.1370   47.3510 C.3   475  UDP475      0.2319
     11  O2'        9.8000   49.7680   47.1070 O.3   475  UDP475     -0.2157
     12  C3'        9.5600   52.0540   46.2120 C.3   475  UDP475      0.2158
     13  C4'       10.7820   52.2690   45.3410 C.3   475  UDP475      0.1799
     14  O4'       11.9160   52.1850   46.2480 O.3   475  UDP475     -0.3320
     15  O3'        8.5510   51.3500   45.4810 O.3   475  UDP475     -0.2175
     16  C5'       10.7710   53.6470   44.6540 C.3   475  UDP475      0.1813
     17  O5'       11.6830   54.5190   45.3140 O.3   475  UDP475     -0.3111
     18  PA        11.6110   56.0250   45.7970 P.3   475  UDP475      0.2231
     19  O1A       10.4060   56.1730   46.6600 O.3   475  UDP475     -0.4370
     20  O2A       12.9370   56.3440   46.4350 O.2   475  UDP475     -0.5169
     21  O3A       11.3670   56.6830   44.3590 O.3   475  UDP475     -0.2261
     22  PB        11.6100   58.1550   43.7660 P.3   475  UDP475      0.5373
     23  O1B       10.9660   58.1030   42.2820 O.2   475  UDP475     -0.2221
     24  O2B       13.0880   58.2380   43.7460 O.3   475  UDP475     -0.1143
     25  O3B       10.8260   59.2200   44.4480 O.3   475  UDP475     -0.1143
@<TRIPOS>BOND
     1    23    22    2
     2    24    22    1
     3    22    21    1
     4    22    25    1
     5    21    18    1
     6    16    17    1
     7    16    13    1
     8    17    18    1
     9    13    12    1
    10    13    14    1
    11    15    12    1
    12    18    20    2
    13    18    19    1
    14    12    10    1
    15    14     9    1
    16    11    10    1
    17    10     9    1
    18     9     1    1
    19     1     6    1
    20     1     2   am
    21     6     5    2
    22     2     7    2
    23     2     3    2
    24     5     4    1
    25     3     4    2
    26     4     8    2
