@<TRIPOS>MOLECULE
1wta_ADE_A_1.pdb
 10 11 0 0 0
SMALL
GASTEIGER

@<TRIPOS>ATOM
      1  N9         5.9260   17.5510   21.7790 N.2   1300  ADE1300    -0.1914
      2  C8         6.0020   18.6460   22.5960 C.3   1300  ADE1300     0.2618
      3  N7         5.1240   18.6380   23.5710 N.2   1300  ADE1300    -0.2267
      4  C5         4.4200   17.4630   23.3850 C.2   1300  ADE1300     0.2303
      5  C6         3.3360   16.8840   24.0850 C.2   1300  ADE1300     0.4393
      6  N6         2.7770   17.4280   25.1850 N.pl3 1300  ADE1300     0.2185
      7  N1         2.8580   15.6970   23.6210 N.2   1300  ADE1300    -0.0265
      8  C2         3.4370   15.1550   22.5340 C.3   1300  ADE1300     0.4008
      9  N3         4.4540   15.6130   21.7990 N.2   1300  ADE1300    -0.1640
     10  C4         4.8990   16.7860   22.2740 C.1   1300  ADE1300     0.0579
@<TRIPOS>BOND
     1     1    10    2
     2     1     2    1
     3     9    10    2
     4     9     8    1
     5    10     4    1
     6     8     7    1
     7     2     3    1
     8     4     3    2
     9     4     5    1
    10     7     5    2
    11     5     6    1
