@<TRIPOS>MOLECULE
1wtc_ACP_A_1.pdb
 31 33 0 0 0
SMALL
GASTEIGER

@<TRIPOS>ATOM
      1  PG        -2.7100   47.9840   28.0920 P.3   370  ACP370      0.1295
      2  O1G       -2.7480   48.2730   26.5070 O.2   370  ACP370     -0.4595
      3  O2G       -3.7060   47.1510   28.4150 O.3   370  ACP370     -0.3567
      4  O3G       -1.1200   47.2180   28.2520 O.3   370  ACP370     -0.3567
      5  PB        -3.1810   50.7590   28.5850 P.3   370  ACP370      0.3815
      6  O1B       -4.4140   51.1760   29.2340 O.3   370  ACP370     -0.1391
      7  O2B       -2.7830   51.5400   27.4200 O.2   370  ACP370     -0.2547
      8  C3B       -2.1680   49.2770   28.9030 C.3   370  ACP370      0.1768
      9  PA        -0.9630   52.3660   30.1570 P.3   370  ACP370      0.2209
     10  O1A        0.2530   51.6470   29.6250 O.2   370  ACP370     -0.5170
     11  O2A       -0.8940   52.6430   31.6260 O.3   370  ACP370     -0.4371
     12  O3A       -2.1630   51.3730   29.7230 O.3   370  ACP370     -0.2483
     13  O5'       -0.5940   53.5400   29.2150 O.3   370  ACP370     -0.3111
     14  C5'       -1.2980   54.6730   29.1390 C.3   370  ACP370      0.1813
     15  C4'       -0.8040   55.8690   28.2000 C.3   370  ACP370      0.1821
     16  O4'       -1.4950   56.9810   28.6030 O.3   370  ACP370     -0.3135
     17  C3'        0.6570   56.0950   28.5410 C.3   370  ACP370      0.2184
     18  O3'        1.4140   56.6160   27.4320 O.3   370  ACP370     -0.2174
     19  C2'        0.5710   57.0150   29.8010 C.3   370  ACP370      0.2570
     20  O2'        1.6930   57.8570   29.9840 O.3   370  ACP370     -0.2130
     21  C1'       -0.7000   57.6990   29.5630 C.3   370  ACP370      0.3186
     22  N9        -1.6170   57.8610   30.7530 N.pl3 370  ACP370     -0.1439
     23  C8        -1.9390   57.0240   31.7740 C.3   370  ACP370      0.3377
     24  N7        -2.7940   57.4920   32.6660 N.2   370  ACP370     -0.2095
     25  C5        -3.0360   58.7000   32.1910 C.2   370  ACP370      0.2526
     26  C6        -3.8700   59.8100   32.6130 C.2   370  ACP370      0.4393
     27  N6        -4.6220   59.7070   33.7360 N.pl3 370  ACP370      0.2180
     28  N1        -3.9210   61.0180   31.8740 N.2   370  ACP370      0.0021
     29  C2        -3.1710   61.1660   30.7210 C.3   370  ACP370      0.5254
     30  N3        -2.3510   60.1600   30.2420 N.2   370  ACP370     -0.0055
     31  C4        -2.3210   58.9770   30.9950 C.2   370  ACP370      0.3518
@<TRIPOS>BOND
     1     2     1    2
     2     7     5    2
     3    18    17    1
     4     1     4    1
     5     1     3    1
     6     1     8    1
     7    15    17    1
     8    15    16    1
     9    15    14    1
    10    17    19    1
    11     5     8    1
    12     5     6    1
    13     5    12    1
    14    16    21    1
    15    14    13    1
    16    13     9    1
    17    21    19    1
    18    21    22    1
    19    10     9    2
    20    12     9    1
    21    19    20    1
    22     9    11    1
    23    30    29    1
    24    30    31    2
    25    29    28    1
    26    22    31    1
    27    22    23    1
    28    31    25    1
    29    23    24    1
    30    28    26    2
    31    25    26    1
    32    25    24    2
    33    26    27    1
