@<TRIPOS>MOLECULE
1wtc_PLP_A_1.pdb
 15 15 0 0 0
SMALL
GASTEIGER

@<TRIPOS>ATOM
      1  N1        14.3010   56.8280   24.7920 N.ar  350  PLP350     -0.2452
      2  C2        13.2560   56.9390   25.6940 C.ar  350  PLP350      0.0978
      3  C2A       11.8240   57.1850   25.1400 C.3   350  PLP350      0.0555
      4  C3        13.4960   56.8330   27.0560 C.ar  350  PLP350      0.2049
      5  O3        12.4360   56.9520   27.9850 O.3   350  PLP350     -0.2857
      6  C4        14.7890   56.6150   27.5110 C.ar  350  PLP350      0.0182
      7  C4A       15.0110   56.4870   29.0350 C.3   350  PLP350      0.0342
      8  C5        15.8440   56.5030   26.5620 C.ar  350  PLP350      0.0261
      9  C6        15.5740   56.6130   25.2300 C.ar  350  PLP350      0.0965
     10  C5A       17.3270   56.2660   26.9500 C.3   350  PLP350      0.1815
     11  O4P       17.5840   54.9420   27.4830 O.3   350  PLP350     -0.2653
     12  P         18.8480   54.7310   28.4490 P.3   350  PLP350      0.5329
     13  O1P       19.0370   55.8700   29.3760 O.3   350  PLP350     -0.1145
     14  O2P       20.0350   54.8450   27.4240 O.2   350  PLP350     -0.2224
     15  O3P       18.7390   53.3380   28.9650 O.3   350  PLP350     -0.1145
@<TRIPOS>BOND
     1     1     9   ar
     2     1     2   ar
     3     3     2    1
     4     9     8   ar
     5     2     4   ar
     6     8    10    1
     7     8     6   ar
     8    10    11    1
     9     4     6   ar
    10     4     5    1
    11    14    12    2
    12    11    12    1
    13     6     7    1
    14    12    15    1
    15    12    13    1
