@<TRIPOS>MOLECULE
1wtf_COA_A_1.pdb
 48 50 0 0 0
SMALL
GASTEIGER

@<TRIPOS>ATOM
      1  N1A      -28.0290  -27.6410    6.6620 N.2   105  COA105      0.0021
      2  C2A      -27.0910  -27.1650    5.7340 C.3   105  COA105      0.5254
      3  N3A      -26.9810  -25.8840    5.4130 N.2   105  COA105     -0.0055
      4  C4A      -27.8670  -25.0440    6.0610 C.2   105  COA105      0.3518
      5  C5A      -28.8950  -25.3580    7.0120 C.2   105  COA105      0.2526
      6  C6A      -28.9580  -26.8010    7.3340 C.2   105  COA105      0.4393
      7  N6A      -29.7910  -27.2850    8.1770 N.pl3 105  COA105      0.2180
      8  N7A      -29.5900  -24.2800    7.4420 N.2   105  COA105     -0.2095
      9  C8A      -29.0130  -23.2670    6.8050 C.3   105  COA105      0.3377
     10  N9A      -27.9180  -23.7200    5.9590 N.pl3 105  COA105     -0.1439
     11  C1B      -26.7250  -23.0640    5.0370 C.3   105  COA105      0.3185
     12  C2B      -27.0300  -23.0640    3.6210 C.3   105  COA105      0.2543
     13  O2B      -25.7830  -23.2060    2.9750 O.3   105  COA105     -0.2131
     14  C3B      -27.5650  -21.7660    3.5120 C.3   105  COA105      0.1928
     15  O3B      -26.6800  -20.7060    2.8620 O.3   105  COA105     -0.2673
     16  P3B      -26.0220  -20.4680    1.3850 P.3   105  COA105      0.5327
     17  O7A      -24.8530  -21.4950    0.9750 O.3   105  COA105     -0.1145
     18  O8A      -25.3940  -19.0220    1.5460 O.3   105  COA105     -0.1145
     19  O9A      -27.2730  -20.5310    0.3910 O.2   105  COA105     -0.2224
     20  C4B      -27.4680  -21.0480    4.7800 C.3   105  COA105      0.1795
     21  O4B      -26.9020  -21.9450    5.7990 O.3   105  COA105     -0.3136
     22  C5B      -28.1280  -19.8160    4.9050 C.3   105  COA105      0.1812
     23  O5B      -27.8850  -19.5080    6.3320 O.3   105  COA105     -0.3112
     24  P1A      -28.7630  -18.1820    6.4060 P.3   105  COA105      0.2189
     25  O1A      -30.1630  -18.6210    6.4220 O.3   105  COA105     -0.4371
     26  O2A      -28.4470  -17.3500    5.1990 O.2   105  COA105     -0.5170
     27  O3A      -28.9360  -17.4710    7.6770 O.3   105  COA105     -0.2703
     28  P2A      -28.7660  -16.9580    9.1280 P.3   105  COA105      0.2188
     29  O4A      -27.5100  -16.3400    9.4040 O.3   105  COA105     -0.4371
     30  O5A      -29.9320  -16.0140    9.1790 O.2   105  COA105     -0.5170
     31  O6A      -29.2600  -18.1200   10.2840 O.3   105  COA105     -0.3138
     32  CBP      -28.3020  -20.0750   10.9620 C.3   105  COA105      0.0645
     33  CCP      -28.5670  -18.6910   11.5520 C.3   105  COA105      0.1519
     34  CDP      -27.9920  -19.7710    9.5080 C.3   105  COA105      0.0056
     35  CEP      -27.1410  -20.6740   11.7530 C.3   105  COA105      0.0056
     36  CAP      -29.6780  -20.9950   10.9940 C.3   105  COA105      0.2312
     37  OAP      -29.3700  -22.0550   10.2130 O.3   105  COA105     -0.2131
     38  C9P      -30.0850  -21.6770   12.4100 C.2   105  COA105      0.2719
     39  O9P      -30.5020  -21.0130   13.4860 O.2   105  COA105     -0.2706
     40  N8P      -29.9180  -23.0150   12.4810 N.am  105  COA105     -0.2028
     41  C7P      -29.8710  -23.8070   13.7550 C.3   105  COA105      0.1248
     42  C6P      -28.4430  -23.5420   14.0660 C.3   105  COA105      0.1102
     43  C5P      -27.5720  -24.7090   14.3000 C.2   105  COA105      0.2432
     44  O5P      -27.8520  -25.9140   14.3180 O.2   105  COA105     -0.2733
     45  N4P      -26.4310  -24.2830   14.3370 N.am  105  COA105     -0.2044
     46  C3P      -25.2080  -25.0850   14.4820 C.3   105  COA105      0.1276
     47  C2P      -24.9670  -25.0750   12.8450 C.3   105  COA105      0.0920
     48  S1P      -24.8230  -23.3860   12.1530 S.3   105  COA105     -0.0802
@<TRIPOS>BOND
     1    19    16    2
     2    17    16    1
     3    16    18    1
     4    16    15    1
     5    15    14    1
     6    13    12    1
     7    14    12    1
     8    14    20    1
     9    12    11    1
    10    20    22    1
    11    20    21    1
    12    22    23    1
    13    11    21    1
    14    11    10    1
    15    26    24    2
    16     3     2    1
    17     3     4    2
    18     2     1    1
    19    10     4    1
    20    10     9    1
    21     4     5    1
    22    23    24    1
    23    24    25    1
    24    24    27    1
    25     1     6    2
    26     9     8    1
    27     5     6    1
    28     5     8    2
    29     6     7    1
    30    27    28    1
    31    28    30    2
    32    28    29    1
    33    28    31    1
    34    34    32    1
    35    37    36    1
    36    31    33    1
    37    32    36    1
    38    32    33    1
    39    32    35    1
    40    36    38    1
    41    48    47    1
    42    38    40   am
    43    38    39    2
    44    40    41    1
    45    47    46    1
    46    41    42    1
    47    42    43    1
    48    43    44    2
    49    43    45   am
    50    45    46    1
