@<TRIPOS>MOLECULE
1wtg_BGC_L_1.pdb
 11 11 0 0 0
SMALL
GASTEIGER

@<TRIPOS>ATOM
      1  C2        37.7620   35.7310   61.6110 C.3   1052  BGC1052     0.2141
      2  C3        37.9830   34.6110   60.5900 C.3   1052  BGC1052     0.2173
      3  C4        38.9520   33.5860   61.1610 C.3   1052  BGC1052     0.2142
      4  C5        38.3880   33.0370   62.4760 C.3   1052  BGC1052     0.1810
      5  C6        39.3630   32.0070   63.0620 C.3   1052  BGC1052     0.2141
      6  C1        37.2990   35.1340   62.9730 C.3   1052  BGC1052     0.1777
      7  O2        36.7550   36.6130   61.1050 O.3   1052  BGC1052    -0.2176
      8  O3        38.5290   35.1660   59.3860 O.3   1052  BGC1052    -0.2175
      9  O4        39.1150   32.5130   60.2250 O.3   1052  BGC1052    -0.2176
     10  O5        38.1950   34.1020   63.4190 O.3   1052  BGC1052    -0.3481
     11  O6        39.6340   30.9560   62.1470 O.3   1052  BGC1052    -0.2176
@<TRIPOS>BOND
     1     8     2    1
     2     9     3    1
     3     2     3    1
     4     2     1    1
     5     7     1    1
     6     3     4    1
     7     1     6    1
     8    11     5    1
     9     4     5    1
    10     4    10    1
    11     6    10    1
