@<TRIPOS>MOLECULE
1wtg_FUC_L_1.pdb
 10 10 0 0 0
SMALL
GASTEIGER

@<TRIPOS>ATOM
      1  C1        21.2700   32.4230   62.3570 C.3   1060  FUC1060     0.1776
      2  C2        20.2060   33.4430   62.7950 C.3   1060  FUC1060     0.2141
      3  C3        20.0820   34.5410   61.7280 C.3   1060  FUC1060     0.2172
      4  C4        19.8120   33.9050   60.3590 C.3   1060  FUC1060     0.2116
      5  C5        20.8870   32.8480   60.0500 C.3   1060  FUC1060     0.1483
      6  C6        20.5930   32.1970   58.6950 C.3   1060  FUC1060     0.0349
      7  O2        20.6170   34.0400   64.0320 O.3   1060  FUC1060    -0.2176
      8  O3        18.9960   35.4120   62.0660 O.3   1060  FUC1060    -0.2175
      9  O4        18.5240   33.2790   60.3740 O.3   1060  FUC1060    -0.2177
     10  O5        20.9240   31.8530   61.0860 O.3   1060  FUC1060    -0.3508
@<TRIPOS>BOND
     1     6     5    1
     2     5     4    1
     3     5    10    1
     4     4     9    1
     5     4     3    1
     6    10     1    1
     7     3     8    1
     8     3     2    1
     9     1     2    1
    10     2     7    1
