@<TRIPOS>MOLECULE
1wtg_3BP_H_1.pdb
 42 44 0 0 0
SMALL
GASTEIGER

@<TRIPOS>ATOM
      1  C15       35.7990    7.0160   10.2910 C.2   2001  3BP2001     0.2598
      2  O1        34.8940    7.2350   11.0940 O.2   2001  3BP2001    -0.2718
      3  N17       35.8450    7.4860    9.0220 N.am  2001  3BP2001    -0.1965
      4  C18       34.7430    8.2670    8.5040 C.3   2001  3BP2001     0.1733
      5  C19       34.8870    8.5250    7.0170 C.3   2001  3BP2001     0.0408
      6  C20       36.1800    9.2600    6.6340 C.3   2001  3BP2001     0.0908
      7  C28       33.4260    7.5020    8.7810 C.2   2001  3BP2001     0.2615
      8  O30       33.3140    6.2890    8.6010 O.2   2001  3BP2001    -0.2715
      9  N31       32.4510    8.2970    9.2420 N.am  2001  3BP2001    -0.1991
     10  C32       31.1870    7.6600    9.4950 C.3   2001  3BP2001     0.1415
     11  C16       31.7910    6.5070   11.6580 C.ar  2001  3BP2001    -0.0023
     12  C17       31.5360    6.2620   13.0220 C.ar  2001  3BP2001     0.0077
     13  C22       30.4890    6.9410   13.6950 C.ar  2001  3BP2001     0.0975
     14  C23       29.6560    7.7930   12.9620 C.ar  2001  3BP2001     0.0077
     15  C24       29.8920    8.0170   11.6050 C.ar  2001  3BP2001    -0.0023
     16  C25       30.9620    7.3840   10.9480 C.ar  2001  3BP2001    -0.0006
     17  C26       30.2710    6.7680   15.1330 C.2   2001  3BP2001     0.4766
     18  N1        30.8220    5.7580   15.7920 N.pl3 2001  3BP2001     0.2047
     19  C2        36.0630    9.5590    5.1570 C.2   2001  3BP2001     0.2608
     20  O2        35.8960    8.6690    4.3290 O.2   2001  3BP2001    -0.2717
     21  N3        36.0580   10.8540    4.8820 N.am  2001  3BP2001    -0.0878
     22  C1        38.0010    7.0940   11.3860 C.3   2001  3BP2001     0.0550
     23  N4        36.5400    5.0990   11.5910 N.3   2001  3BP2001    -0.0738
     24  C5        37.0110    6.1530   10.7090 C.3   2001  3BP2001     0.1791
     25  S1        36.3720    3.5130   10.9500 S.O2  2001  3BP2001     0.0577
     26  O4        35.7390    3.7160    9.6870 O.2   2001  3BP2001    -0.1561
     27  O3        35.7030    2.8060   11.9870 O.2   2001  3BP2001    -0.1561
     28  C9        37.9810    2.8520   10.7010 C.3   2001  3BP2001     0.1706
     29  C8        38.5800    2.5600   12.0900 C.3   2001  3BP2001     0.0289
     30  N2        29.4980    7.5940   15.8220 N.pl3 2001  3BP2001     0.2047
     31  C11       40.2550    5.9640   11.1010 C.ar  2001  3BP2001    -0.0042
     32  C7        39.1800    6.3580   11.9300 C.ar  2001  3BP2001    -0.0202
     33  C3        39.2760    6.0170   13.2960 C.ar  2001  3BP2001    -0.0042
     34  C4        40.3770    5.2820   13.7960 C.ar  2001  3BP2001    -0.0003
     35  C13       41.4320    4.8550   12.9650 C.ar  2001  3BP2001    -0.0000
     36  C6        41.3500    5.2350   11.6160 C.ar  2001  3BP2001    -0.0003
     37  C12       44.9690    3.6190   13.7640 C.ar  2001  3BP2001     0.0000
     38  C10       43.8860    4.2960   13.1440 C.ar  2001  3BP2001    -0.0000
     39  C21       42.5510    4.0440   13.4990 C.ar  2001  3BP2001    -0.0000
     40  C27       42.3410    3.0250   14.4510 C.ar  2001  3BP2001    -0.0000
     41  C14       43.4150    2.3380   15.0700 C.ar  2001  3BP2001     0.0000
     42  C29       44.7530    2.6470   14.7600 C.ar  2001  3BP2001     0.0000
@<TRIPOS>BOND
     1    20    19    2
     2    21    19   am
     3    19     6    1
     4     6     5    1
     5     5     4    1
     6     4     7    1
     7     4     3    1
     8     8     7    2
     9     7     9   am
    10     3     1   am
    11     9    10    1
    12    10    16    1
    13    26    25    2
    14     1    24    1
    15     1     2    2
    16    28    25    1
    17    28    29    1
    18    24    22    1
    19    24    23    1
    20    16    15   ar
    21    16    11   ar
    22    25    23    1
    23    25    27    2
    24    31    36   ar
    25    31    32   ar
    26    22    32    1
    27    15    14   ar
    28    36    35   ar
    29    11    12   ar
    30    32    33   ar
    31    14    13   ar
    32    35    39    1
    33    35    34   ar
    34    12    13   ar
    35    38    39   ar
    36    38    37   ar
    37    33    34   ar
    38    39    40   ar
    39    13    17    1
    40    37    42   ar
    41    40    41   ar
    42    42    41   ar
    43    17    18    2
    44    17    30    1
