@<TRIPOS>MOLECULE
1wu1_D91_A_1.pdb
 33 37 0 0 0
SMALL
GASTEIGER

@<TRIPOS>ATOM
      1  C18        4.2870    6.3310   22.7660 C.3   700  D91700      0.1135
      2  C19        5.4740    6.7940   23.6290 C.3   700  D91700      0.1174
      3  N17        5.0490    5.8160   21.6370 N.am  700  D91700     -0.2651
      4  C16        5.6100    6.7900   20.7140 C.3   700  D91700      0.1135
      5  C15        6.7370    7.4030   21.5510 C.3   700  D91700      0.1174
      6  N12        6.2340    7.8050   22.8650 N.3   700  D91700     -0.1500
      7  S11        6.8090    9.2130   23.7050 S.O2  700  D91700      0.0875
      8  O13        7.1860   10.2270   22.7540 O.2   700  D91700     -0.1506
      9  O14        5.8700    9.4610   24.7800 O.2   700  D91700     -0.1506
     10  C8         8.2440    8.6070   24.5580 C.2   700  D91700      0.2336
     11  C9         9.5430    8.9630   23.9620 C.3   700  D91700      0.1086
     12  C4        10.4300    8.3590   25.0230 C.2   700  D91700      0.0132
     13  C5        11.7470    8.2340   25.2050 C.2   700  D91700     -0.0071
     14  C6        12.2040    7.5620   26.3340 C.3   700  D91700      0.1236
     15 CL         13.9270    7.4680   26.4230 Cl    700  D91700     -0.1054
     16  C3         9.5710    7.7540   25.9980 C.2   700  D91700      0.1287
     17  N7         8.3100    7.9340   25.6910 N.2   700  D91700     -0.3864
     18  C2        10.0170    7.1340   27.1320 C.2   700  D91700      0.0287
     19  C1        11.3760    7.0110   27.3310 C.2   700  D91700     -0.0033
     20  C20        5.3100    4.4360   21.6090 C.2   700  D91700      0.3120
     21  O22        4.8860    3.7950   22.5670 O.2   700  D91700     -0.2586
     22  C21        6.1090    3.7070   20.6210 C.1   700  D91700      0.0863
     23  N23        7.3930    4.0880   20.4430 N.2   700  D91700     -0.1891
     24  C24        8.1550    3.3920   19.5980 C.2   700  D91700      0.1074
     25  C25        7.6620    2.3130   18.8900 C.2   700  D91700      0.0229
     26  C26        6.3410    1.9550   19.1430 C.3   700  D91700      0.1644
     27  N27        5.5600    2.6370   19.9980 N.2   700  D91700     -0.2114
     28  C28        8.5410    1.5370   17.9810 C.ar  700  D91700      0.0025
     29  C29        9.7940    1.1750   18.4580 C.ar  700  D91700      0.0205
     30  C30       10.6720    0.4170   17.6740 C.ar  700  D91700      0.0989
     31  N31       10.3290   -0.0100   16.4610 N.ar  700  D91700     -0.2423
     32  C32        9.1020    0.3210   16.0090 C.ar  700  D91700      0.0989
     33  C33        8.1730    1.0810   16.7320 C.ar  700  D91700      0.0205
@<TRIPOS>BOND
     1    32    31   ar
     2    32    33   ar
     3    31    30   ar
     4    33    28   ar
     5    30    29   ar
     6    28    29   ar
     7    28    25    1
     8    25    26    1
     9    25    24    2
    10    26    27    1
    11    24    23    1
    12    27    22    2
    13    23    22    2
    14    22    20    1
    15     4     5    1
    16     4     3    1
    17     5     6    1
    18    20     3   am
    19    20    21    2
    20     3     1    1
    21     8     7    2
    22     1     2    1
    23     6     2    1
    24     6     7    1
    25     7    10    1
    26     7     9    2
    27    11    10    1
    28    11    12    1
    29    10    17    2
    30    12    13    2
    31    12    16    1
    32    13    14    1
    33    17    16    2
    34    16    18    1
    35    14    15    1
    36    14    19    1
    37    18    19    2
