@<TRIPOS>MOLECULE
1wu5_XYP_A_1.pdb
 10 10 0 0 0
SMALL
GASTEIGER

@<TRIPOS>ATOM
      1  O4A       46.7680   47.1030   12.8060 O.3   501  XYP501     -0.1869
      2  C1B       46.1770   48.2590   13.2690 C.3   501  XYP501      0.3024
      3  C2B       47.1980   49.4000   13.2790 C.3   501  XYP501      0.2434
      4  C3B       46.5100   50.7110   13.6860 C.3   501  XYP501      0.2199
      5  C4B       45.2730   50.9700   12.8150 C.3   501  XYP501      0.2143
      6  C5B       44.3520   49.7490   12.8310 C.3   501  XYP501      0.1804
      7  O2B       48.2410   49.1000   14.1950 O.3   501  XYP501     -0.2148
      8  O3B       47.4230   51.7920   13.5460 O.3   501  XYP501     -0.2174
      9  O4B       44.5700   52.1070   13.3020 O.3   501  XYP501     -0.2176
     10  O5B       45.0750   48.5750   12.3990 O.3   501  XYP501     -0.3237
@<TRIPOS>BOND
     1    10     6    1
     2    10     2    1
     3     1     2    1
     4     5     6    1
     5     5     9    1
     6     5     4    1
     7     2     3    1
     8     3     4    1
     9     3     7    1
    10     8     4    1
