@<TRIPOS>MOLECULE
1wu6_XYP_A_2.pdb
 10 10 0 0 0
SMALL
GASTEIGER

@<TRIPOS>ATOM
      1  O4A       45.5900   53.5210   13.2730 O.3   502  XYP502     -0.1869
      2  C1B       45.5310   54.4110   12.2130 C.3   502  XYP502      0.3024
      3  C2B       45.4990   55.8390   12.7380 C.3   502  XYP502      0.2434
      4  C3B       45.5600   56.8520   11.5900 C.3   502  XYP502      0.2199
      5  C4B       46.5660   56.4890   10.4720 C.3   502  XYP502      0.2143
      6  C5B       46.6280   54.9790   10.1910 C.3   502  XYP502      0.1804
      7  O2B       44.2990   56.0420   13.4680 O.3   502  XYP502     -0.2148
      8  O3B       45.9090   58.1220   12.1250 O.3   502  XYP502     -0.2174
      9  O4B       46.1370   57.1440    9.2610 O.3   502  XYP502     -0.2176
     10  O5B       46.6970   54.2260   11.4140 O.3   502  XYP502     -0.3237
@<TRIPOS>BOND
     1     9     5    1
     2     6     5    1
     3     6    10    1
     4     5     4    1
     5    10     2    1
     6     4     8    1
     7     4     3    1
     8     2     3    1
     9     2     1    1
    10     3     7    1
