@<TRIPOS>MOLECULE
1wu8_ADN_A_1.pdb
 19 21 0 0 0
SMALL
GASTEIGER

@<TRIPOS>ATOM
      1  O5'      -44.9100   -6.9630    9.1070 O.3   500  ADN500     -0.2176
      2  C5'      -46.1100   -7.5260    9.6440 C.3   500  ADN500      0.2143
      3  C4'      -45.9720   -7.7140   11.1570 C.3   500  ADN500      0.1851
      4  O4'      -44.8270   -8.5290   11.4720 O.3   500  ADN500     -0.3134
      5  C3'      -45.7520   -6.3910   11.8910 C.3   500  ADN500      0.2186
      6  O3'      -46.1210   -6.4960   13.2680 O.3   500  ADN500     -0.2174
      7  C2'      -44.2370   -6.2570   11.7680 C.3   500  ADN500      0.2570
      8  O2'      -43.6910   -5.3170   12.6960 O.3   500  ADN500     -0.2130
      9  C1'      -43.8030   -7.6960   12.0480 C.3   500  ADN500      0.3186
     10  N9       -42.4720   -7.9910   11.4700 N.pl3 500  ADN500     -0.1439
     11  C8       -42.1260   -7.7910   10.1970 C.3   500  ADN500      0.3377
     12  N7       -40.8690   -8.1910   10.0090 N.2   500  ADN500     -0.2095
     13  C5       -40.4050   -8.6510   11.1680 C.2   500  ADN500      0.2526
     14  C6       -39.1920   -9.1840   11.5910 C.2   500  ADN500      0.4393
     15  N6       -38.1670   -9.3080   10.7510 N.pl3 500  ADN500      0.2180
     16  N1       -39.0600   -9.5650   12.8710 N.2   500  ADN500      0.0021
     17  C2       -40.0610   -9.4380   13.7260 C.3   500  ADN500      0.5254
     18  N3       -41.2270   -8.9310   13.3620 N.2   500  ADN500     -0.0055
     19  C4       -41.4300   -8.5290   12.0990 C.2   500  ADN500      0.3518
@<TRIPOS>BOND
     1     1     2    1
     2     2     3    1
     3    12    11    1
     4    12    13    2
     5    11    10    1
     6    15    14    1
     7     3     4    1
     8     3     5    1
     9    13    14    1
    10    13    19    1
    11    10     9    1
    12    10    19    1
    13     4     9    1
    14    14    16    2
    15     7     5    1
    16     7     9    1
    17     7     8    1
    18     5     6    1
    19    19    18    2
    20    16    17    1
    21    18    17    1
