@<TRIPOS>MOLECULE
1wua_ATP_A_1.pdb
 43 45 0 0 0
SMALL
GASTEIGER

@<TRIPOS>ATOM
      1  PG        14.4820   -0.2070   18.5000 P.3   1380  ATP1380     0.5373
      2  O1G       15.3650    0.8550   17.8920 O.2   1380  ATP1380    -0.2221
      3  O2G       15.1310   -0.9350   19.6390 O.3   1380  ATP1380    -0.1143
      4  O3G       13.0400    0.2850   18.7160 O.3   1380  ATP1380    -0.1143
      5  PB        13.3750   -1.7630   16.2330 P.3   1380  ATP1380     0.2277
      6  O1B       14.0920   -1.8790   14.9370 O.2   1380  ATP1380    -0.5168
      7  O2B       12.1780   -0.8700   16.2840 O.3   1380  ATP1380    -0.4368
      8  O3B       14.4260   -1.4080   17.4030 O.3   1380  ATP1380    -0.2258
      9  PA        11.5730   -4.0200   16.3840 P.3   1380  ATP1380     0.2182
     10  O1A       10.4960   -3.6350   17.3620 O.3   1380  ATP1380    -0.4371
     11  O2A       11.3330   -3.8980   14.9050 O.2   1380  ATP1380    -0.5170
     12  O3A       12.9360   -3.2240   16.7470 O.3   1380  ATP1380    -0.2700
     13  O5'       11.9870   -5.5160   16.7860 O.3   1380  ATP1380    -0.3246
     14  C5'       13.0440   -6.2050   16.1300 C.3   1380  ATP1380     0.0836
     15  C4'       13.6710   -7.1070   17.1870 C.3   1380  ATP1380     0.1131
     16  O4'       12.6140   -7.9350   17.6690 O.3   1380  ATP1380    -0.3474
     17  C3'       14.7830   -8.0230   16.6810 C.3   1380  ATP1380     0.1133
     18  O3'       15.8050   -8.2010   17.6750 O.3   1380  ATP1380    -0.3864
     19  C2'       14.0610   -9.3360   16.4700 C.3   1380  ATP1380     0.1266
     20  O2'       14.9210  -10.4810   16.5160 O.3   1380  ATP1380    -0.3849
     21  C1'       13.0580   -9.2820   17.6040 C.3   1380  ATP1380     0.1617
     22  N9        11.9280  -10.1750   17.3600 N.pl3 1380  ATP1380    -0.2234
     23  C8        11.0950  -10.1300   16.3090 C.2   1380  ATP1380     0.1451
     24  N7        10.1730  -11.1080   16.3830 N.2   1380  ATP1380    -0.3871
     25  C5        10.4120  -11.7870   17.5020 C.2   1380  ATP1380     0.2211
     26  C6         9.8060  -12.9350   18.1590 C.2   1380  ATP1380     0.2227
     27  N6         8.7430  -13.5360   17.5780 N.pl3 1380  ATP1380    -0.3300
     28  N1        10.3650  -13.3240   19.3200 N.2   1380  ATP1380    -0.3296
     29  C2        11.4250  -12.7230   19.8670 C.1   1380  ATP1380     0.0930
     30  N3        12.0450  -11.6610   19.3240 N.2   1380  ATP1380    -0.3287
     31  C4        11.5660  -11.1770   18.1560 C.2   1380  ATP1380     0.2354
     32 H5'1       13.7850   -5.5030   15.7410 H     1380  ATP1380     0.0591
     33 H5'2       12.6540   -6.8020   15.3030 H     1380  ATP1380     0.0591
     34  H4'       14.0640   -6.4860   18.0030 H     1380  ATP1380     0.0647
     35  H3'       15.1910   -7.6510   15.7320 H     1380  ATP1380     0.0647
     36 HO3'       16.4990   -8.7880   17.3200 H     1380  ATP1380     0.2100
     37  H2'       13.5350   -9.2960   15.5070 H     1380  ATP1380     0.0663
     38 HO2'       15.5780  -10.4170   15.7970 H     1380  ATP1380     0.2101
     39  H1'       13.5670   -9.5520   18.5380 H     1380  ATP1380     0.0841
     40  H8        11.1630   -9.4130   15.5050 H     1380  ATP1380     0.1149
     41 HN61        8.3060  -14.3250   18.0280 H     1380  ATP1380     0.1448
     42 HN62        8.3700  -13.1800   16.7090 H     1380  ATP1380     0.1448
     43  H2        11.8000  -13.1150   20.7950 H     1380  ATP1380     0.1751
@<TRIPOS>BOND
     1    11     9    2
     2     6     5    2
     3    33    14    1
     4    40    23    1
     5    37    19    1
     6    35    17    1
     7    32    14    1
     8    38    20    1
     9    14    13    1
    10    14    15    1
    11     5     7    1
    12     5    12    1
    13     5     8    1
    14    23    24    2
    15    23    22    1
    16    24    25    2
    17     9    12    1
    18     9    13    1
    19     9    10    1
    20    19    20    1
    21    19    17    1
    22    19    21    1
    23    17    15    1
    24    17    18    1
    25    42    27    1
    26    15    16    1
    27    15    34    1
    28    36    18    1
    29    22    21    1
    30    22    31    1
    31     8     1    1
    32    25    31    1
    33    25    26    1
    34    27    41    1
    35    27    26    1
    36    21    16    1
    37    21    39    1
    38     2     1    2
    39    31    30    2
    40    26    28    2
    41     1     4    1
    42     1     3    1
    43    28    29    2
    44    30    29    2
    45    29    43    1
