@<TRIPOS>MOLECULE
1wub_OTP_A_1.pdb
 49 48 0 0 0
SMALL
GASTEIGER

@<TRIPOS>ATOM
      1  O7        -3.3310   62.7100   48.4860 O.3   1001  OTP1001    -0.1143
      2  P2        -3.5360   63.9780   49.2890 P.3   1001  OTP1001     0.5373
      3  O5        -3.9620   65.1610   48.4600 O.2   1001  OTP1001    -0.2221
      4  O6        -4.3440   63.8000   50.5590 O.3   1001  OTP1001    -0.1143
      5  O4        -2.0220   64.3590   49.7400 O.3   1001  OTP1001    -0.2261
      6  P1        -1.3100   63.9440   51.1470 P.3   1001  OTP1001     0.2230
      7  O2        -0.3180   65.0510   51.4510 O.2   1001  OTP1001    -0.5169
      8  O3        -2.3830   63.6860   52.1720 O.3   1001  OTP1001    -0.4370
      9  O1        -0.4370   62.6310   50.7980 O.3   1001  OTP1001    -0.3138
     10  C40        0.8000   62.6890   50.0900 C.3   1001  OTP1001     0.1491
     11  C39        0.7720   61.6510   48.9660 C.3   1001  OTP1001     0.0325
     12  C37        2.1300   61.1600   48.4770 C.3   1001  OTP1001     0.0028
     13  C38        3.3260   61.4950   49.3620 C.3   1001  OTP1001     0.0001
     14  C36        2.0360   59.6730   48.1580 C.3   1001  OTP1001     0.0047
     15  C35        0.8180   59.3720   47.2850 C.3   1001  OTP1001     0.0257
     16  C34        1.1410   58.0080   46.7110 C.2   1001  OTP1001    -0.0304
     17  C32        1.5800   57.7270   45.4640 C.2   1001  OTP1001    -0.0261
     18  C33        1.8140   58.7870   44.4050 C.3   1001  OTP1001     0.0307
     19  C31        1.8740   56.2470   45.1990 C.2   1001  OTP1001    -0.0046
     20  C30        1.7960   55.6980   43.8060 C.2   1001  OTP1001    -0.0007
     21  C29        1.8700   54.3730   43.4770 C.2   1001  OTP1001    -0.0043
     22  C27        1.7430   54.0580   42.1650 C.2   1001  OTP1001    -0.0218
     23  C28        1.5770   55.1320   41.1620 C.3   1001  OTP1001     0.0310
     24  C26        1.7800   52.7010   41.4640 C.2   1001  OTP1001    -0.0043
     25  C25        2.7440   51.6990   41.9710 C.2   1001  OTP1001    -0.0006
     26  C24        2.7490   50.4220   41.5350 C.2   1001  OTP1001    -0.0043
     27  C22        3.6300   49.5980   42.1310 C.2   1001  OTP1001    -0.0218
     28  C23        4.4980   50.1140   43.2580 C.3   1001  OTP1001     0.0310
     29  C21        3.7210   48.1130   41.7980 C.2   1001  OTP1001    -0.0043
     30  C20        4.9020   47.5680   41.0310 C.2   1001  OTP1001    -0.0006
     31  C19        4.9190   46.2270   40.8080 C.2   1001  OTP1001    -0.0043
     32  C17        5.9030   45.6790   40.0990 C.2   1001  OTP1001    -0.0218
     33  C18        6.9410   46.5930   39.5250 C.3   1001  OTP1001     0.0310
     34  C16        5.9830   44.1890   39.7780 C.2   1001  OTP1001    -0.0043
     35  C15        5.1960   43.1780   40.6090 C.2   1001  OTP1001    -0.0010
     36  C14        5.5740   41.8650   40.4400 C.2   1001  OTP1001    -0.0085
     37  C12        5.0860   40.8070   41.1300 C.2   1001  OTP1001    -0.0436
     38  C13        4.0070   41.0620   42.1480 C.3   1001  OTP1001     0.0264
     39  C11        5.5440   39.3510   40.9580 C.3   1001  OTP1001     0.0267
     40  C10        6.9330   39.1430   41.5850 C.3   1001  OTP1001     0.0300
     41  C9         7.6060   37.9710   41.3280 C.2   1001  OTP1001    -0.0300
     42  C7         8.8680   37.6420   41.6890 C.2   1001  OTP1001    -0.0261
     43  C8         9.7690   38.5500   42.4500 C.3   1001  OTP1001     0.0307
     44  C6         9.5350   36.3120   41.3030 C.2   1001  OTP1001    -0.0046
     45  C5         9.4070   35.1430   42.2200 C.2   1001  OTP1001    -0.0010
     46  C4        10.0370   33.9630   41.9620 C.2   1001  OTP1001    -0.0085
     47  C2         9.8360   32.8820   42.7350 C.2   1001  OTP1001    -0.0436
     48  C3         8.9430   32.9070   43.9470 C.3   1001  OTP1001     0.0264
     49  C1        10.5230   31.6110   42.3680 C.3   1001  OTP1001     0.0264
@<TRIPOS>BOND
     1    33    32    1
     2    34    32    1
     3    34    35    2
     4    32    31    2
     5    36    35    1
     6    36    37    2
     7    31    30    1
     8    39    37    1
     9    39    40    1
    10    30    29    2
    11    37    38    1
    12    23    22    1
    13    44    42    1
    14    44    45    2
    15    41    40    1
    16    41    42    2
    17    24    25    2
    18    24    22    1
    19    26    25    1
    20    26    27    2
    21    42    43    1
    22    29    27    1
    23    46    45    1
    24    46    47    2
    25    27    28    1
    26    22    21    2
    27    49    47    1
    28    47    48    1
    29    21    20    1
    30    20    19    2
    31    18    17    1
    32    19    17    1
    33    17    16    2
    34    16    15    1
    35    15    14    1
    36    14    12    1
    37     3     2    2
    38    12    11    1
    39    12    13    1
    40     1     2    1
    41    11    10    1
    42     2     5    1
    43     2     4    1
    44     5     6    1
    45    10     9    1
    46     9     6    1
    47     6     7    2
    48     6     8    1
