@<TRIPOS>MOLECULE
1wug_NP1_A_1.pdb
 30 30 0 0 0
SMALL
GASTEIGER

@<TRIPOS>ATOM
      1  NZ        -3.6380   10.3050  -11.7450 N.3   201  NP1201     -0.3299
      2  CA        -3.8220   10.2210  -10.2630 C.3   201  NP1201     -0.0055
      3  CB        -5.3160   10.4630  -10.0230 C.3   201  NP1201     -0.0251
      4  CG        -6.1360    9.4400  -10.8170 C.3   201  NP1201      0.0103
      5  NE        -7.4370   10.1180  -11.1070 N.pl3 201  NP1201     -0.3420
      6  CD        -8.2210   10.5360  -10.1120 C.ar  201  NP1201      0.0577
      7  CE1       -7.9790   11.7940   -9.5060 C.ar  201  NP1201     -0.0384
      8  CE2       -9.3250    9.7510   -9.6870 C.ar  201  NP1201      0.1471
      9  NO2       -9.5770    8.5730  -10.2490 N.pl3 201  NP1201      0.0583
     10  OC1       -8.7470    8.0840  -11.2930 O.2   201  NP1201     -0.1261
     11  OC2      -10.6830    7.8020   -9.7970 O.2   201  NP1201     -0.1261
     12  CR1       -8.8190   12.2520   -8.4650 C.ar  201  NP1201     -0.0570
     13  CR2      -10.1630   10.2150   -8.6480 C.ar  201  NP1201     -0.0267
     14  CZ        -9.9100   11.4630   -8.0380 C.ar  201  NP1201     -0.0482
     15  CM       -10.8110   11.9540   -6.9360 C.3   201  NP1201     -0.0396
     16 HNZ1       -3.7450    9.3580  -12.1620 H     201  NP1201      0.1182
     17 HNZ2       -4.3490   10.9470  -12.1550 H     201  NP1201      0.1182
     18  HA1       -3.5400    9.2410   -9.9060 H     201  NP1201      0.0422
     19  HA2       -3.2360   10.9820   -9.7700 H     201  NP1201      0.0422
     20  HB1       -5.5710   11.4610  -10.3490 H     201  NP1201      0.0292
     21  HB2       -5.5330   10.3600   -8.9700 H     201  NP1201      0.0292
     22  HG1       -6.2940    8.5450  -10.2310 H     201  NP1201      0.0461
     23  HG2       -5.6330    9.1940  -11.7410 H     201  NP1201      0.0461
     24  HNE       -7.6530   10.3710  -12.0290 H     201  NP1201      0.1461
     25  HE1       -7.1490   12.4000   -9.8310 H     201  NP1201      0.0637
     26  HR1       -8.6300   13.2080   -8.0000 H     201  NP1201      0.0621
     27  HR2      -10.9980    9.6140   -8.3190 H     201  NP1201      0.0643
     28  HM1      -11.4930   11.1680   -6.6570 H     201  NP1201      0.0278
     29  HM2      -11.3710   12.8080   -7.2850 H     201  NP1201      0.0278
     30  HM3      -10.2150   12.2360   -6.0810 H     201  NP1201      0.0278
@<TRIPOS>BOND
     1    16     1    1
     2    17     1    1
     3    24     5    1
     4     1     2    1
     5    23     4    1
     6    10     9    2
     7     5     4    1
     8     5     6    1
     9     4    22    1
    10     4     3    1
    11    20     3    1
    12     2     3    1
    13     2    18    1
    14     2    19    1
    15     9    11    2
    16     9     8    1
    17     6     8   ar
    18     6     7   ar
    19     3    21    1
    20    25     7    1
    21     8    13   ar
    22     7    12   ar
    23    13    27    1
    24    13    14   ar
    25    12    14   ar
    26    12    26    1
    27    14    15    1
    28    29    15    1
    29    15    28    1
    30    15    30    1
