@<TRIPOS>MOLECULE
1wuh_NFC_L_1.pdb
 10 9 0 0 0
SMALL
GASTEIGER

@<TRIPOS>ATOM
      1 NI         56.2850   46.8780   84.3570 Ni    1004  NFC1004     0.0000
      2 FE         55.8100   49.1730   86.0110 Fe    1004  NFC1004     0.0000
      3  C3        56.1790   50.9840   86.2640 C.3   1004  NFC1004     0.0000
      4  C2        54.0440   49.6290   86.4080 C.1   1004  NFC1004     0.0000
      5  O3        56.4950   51.9730   86.4750 O.3   1004  NFC1004     0.0000
      6  N2        52.9470   49.8880   86.6920 N.1   1004  NFC1004     0.0000
      7  O1        56.3800   48.3820   88.9300 O.3   1004  NFC1004     0.0000
      8  C1        56.1580   48.6920   87.8090 C.3   1004  NFC1004     0.0000
      9  O4        55.1660   47.1230   85.7260 O.3   1004  NFC1004     0.0000
     10  O5        54.5040   45.8940   84.7050 O.3   1004  NFC1004     0.0000
@<TRIPOS>BOND
     1     1    10    1
     2     1     9    1
     3    10     9    1
     4     2     3    1
     5     2     4    1
     6     2     8    1
     7     3     5    1
     8     4     6    3
     9     8     7    1
