@<TRIPOS>MOLECULE
1wui_NFC_L_1.pdb
 10 9 0 0 0
SMALL
GASTEIGER

@<TRIPOS>ATOM
      1 NI         56.0290   46.8940   84.2960 Ni    1004  NFC1004     0.0000
      2 FE         55.6040   49.1260   85.9270 Fe    1004  NFC1004     0.0000
      3  C3        56.0140   50.7990   86.1970 C.3   1004  NFC1004     0.0000
      4  C2        53.8330   49.5770   86.3400 C.1   1004  NFC1004     0.0000
      5  O3        56.2320   51.9210   86.4050 O.3   1004  NFC1004     0.0000
      6  N2        52.7470   49.8860   86.6200 N.1   1004  NFC1004     0.0000
      7  O1        56.1910   48.2890   88.7840 O.3   1004  NFC1004     0.0000
      8  C1        55.9430   48.6740   87.7180 C.3   1004  NFC1004     0.0000
      9  O4        54.9290   47.0600   85.5880 O.3   1004  NFC1004     0.0000
     10  O5        54.3370   45.8610   84.7630 O.3   1004  NFC1004     0.0000
@<TRIPOS>BOND
     1     1    10    1
     2     1     9    1
     3    10     9    1
     4     2     3    1
     5     2     4    1
     6     2     8    1
     7     3     5    1
     8     4     6    3
     9     8     7    1
