@<TRIPOS>MOLECULE
1wum_NP2_A_1.pdb
 27 27 0 0 0
SMALL
GASTEIGER

@<TRIPOS>ATOM
      1  NZ       -14.7480   -3.9980    7.0370 N.3   201  NP2201     -0.3299
      2  CA       -14.7000   -4.5690    5.6620 C.3   201  NP2201     -0.0055
      3  CB       -13.6160   -3.7600    4.9410 C.3   201  NP2201     -0.0251
      4  CG       -13.9040   -2.2520    5.0530 C.3   201  NP2201      0.0103
      5  NE       -15.3610   -2.0670    4.7570 N.pl3 201  NP2201     -0.3420
      6  CD       -15.7280   -1.4380    3.6440 C.ar  201  NP2201      0.0577
      7  CE1      -16.2620   -2.1840    2.5700 C.ar  201  NP2201     -0.0386
      8  CE2      -15.5740   -0.0300    3.5200 C.ar  201  NP2201      0.1469
      9  NO2      -15.0710    0.6940    4.5210 N.pl3 201  NP2201      0.0582
     10  OC1      -14.6830    0.0730    5.7370 O.2   201  NP2201     -0.1261
     11  OC2      -14.9290    2.1000    4.3710 O.2   201  NP2201     -0.1261
     12  CR1      -16.6480   -1.5370    1.3770 C.ar  201  NP2201     -0.0599
     13  CR2      -15.9590    0.6160    2.3200 C.ar  201  NP2201     -0.0297
     14  CZ       -16.4930   -0.1360    1.2500 C.ar  201  NP2201     -0.0595
     15 HNZ1      -15.2830   -4.6370    7.6590 H     201  NP2201      0.1182
     16 HNZ2      -13.7800   -3.8890    7.4010 H     201  NP2201      0.1182
     17  HA1      -14.4260   -5.6110    5.7030 H     201  NP2201      0.0422
     18  HA2      -15.6530   -4.4500    5.1690 H     201  NP2201      0.0422
     19  HB1      -13.5920   -4.0450    3.8960 H     201  NP2201      0.0292
     20  HB2      -12.6570   -3.9720    5.3890 H     201  NP2201      0.0292
     21  HG1      -13.3090   -1.7070    4.3360 H     201  NP2201      0.0461
     22  HG2      -13.6850   -1.9080    6.0530 H     201  NP2201      0.0461
     23  HNE      -16.0290   -2.5660    5.2730 H     201  NP2201      0.1461
     24  HE1      -16.3740   -3.2500    2.6630 H     201  NP2201      0.0637
     25  HR1      -17.0610   -2.1140    0.5620 H     201  NP2201      0.0618
     26  HR2      -15.8430    1.6850    2.2220 H     201  NP2201      0.0641
     27  HZ       -16.7820    0.3590    0.3360 H     201  NP2201      0.0618
@<TRIPOS>BOND
     1    27    14    1
     2    25    12    1
     3    14    12   ar
     4    14    13   ar
     5    12     7   ar
     6    26    13    1
     7    13     8   ar
     8     7    24    1
     9     7     6   ar
    10     8     6   ar
    11     8     9    1
    12     6     5    1
    13    19     3    1
    14    21     4    1
    15    11     9    2
    16     9    10    2
    17     5     4    1
    18     5    23    1
    19     3     4    1
    20     3    20    1
    21     3     2    1
    22     4    22    1
    23    18     2    1
    24     2    17    1
    25     2     1    1
    26     1    16    1
    27     1    15    1
