@<TRIPOS>MOLECULE
1wun_P5B_H_1.pdb
 39 41 0 0 0
SMALL
GASTEIGER

@<TRIPOS>ATOM
      1  C14       35.7730    7.0680   10.1130 C.2   2001  P5B2001     0.2598
      2  O1        34.8520    7.2770   10.8820 O.2   2001  P5B2001    -0.2718
      3  N5        35.7950    7.5510    8.8350 N.am  2001  P5B2001    -0.1965
      4  C15       34.6750    8.3580    8.3860 C.3   2001  P5B2001     0.1733
      5  C18       34.7970    8.6720    6.9000 C.3   2001  P5B2001     0.0408
      6  C19       36.0620    9.4510    6.5140 C.3   2001  P5B2001     0.0908
      7  C20       33.3730    7.5940    8.7050 C.2   2001  P5B2001     0.2615
      8  O5        33.3080    6.3730    8.5780 O.2   2001  P5B2001    -0.2715
      9  N6        32.3690    8.3840    9.1360 N.am  2001  P5B2001    -0.1991
     10  C21       31.1260    7.7340    9.4310 C.3   2001  P5B2001     0.1415
     11  C16       31.7550    6.6250   11.5950 C.ar  2001  P5B2001    -0.0023
     12  C17       31.5200    6.3720   12.9460 C.ar  2001  P5B2001     0.0077
     13  C22       30.4610    6.9910   13.6330 C.ar  2001  P5B2001     0.0975
     14  C23       29.5880    7.8300   12.9270 C.ar  2001  P5B2001     0.0077
     15  C24       29.7950    8.0710   11.5580 C.ar  2001  P5B2001    -0.0023
     16  C25       30.8830    7.4740   10.8900 C.ar  2001  P5B2001    -0.0006
     17  C26       30.2960    6.7540   15.0730 C.2   2001  P5B2001     0.4766
     18  N1        30.9440    5.7520   15.6580 N.pl3 2001  P5B2001     0.2047
     19  C2        35.9090    9.8440    5.0660 C.2   2001  P5B2001     0.2608
     20  O2        35.6410    9.0300    4.2120 O.2   2001  P5B2001    -0.2717
     21  N3        35.9960   11.1390    4.8280 N.am  2001  P5B2001    -0.0878
     22  C1        37.9740    7.1250   11.2960 C.3   2001  P5B2001     0.0567
     23  N4        36.5520    5.1740   11.4790 N.3   2001  P5B2001    -0.0738
     24  C5        36.9920    6.2180   10.5740 C.3   2001  P5B2001     0.1791
     25  S1        36.3910    3.5860   10.8490 S.O2  2001  P5B2001     0.0577
     26  O4        35.7540    3.7920    9.5960 O.2   2001  P5B2001    -0.1561
     27  O3        35.7240    2.8650   11.8770 O.2   2001  P5B2001    -0.1561
     28  C9        37.9750    2.9600   10.5980 C.3   2001  P5B2001     0.1706
     29  C8        38.4440    2.6500   12.0240 C.3   2001  P5B2001     0.0289
     30  N2        29.4830    7.4900   15.8250 N.pl3 2001  P5B2001     0.2047
     31  C10       41.4320    4.5880   14.6690 C.2   2001  P5B2001    -0.0199
     32  C7        41.8850    4.7290   13.3120 C.2   2001  P5B2001     0.0148
     33  C3        41.1220    5.3680   12.3400 C.2   2001  P5B2001     0.0804
     34  C4        39.8230    5.8900   12.6930 C.2   2001  P5B2001     0.0113
     35  C11       39.3820    5.7780   14.0210 C.2   2001  P5B2001    -0.0202
     36  C6        40.1640    5.1270   15.0380 C.3   2001  P5B2001     0.0521
     37  N7        41.3380    5.6430   11.0040 N.2   2001  P5B2001    -0.2442
     38  C13       40.2610    6.2730   10.4920 C.2   2001  P5B2001     0.0946
     39  C12       39.2880    6.4510   11.4890 C.2   2001  P5B2001     0.0000
@<TRIPOS>BOND
     1    20    19    2
     2    21    19   am
     3    19     6    1
     4     6     5    1
     5     5     4    1
     6     4     7    1
     7     4     3    1
     8     8     7    2
     9     7     9   am
    10     3     1   am
    11     9    10    1
    12    10    16    1
    13    26    25    2
    14     1    24    1
    15     1     2    2
    16    38    37    1
    17    38    39    2
    18    24    22    1
    19    24    23    1
    20    28    25    1
    21    28    29    1
    22    25    23    1
    23    25    27    2
    24    16    15   ar
    25    16    11   ar
    26    37    33    2
    27    22    39    1
    28    39    34    1
    29    15    14   ar
    30    11    12   ar
    31    33    34    1
    32    33    32    1
    33    34    35    2
    34    14    13   ar
    35    12    13   ar
    36    32    31    2
    37    13    17    1
    38    35    36    1
    39    31    36    1
    40    17    18    2
    41    17    30    1
