@<TRIPOS>MOLECULE
1wun_BGC_L_1.pdb
 11 11 0 0 0
SMALL
GASTEIGER

@<TRIPOS>ATOM
      1  C2        37.7250   35.6700   61.6080 C.3   1052  BGC1052     0.2141
      2  C3        38.0470   34.6190   60.5420 C.3   1052  BGC1052     0.2173
      3  C4        38.9970   33.5810   61.1240 C.3   1052  BGC1052     0.2142
      4  C5        38.3410   32.9330   62.3520 C.3   1052  BGC1052     0.1810
      5  C6        39.2940   31.8870   62.9510 C.3   1052  BGC1052     0.2141
      6  C1        37.1690   34.9860   62.8960 C.3   1052  BGC1052     0.1777
      7  O2        36.7470   36.5690   61.0730 O.3   1052  BGC1052    -0.2176
      8  O3        38.6690   35.2570   59.4190 O.3   1052  BGC1052    -0.2175
      9  O4        39.2670   32.5770   60.1360 O.3   1052  BGC1052    -0.2176
     10  O5        38.0380   33.9280   63.3450 O.3   1052  BGC1052    -0.3481
     11  O6        39.6990   30.9240   61.9900 O.3   1052  BGC1052    -0.2176
@<TRIPOS>BOND
     1     8     2    1
     2     9     3    1
     3     2     3    1
     4     2     1    1
     5     7     1    1
     6     3     4    1
     7     1     6    1
     8    11     5    1
     9     4     5    1
    10     4    10    1
    11     6    10    1
