@<TRIPOS>MOLECULE
1wun_FUC_L_1.pdb
 10 10 0 0 0
SMALL
GASTEIGER

@<TRIPOS>ATOM
      1  C1        21.2180   32.2250   62.2870 C.3   1060  FUC1060     0.1776
      2  C2        20.1350   33.2110   62.7570 C.3   1060  FUC1060     0.2141
      3  C3        20.0090   34.3560   61.7390 C.3   1060  FUC1060     0.2172
      4  C4        19.7300   33.7670   60.3600 C.3   1060  FUC1060     0.2116
      5  C5        20.8370   32.7620   60.0020 C.3   1060  FUC1060     0.1483
      6  C6        20.5730   32.1780   58.6140 C.3   1060  FUC1060     0.0349
      7  O2        20.5180   33.7550   64.0250 O.3   1060  FUC1060    -0.2176
      8  O3        18.9250   35.2120   62.1150 O.3   1060  FUC1060    -0.2175
      9  O4        18.4670   33.0920   60.3890 O.3   1060  FUC1060    -0.2177
     10  O5        20.9010   31.7140   60.9820 O.3   1060  FUC1060    -0.3508
@<TRIPOS>BOND
     1     6     5    1
     2     5     4    1
     3     5    10    1
     4     4     9    1
     5     4     3    1
     6    10     1    1
     7     3     8    1
     8     3     2    1
     9     1     2    1
    10     2     7    1
