@<TRIPOS>MOLECULE
1wuq_8GT_A_1.pdb
 33 35 0 0 0
SMALL
GASTEIGER

@<TRIPOS>ATOM
      1  PG       -29.3670  -16.5930    1.3870 P.3   811  8GT811      0.5373
      2  O1G      -29.9320  -16.5280   -0.0030 O.2   811  8GT811     -0.2221
      3  O2G      -29.6650  -15.3580    2.1910 O.3   811  8GT811     -0.1143
      4  O3G      -27.8610  -16.8070    1.3080 O.3   811  8GT811     -0.1143
      5  O3B      -30.0460  -17.8300    2.1590 O.3   811  8GT811     -0.2258
      6  PB       -30.7920  -19.1420    1.5700 P.3   811  8GT811      0.2277
      7  O1B      -29.9290  -19.8200    0.5830 O.2   811  8GT811     -0.5168
      8  O2B      -32.1090  -18.7760    1.0180 O.3   811  8GT811     -0.4368
      9  O3A      -30.9650  -20.0790    2.8380 O.3   811  8GT811     -0.2700
     10  PA       -31.5070  -19.8760    4.3520 P.3   811  8GT811      0.2189
     11  O1A      -31.8460  -21.2250    4.8950 O.3   811  8GT811     -0.4371
     12  O2A      -32.6320  -18.8910    4.3110 O.2   811  8GT811     -0.5170
     13  O5'      -30.2230  -19.2560    5.0610 O.3   811  8GT811     -0.3112
     14  C5'      -29.0590  -20.0250    5.3960 C.3   811  8GT811      0.1813
     15  C4'      -28.0950  -19.1190    6.1150 C.3   811  8GT811      0.1799
     16  O4'      -26.8490  -19.7980    6.5070 O.3   811  8GT811     -0.3319
     17  C3'      -27.6400  -17.8860    5.2870 C.3   811  8GT811      0.2158
     18  O3'      -28.0620  -16.6830    5.9370 O.3   811  8GT811     -0.2175
     19  C2'      -26.1510  -18.0740    5.2390 C.3   811  8GT811      0.2320
     20  O2'      -25.4680  -16.8210    5.1850 O.3   811  8GT811     -0.2157
     21  C1'      -25.8950  -18.7610    6.5100 C.3   811  8GT811      0.2423
     22  N9       -24.5370  -19.2800    6.6830 N.am  811  8GT811     -0.1494
     23  C8       -23.7640  -19.9790    5.7810 C.1   811  8GT811      0.2771
     24  N7       -22.5720  -20.2770    6.2500 N.2   811  8GT811     -0.3037
     25  C5       -22.5750  -19.7390    7.5370 C.2   811  8GT811      0.2850
     26  C6       -21.5700  -19.7220    8.5460 C.1   811  8GT811      0.2509
     27  O6       -20.4290  -20.1840    8.5230 O.2   811  8GT811     -0.2058
     28  N1       -22.0110  -19.0650    9.7090 N.2   811  8GT811     -0.2475
     29  C2       -23.2690  -18.5000    9.8520 C.1   811  8GT811      0.2532
     30  N2       -23.5220  -17.9170   11.0290 N.pl3 811  8GT811     -0.0226
     31  N3       -24.1900  -18.5070    8.9200 N.2   811  8GT811     -0.3052
     32  C4       -23.7840  -19.1380    7.7960 C.2   811  8GT811      0.2559
     33  O8       -24.2060  -20.2540    4.6700 O.2   811  8GT811     -0.1925
@<TRIPOS>BOND
     1     2     1    2
     2     7     6    2
     3     8     6    1
     4     4     1    1
     5     1     5    1
     6     1     3    1
     7     6     5    1
     8     6     9    1
     9     9    10    1
    10    12    10    2
    11    10    11    1
    12    10    13    1
    13    33    23    2
    14    13    14    1
    15    20    19    1
    16    19    17    1
    17    19    21    1
    18    17    18    1
    19    17    15    1
    20    14    15    1
    21    23    24    2
    22    23    22   am
    23    15    16    1
    24    24    25    2
    25    16    21    1
    26    21    22    1
    27    22    32    1
    28    25    32    1
    29    25    26    1
    30    32    31    2
    31    27    26    2
    32    26    28    2
    33    31    29    2
    34    28    29    2
    35    29    30    1
