@<TRIPOS>MOLECULE
1wur_8DG_A_1.pdb
 32 34 0 0 0
SMALL
GASTEIGER

@<TRIPOS>ATOM
      1  PG       -29.4920  -16.5820    1.3050 P.3   821  8DG821      0.5373
      2  O1G      -30.0130  -16.4570   -0.0940 O.2   821  8DG821     -0.2221
      3  O2G      -29.7000  -15.3360    2.1170 O.3   821  8DG821     -0.1143
      4  O3G      -28.0020  -16.9300    1.2700 O.3   821  8DG821     -0.1143
      5  O3B      -30.3050  -17.7520    2.0430 O.3   821  8DG821     -0.2258
      6  PB       -30.8640  -19.1470    1.4490 P.3   821  8DG821      0.2277
      7  O1B      -29.8390  -19.7860    0.6020 O.2   821  8DG821     -0.5168
      8  O2B      -32.1360  -18.9210    0.7370 O.3   821  8DG821     -0.4368
      9  O3A      -31.0950  -20.0480    2.7320 O.3   821  8DG821     -0.2700
     10  PA       -31.4810  -19.7740    4.2770 P.3   821  8DG821      0.2189
     11  O1A      -31.7440  -21.0950    4.9210 O.3   821  8DG821     -0.4371
     12  O2A      -32.6180  -18.8130    4.3010 O.2   821  8DG821     -0.5170
     13  O5'      -30.1360  -19.1120    4.8090 O.3   821  8DG821     -0.3112
     14  C5'      -28.9220  -19.8530    5.0040 C.3   821  8DG821      0.1812
     15  C4'      -27.9910  -19.0090    5.8350 C.3   821  8DG821      0.1773
     16  O4'      -26.7640  -19.7050    6.2070 O.3   821  8DG821     -0.3338
     17  C3'      -27.5130  -17.7110    5.1430 C.3   821  8DG821      0.1857
     18  O3'      -28.0300  -16.5740    5.8250 O.3   821  8DG821     -0.2203
     19  C2'      -26.0140  -17.7980    5.2020 C.3   821  8DG821      0.0875
     20  C1'      -25.8490  -18.6540    6.4060 C.3   821  8DG821      0.2114
     21  N9       -24.4970  -19.1760    6.6240 N.am  821  8DG821     -0.1521
     22  C8       -23.6830  -19.8610    5.7420 C.1   821  8DG821      0.2771
     23  N7       -22.5150  -20.1650    6.2590 N.2   821  8DG821     -0.3037
     24  C5       -22.5720  -19.6500    7.5560 C.2   821  8DG821      0.2850
     25  C6       -21.6120  -19.6510    8.6100 C.1   821  8DG821      0.2509
     26  O6       -20.4700  -20.1130    8.6320 O.2   821  8DG821     -0.2058
     27  N1       -22.1030  -19.0170    9.7660 N.2   821  8DG821     -0.2475
     28  C2       -23.3630  -18.4550    9.8670 C.1   821  8DG821      0.2532
     29  N2       -23.6640  -17.8960   11.0490 N.pl3 821  8DG821     -0.0226
     30  N3       -24.2450  -18.4430    8.8950 N.2   821  8DG821     -0.3052
     31  C4       -23.7910  -19.0530    7.7740 C.2   821  8DG821      0.2558
     32  O8       -24.0760  -20.1240    4.5990 O.2   821  8DG821     -0.1925
@<TRIPOS>BOND
     1     2     1    2
     2     7     6    2
     3     8     6    1
     4     4     1    1
     5     1     5    1
     6     1     3    1
     7     6     5    1
     8     6     9    1
     9     9    10    1
    10    10    12    2
    11    10    13    1
    12    10    11    1
    13    32    22    2
    14    13    14    1
    15    14    15    1
    16    17    19    1
    17    17    18    1
    18    17    15    1
    19    19    20    1
    20    22    23    2
    21    22    21   am
    22    15    16    1
    23    16    20    1
    24    23    24    2
    25    20    21    1
    26    21    31    1
    27    24    31    1
    28    24    25    1
    29    31    30    2
    30    25    26    2
    31    25    27    2
    32    30    28    2
    33    27    28    2
    34    28    29    1
