@<TRIPOS>MOLECULE
1wut_BN2_A_1.pdb
 31 32 0 0 0
SMALL
GASTEIGER

@<TRIPOS>ATOM
      1  C4        23.5090    6.1810   53.7970 C.ar  930  BN2930      0.0002
      2  C5        23.8640    4.7950   53.7570 C.ar  930  BN2930      0.0054
      3  C6        23.7760    4.0660   52.5200 C.ar  930  BN2930      0.0661
      4  C1        23.3390    4.7050   51.3360 C.ar  930  BN2930      0.0621
      5 CL1        23.2680    3.8320   49.8330 Cl    930  BN2930     -0.0821
      6  C2        22.9540    6.0870   51.3620 C.ar  930  BN2930      0.0115
      7  C3        23.0170    6.8150   52.6080 C.ar  930  BN2930      0.0009
      8  N1        23.4710    1.8650   53.4180 N.am  930  BN2930     -0.1221
      9  C7        24.1790    2.6580   52.5310 C.2   930  BN2930      0.2734
     10  O1        25.0980    2.2840   51.7870 O.2   930  BN2930     -0.2679
     11  N2        24.6440   -0.1020   52.9190 N.am  930  BN2930     -0.1606
     12  C9        25.0340   -1.4710   52.9800 C.ar  930  BN2930      0.0769
     13  C10       24.2650   -2.5200   53.5860 C.ar  930  BN2930      0.0312
     14  C11       24.7760   -3.8400   53.5670 C.ar  930  BN2930      0.0937
     15 CL2        23.8100   -4.9970   54.3740 Cl    930  BN2930     -0.0790
     16  C12       26.0190   -4.1430   52.9640 C.ar  930  BN2930      0.1595
     17  O3        26.5110   -5.4320   52.9180 O.3   930  BN2930     -0.4738
     18  C15       26.9930   -5.8830   54.2730 C.3   930  BN2930      0.2055
     19  C16       28.4490   -6.3100   54.1200 C.3   930  BN2930      0.0473
     20  C17       29.0200   -7.0730   55.3190 C.3   930  BN2930      0.0038
     21  C18       29.0170   -6.2040   56.6290 C.3   930  BN2930      0.0007
     22  C19       27.7940   -6.5780   57.5130 C.3   930  BN2930      0.0118
     23  C20       27.9010   -5.7770   58.7860 C.3   930  BN2930      0.1141
     24  C21       26.7610   -6.1870   59.7180 C.2   930  BN2930      0.3649
     25  O5        26.6890   -6.8230   60.7310 O.co2 930  BN2930     -0.2457
     26  O4        25.7030   -5.7530   59.3720 O.co2 930  BN2930     -0.2457
     27  C13       26.7470   -3.1010   52.3610 C.ar  930  BN2930      0.0937
     28 CL3        28.2380   -3.3650   51.6440 Cl    930  BN2930     -0.0790
     29  C14       26.3030   -1.7820   52.3750 C.ar  930  BN2930      0.0312
     30  C8        23.6350    0.5030   53.6620 C.2   930  BN2930      0.3504
     31  O2        22.9050   -0.0710   54.5390 O.2   930  BN2930     -0.2484
@<TRIPOS>BOND
     1     5     4    1
     2     4     6   ar
     3     4     3   ar
     4     6     7   ar
     5    28    27    1
     6    10     9    2
     7    27    29   ar
     8    27    16   ar
     9    29    12   ar
    10     3     9    1
    11     3     2   ar
    12     9     8   am
    13     7     1   ar
    14    17    16    1
    15    17    18    1
    16    11    12    1
    17    11    30   am
    18    16    14   ar
    19    12    13   ar
    20     8    30   am
    21    14    13   ar
    22    14    15    1
    23    30    31    2
    24     2     1   ar
    25    19    18    1
    26    19    20    1
    27    20    21    1
    28    21    22    1
    29    22    23    1
    30    23    24    1
    31    26    24   ar
    32    24    25   ar
