@<TRIPOS>MOLECULE
1wut_PLP_A_1.pdb
 15 15 0 0 0
SMALL
GASTEIGER

@<TRIPOS>ATOM
      1  N1        24.7770   25.5070   30.4000 N.ar  999  PLP999     -0.2452
      2  C2        23.6520   24.7840   30.5980 C.ar  999  PLP999      0.0978
      3  C2A       22.5930   25.3820   31.5160 C.3   999  PLP999      0.0555
      4  C3        23.4200   23.6550   29.8270 C.ar  999  PLP999      0.2049
      5  O3        22.2450   22.9170   29.9590 O.3   999  PLP999     -0.2857
      6  C4        24.3440   23.2810   28.8540 C.ar  999  PLP999      0.0182
      7  C4A       24.1110   21.9550   28.0440 C.3   999  PLP999      0.0342
      8  C5        25.4930   24.0680   28.6780 C.ar  999  PLP999      0.0261
      9  C6        25.6790   25.1670   29.4520 C.ar  999  PLP999      0.0965
     10  C5A       26.5580   23.8030   27.5390 C.3   999  PLP999      0.1815
     11  O4P       26.1130   24.4540   26.3250 O.3   999  PLP999     -0.2653
     12  P         27.0780   24.7160   25.0390 P.3   999  PLP999      0.5329
     13  O1P       26.2540   25.4230   24.0250 O.2   999  PLP999     -0.2224
     14  O2P       28.1340   25.7560   25.5910 O.3   999  PLP999     -0.1145
     15  O3P       27.7700   23.4540   24.7130 O.3   999  PLP999     -0.1145
@<TRIPOS>BOND
     1    13    12    2
     2    15    12    1
     3    12    14    1
     4    12    11    1
     5    11    10    1
     6    10     8    1
     7     7     6    1
     8     8     6   ar
     9     8     9   ar
    10     6     4   ar
    11     9     1   ar
    12     4     5    1
    13     4     2   ar
    14     1     2   ar
    15     2     3    1
