@<TRIPOS>MOLECULE
1wuu_ANP_A_1.pdb
 31 33 0 0 0
SMALL
GASTEIGER

@<TRIPOS>ATOM
      1  PG        21.4950   42.9150   38.1190 P.3   395  ANP395      0.4884
      2  O1G       20.5460   44.0370   38.3740 O.3   395  ANP395     -0.1240
      3  O2G       21.4250   41.8890   39.2200 O.3   395  ANP395     -0.1240
      4  O3G       22.9690   43.5310   38.0230 O.2   395  ANP395     -0.2331
      5  PB        21.1830   43.0240   35.2890 P.3   395  ANP395      0.4669
      6  O1B       21.6380   44.4080   35.6270 O.3   395  ANP395     -0.1253
      7  O2B       22.0990   42.4090   34.2740 O.2   395  ANP395     -0.2351
      8  N3B       21.1230   42.2470   36.6880 N.3   395  ANP395     -0.0163
      9  PA        18.7230   44.3320   34.7260 P.3   395  ANP395      0.2220
     10  O1A       17.4850   43.8940   35.4500 O.2   395  ANP395     -0.5170
     11  O2A       19.3500   45.4380   35.5330 O.3   395  ANP395     -0.4370
     12  O3A       19.7570   43.1200   34.6280 O.3   395  ANP395     -0.2360
     13  O5'       18.3040   44.8430   33.2680 O.3   395  ANP395     -0.3111
     14  C5'       19.1670   44.6080   32.1230 C.3   395  ANP395      0.1813
     15  C4'       18.4990   45.2360   30.8980 C.3   395  ANP395      0.1821
     16  O4'       19.3280   46.2520   30.2920 O.3   395  ANP395     -0.3135
     17  C3'       18.0390   44.3210   29.7740 C.3   395  ANP395      0.2184
     18  O3'       16.7440   43.7390   30.0910 O.3   395  ANP395     -0.2174
     19  C2'       18.0430   45.3130   28.5910 C.3   395  ANP395      0.2570
     20  O2'       16.7870   46.0440   28.5240 O.3   395  ANP395     -0.2130
     21  C1'       19.1960   46.2350   28.9260 C.3   395  ANP395      0.3186
     22  N9        20.4700   45.7510   28.4520 N.pl3 395  ANP395     -0.1439
     23  C8        21.5750   45.4210   29.1790 C.3   395  ANP395      0.3377
     24  N7        22.6690   45.2190   28.4170 N.2   395  ANP395     -0.2095
     25  C5        22.1940   45.3750   27.1350 C.2   395  ANP395      0.2526
     26  C6        22.8630   45.2360   25.9210 C.2   395  ANP395      0.4393
     27  N6        24.0700   44.9740   25.7710 N.pl3 395  ANP395      0.2180
     28  N1        22.0120   45.4610   24.8930 N.2   395  ANP395      0.0021
     29  C2        20.6990   45.8010   24.9920 C.3   395  ANP395      0.5254
     30  N3        20.0680   45.9230   26.1080 N.2   395  ANP395     -0.0055
     31  C4        20.8450   45.6610   27.1440 C.2   395  ANP395      0.3518
@<TRIPOS>BOND
     1    28    29    1
     2    28    26    2
     3    29    30    1
     4    27    26    1
     5    26    25    1
     6    30    31    2
     7    25    31    1
     8    25    24    2
     9    31    22    1
    10    24    23    1
    11    22    21    1
    12    22    23    1
    13    20    19    1
    14    19    21    1
    15    19    17    1
    16    21    16    1
    17    17    18    1
    18    17    15    1
    19    16    15    1
    20    15    14    1
    21    14    13    1
    22    13     9    1
    23     7     5    2
    24    12     9    1
    25    12     5    1
    26     9    10    2
    27     9    11    1
    28     5     6    1
    29     5     8    1
    30     8     1    1
    31     4     1    2
    32     1     2    1
    33     1     3    1
