@<TRIPOS>MOLECULE
1wuu_GLA_A_1.pdb
 12 12 0 0 0
SMALL
GASTEIGER

@<TRIPOS>ATOM
      1  C1        20.2350   45.6760   41.4340 C.3   393  GLA393      0.3024
      2  C2        20.5190   47.1390   41.6970 C.3   393  GLA393      0.2434
      3  C3        21.7420   47.2440   42.5720 C.3   393  GLA393      0.2199
      4  C4        21.4860   46.4780   43.8610 C.3   393  GLA393      0.2144
      5  C5        21.2040   45.0500   43.5270 C.3   393  GLA393      0.1836
      6  C6        20.9460   44.2830   44.8100 C.3   393  GLA393      0.2142
      7  O1        21.4250   45.1500   40.8450 O.3   393  GLA393     -0.1869
      8  O2        20.8300   47.8250   40.4920 O.3   393  GLA393     -0.2148
      9  O3        21.9610   48.6120   42.8840 O.3   393  GLA393     -0.2174
     10  O4        20.3590   46.9540   44.5710 O.3   393  GLA393     -0.2176
     11  O5        20.0250   45.0100   42.7010 O.3   393  GLA393     -0.3236
     12  O6        21.9740   44.6580   45.7460 O.3   393  GLA393     -0.2176
@<TRIPOS>BOND
     1     8     2    1
     2     7     1    1
     3     1     2    1
     4     1    11    1
     5     2     3    1
     6     3     9    1
     7     3     4    1
     8    11     5    1
     9     5     4    1
    10     5     6    1
    11     4    10    1
    12     6    12    1
