@<TRIPOS>MOLECULE
1wuw_TSU_A_1.pdb
 11 11 0 0 0
SMALL
GASTEIGER

@<TRIPOS>ATOM
      1  S         52.8480   33.9200   11.6320 S.3   101  TSU101      0.0421
      2  O1        53.2650   35.0900   10.9130 O.3   101  TSU101     -0.0650
      3  O2        51.3090   33.9910   11.8250 O.3   101  TSU101     -0.0650
      4  O3        53.5010   33.9010   13.0210 O.3   101  TSU101     -0.0650
      5  C1        53.2420   32.5030   10.7310 C.ar  101  TSU101      0.1123
      6  C2        53.5220   31.3330   11.4180 C.ar  101  TSU101      0.0186
      7  C3        53.8100   30.1910   10.6760 C.ar  101  TSU101     -0.0029
      8  C4        53.8180   30.2290    9.2890 C.ar  101  TSU101     -0.0218
      9  C5        53.5090   31.4160    8.6110 C.ar  101  TSU101     -0.0029
     10  C6        53.2510   32.5640    9.3460 C.ar  101  TSU101      0.0186
     11  C7        54.1860   28.9900    8.5180 C.3   101  TSU101      0.0310
@<TRIPOS>BOND
     1    11     8    1
     2     9     8   ar
     3     9    10   ar
     4     8     7   ar
     5    10     5   ar
     6     7     6   ar
     7     5     6   ar
     8     5     1    1
     9     2     1    1
    10     1     3    1
    11     1     4    1
