@<TRIPOS>MOLECULE
1wuy_PLP_A_1.pdb
 15 15 0 0 0
SMALL
GASTEIGER

@<TRIPOS>ATOM
      1  N1        24.8040   25.5600   30.3960 N.ar  999  PLP999     -0.2452
      2  C2        23.6880   24.8310   30.6040 C.ar  999  PLP999      0.0978
      3  C2A       22.6440   25.4350   31.5130 C.3   999  PLP999      0.0555
      4  C3        23.4260   23.7070   29.8300 C.ar  999  PLP999      0.2049
      5  O3        22.2340   23.0060   29.9880 O.3   999  PLP999     -0.2857
      6  C4        24.3120   23.3480   28.8380 C.ar  999  PLP999      0.0182
      7  C4A       24.0270   22.0630   27.9640 C.3   999  PLP999      0.0342
      8  C5        25.4600   24.1330   28.6380 C.ar  999  PLP999      0.0261
      9  C6        25.6770   25.2230   29.4190 C.ar  999  PLP999      0.0965
     10  C5A       26.4980   23.8380   27.5320 C.3   999  PLP999      0.1815
     11  O4P       26.0860   24.5060   26.3350 O.3   999  PLP999     -0.2653
     12  P         27.0970   24.7410   25.0970 P.3   999  PLP999      0.5329
     13  O1P       26.2570   25.4240   24.1020 O.2   999  PLP999     -0.2224
     14  O2P       28.1790   25.7680   25.6570 O.3   999  PLP999     -0.1145
     15  O3P       27.7820   23.4550   24.7630 O.3   999  PLP999     -0.1145
@<TRIPOS>BOND
     1    13    12    2
     2    15    12    1
     3    12    14    1
     4    12    11    1
     5    11    10    1
     6    10     8    1
     7     7     6    1
     8     8     6   ar
     9     8     9   ar
    10     6     4   ar
    11     9     1   ar
    12     4     5    1
    13     4     2   ar
    14     1     2   ar
    15     2     3    1
