@<TRIPOS>MOLECULE
1wuy_BN3_A_1.pdb
 28 29 0 0 0
SMALL
GASTEIGER

@<TRIPOS>ATOM
      1  C4        23.7160    5.9340   53.7640 C.ar  930  BN3930      0.0116
      2  C5        24.0100    4.5480   53.7470 C.ar  930  BN3930      0.0063
      3  C6        23.8310    3.7840   52.5560 C.ar  930  BN3930      0.0661
      4  C1        23.3550    4.4000   51.3660 C.ar  930  BN3930      0.0629
      5 CL1        23.1160    3.5530   49.9070 Cl    930  BN3930     -0.0821
      6  C2        23.0390    5.7750   51.3700 C.ar  930  BN3930      0.0229
      7  C3        23.2250    6.5420   52.5750 C.ar  930  BN3930      0.0585
      8  N1        23.3870    1.5850   53.4260 N.am  930  BN3930     -0.1221
      9  C7        24.1860    2.3580   52.6170 C.2   930  BN3930      0.2734
     10  O1        25.1670    1.9500   51.9880 O.2   930  BN3930     -0.2679
     11  N2        24.5930   -0.3990   53.1250 N.am  930  BN3930     -0.1598
     12  C9        25.0520   -1.7360   53.2310 C.ar  930  BN3930      0.0857
     13  C10       24.4200   -2.7380   54.0380 C.ar  930  BN3930      0.0206
     14  C11       24.9600   -4.0500   54.1100 C.ar  930  BN3930      0.0383
     15  C12       26.1440   -4.4000   53.4090 C.ar  930  BN3930      0.1395
     16  O3        26.7920   -5.6170   53.4360 O.3   930  BN3930     -0.4754
     17  C15       26.2320   -6.6680   54.2330 C.3   930  BN3930      0.2060
     18  C16       27.1360   -7.8910   54.1360 C.3   930  BN3930      0.0591
     19  C17       26.9210   -8.8990   55.2660 C.3   930  BN3930      0.1179
     20  C13       26.7920   -3.4160   52.6190 C.ar  930  BN3930      0.0496
     21  C14       26.2540   -2.1000   52.5270 C.ar  930  BN3930      0.0760
     22  C8        23.5150    0.2430   53.7160 C.2   930  BN3930      0.3504
     23  O2        22.6790   -0.2250   54.4740 O.2   930  BN3930     -0.2484
     24 CL2        22.8720    8.2050   52.5770 Cl    930  BN3930     -0.0822
     25 CL3        27.1180   -0.9610   51.5610 Cl    930  BN3930     -0.0808
     26  C18       27.4590   -8.3820   56.6170 C.2   930  BN3930      0.3650
     27  O4        26.6080   -7.7690   57.3270 O.co2 930  BN3930     -0.2457
     28  O5        28.6690   -8.6470   56.8610 O.co2 930  BN3930     -0.2457
@<TRIPOS>BOND
     1     5     4    1
     2     4     6   ar
     3     4     3   ar
     4     6     7   ar
     5    25    21    1
     6    10     9    2
     7    21    20   ar
     8    21    12   ar
     9     3     9    1
    10     3     2   ar
    11     7    24    1
    12     7     1   ar
    13     9     8   am
    14    20    15   ar
    15    11    12    1
    16    11    22   am
    17    12    13   ar
    18    15    16    1
    19    15    14   ar
    20     8    22   am
    21    16    17    1
    22    22    23    2
    23     2     1   ar
    24    13    14   ar
    25    18    17    1
    26    18    19    1
    27    19    26    1
    28    26    28   ar
    29    26    27   ar
