@<TRIPOS>MOLECULE
1wv0_PLP_A_1.pdb
 15 15 0 0 0
SMALL
GASTEIGER

@<TRIPOS>ATOM
      1  N1        24.8060   25.5630   30.3580 N.ar  999  PLP999     -0.2452
      2  C2        23.6740   24.8380   30.5660 C.ar  999  PLP999      0.0978
      3  C2A       22.6190   25.4240   31.5010 C.3   999  PLP999      0.0555
      4  C3        23.4380   23.6820   29.8320 C.ar  999  PLP999      0.2049
      5  O3        22.2500   22.9780   30.0050 O.3   999  PLP999     -0.2857
      6  C4        24.3650   23.2750   28.8890 C.ar  999  PLP999      0.0182
      7  C4A       24.0700   22.0030   27.9780 C.3   999  PLP999      0.0342
      8  C5        25.5300   24.0400   28.7030 C.ar  999  PLP999      0.0261
      9  C6        25.7240   25.1750   29.4360 C.ar  999  PLP999      0.0965
     10  C5A       26.5440   23.7540   27.5330 C.3   999  PLP999      0.1815
     11  O4P       26.1400   24.4980   26.3490 O.3   999  PLP999     -0.2653
     12  P         27.1250   24.7210   25.0880 P.3   999  PLP999      0.5329
     13  O1P       26.2260   25.4030   24.1530 O.2   999  PLP999     -0.2224
     14  O2P       28.2560   25.7030   25.5220 O.3   999  PLP999     -0.1145
     15  O3P       27.7610   23.4230   24.7070 O.3   999  PLP999     -0.1145
@<TRIPOS>BOND
     1    13    12    2
     2    15    12    1
     3    12    14    1
     4    12    11    1
     5    11    10    1
     6    10     8    1
     7     7     6    1
     8     8     6   ar
     9     8     9   ar
    10     6     4   ar
    11     9     1   ar
    12     4     5    1
    13     4     2   ar
    14     1     2   ar
    15     2     3    1
