@<TRIPOS>MOLECULE
1wv0_BN4_A_1.pdb
 29 30 0 0 0
SMALL
GASTEIGER

@<TRIPOS>ATOM
      1  C4        23.7250    5.9510   53.8140 C.ar  930  BN4930      0.0116
      2  C5        24.0080    4.5630   53.8180 C.ar  930  BN4930      0.0063
      3  C6        23.8490    3.7620   52.5370 C.ar  930  BN4930      0.0661
      4  C1        23.4030    4.3660   51.2890 C.ar  930  BN4930      0.0629
      5 CL1        23.2210    3.4280   49.8630 Cl    930  BN4930     -0.0821
      6  C2        23.1130    5.8100   51.3280 C.ar  930  BN4930      0.0229
      7  C3        23.2830    6.5710   52.5860 C.ar  930  BN4930      0.0585
      8  N1        23.3970    1.7000   53.4840 N.am  930  BN4930     -0.1221
      9  C7        24.1660    2.3530   52.6290 C.2   930  BN4930      0.2734
     10  O1        25.0650    1.8770   51.9430 O.2   930  BN4930     -0.2679
     11  N2        24.4460   -0.3440   53.1100 N.am  930  BN4930     -0.1609
     12  C9        24.7410   -1.6260   53.2470 C.ar  930  BN4930      0.0709
     13  C10       23.8360   -2.5290   53.9450 C.ar  930  BN4930      0.0194
     14  C11       24.1420   -3.9340   54.1210 C.ar  930  BN4930      0.0379
     15  C12       25.4030   -4.4980   53.6000 C.ar  930  BN4930      0.1343
     16  O3        25.7370   -5.9050   53.7760 O.3   930  BN4930     -0.4758
     17  C15       26.1830   -6.2590   55.1410 C.3   930  BN4930      0.2060
     18  C16       26.5430   -7.7430   55.2750 C.3   930  BN4930      0.0591
     19  C17       27.0090   -8.0770   56.7220 C.3   930  BN4930      0.1179
     20  C13       26.3550   -3.5910   52.8890 C.ar  930  BN4930      0.0094
     21  C14       26.0210   -2.1670   52.7300 C.ar  930  BN4930     -0.0075
     22  C8        23.4360    0.4290   53.7970 C.2   930  BN4930      0.3503
     23  O2        22.6130    0.1000   54.6350 O.2   930  BN4930     -0.2484
     24 CL2        22.9820    8.2050   52.6710 Cl    930  BN4930     -0.0822
     25  C19       27.0000   -1.2490   52.0110 C.3   930  BN4930      0.0322
     26  C18       28.3660   -7.3870   57.1810 C.2   930  BN4930      0.3650
     27  O4        28.2240   -6.3450   57.9080 O.co2 930  BN4930     -0.2457
     28  O5        29.4390   -7.9420   56.7800 O.co2 930  BN4930     -0.2457
     29  C20       27.6630   -4.1670   52.3520 C.3   930  BN4930      0.0339
@<TRIPOS>BOND
     1     5     4    1
     2     4     6   ar
     3     4     3   ar
     4     6     7   ar
     5    10     9    2
     6    25    21    1
     7    29    20    1
     8     3     9    1
     9     3     2   ar
    10     7    24    1
    11     7     1   ar
    12     9     8   am
    13    21    20   ar
    14    21    12   ar
    15    20    15   ar
    16    11    12    1
    17    11    22   am
    18    12    13   ar
    19     8    22   am
    20    15    16    1
    21    15    14   ar
    22    16    17    1
    23    22    23    2
    24     1     2   ar
    25    13    14   ar
    26    17    18    1
    27    18    19    1
    28    19    26    1
    29    28    26   ar
    30    26    27   ar
