@<TRIPOS>MOLECULE
1wv1_BN5_A_1.pdb
 29 30 0 0 0
SMALL
GASTEIGER

@<TRIPOS>ATOM
      1  C4        23.6470    5.9250   53.8530 C.ar  930  BN5930      0.0116
      2  C5        23.9100    4.5160   53.8840 C.ar  930  BN5930      0.0063
      3  C6        23.7770    3.7340   52.7000 C.ar  930  BN5930      0.0661
      4  C1        23.4000    4.3630   51.4760 C.ar  930  BN5930      0.0629
      5 CL1        23.2120    3.5300   49.9810 Cl    930  BN5930     -0.0821
      6  C2        23.1300    5.7600   51.4560 C.ar  930  BN5930      0.0229
      7  C3        23.2640    6.5230   52.6290 C.ar  930  BN5930      0.0585
      8  N1        23.1050    1.6050   53.4410 N.am  930  BN5930     -0.1221
      9  C7        24.0510    2.2990   52.7620 C.2   930  BN5930      0.2734
     10  O1        25.0660    1.8210   52.2490 O.2   930  BN5930     -0.2679
     11  N2        24.1070   -0.4890   53.2400 N.am  930  BN5930     -0.1608
     12  C9        24.3840   -1.8650   53.3340 C.ar  930  BN5930      0.0739
     13  C10       23.4710   -2.7650   53.9810 C.ar  930  BN5930      0.0165
     14  C11       23.7520   -4.1400   54.0690 C.ar  930  BN5930      0.0044
     15  C15       26.6000   -1.4660   52.1130 C.3   930  BN5930      0.0356
     16  C12       24.9540   -4.6650   53.5140 C.ar  930  BN5930      0.0367
     17  O3        27.0230   -4.2720   52.3620 O.3   930  BN5930     -0.4754
     18  C16       28.0150   -4.8520   53.2970 C.3   930  BN5930      0.2100
     19  C17       28.8440   -3.8170   54.0110 C.3   930  BN5930      0.0735
     20  C18       29.8270   -4.4260   54.9800 C.2   930  BN5930     -0.0155
     21  C19       29.2720   -5.2140   56.1530 C.2   930  BN5930      0.0817
     22  C20       30.3060   -5.8360   57.1160 C.2   930  BN5930      0.3876
     23  O5        29.7970   -6.5140   58.0790 O.co2 930  BN5930     -0.2406
     24  O4        31.4950   -5.6160   56.8640 O.co2 930  BN5930     -0.2406
     25  C13       25.8900   -3.7840   52.8890 C.ar  930  BN5930      0.1358
     26  C14       25.6300   -2.3790   52.7810 C.ar  930  BN5930      0.0275
     27  C8        23.0500    0.2560   53.7090 C.2   930  BN5930      0.3504
     28  O2        22.0710   -0.1280   54.3130 O.2   930  BN5930     -0.2484
     29 CL2        22.9470    8.1770   52.5410 Cl    930  BN5930     -0.0822
@<TRIPOS>BOND
     1     5     4    1
     2     6     4   ar
     3     6     7   ar
     4     4     3   ar
     5    15    26    1
     6    10     9    2
     7    17    25    1
     8    17    18    1
     9    29     7    1
    10     7     1   ar
    11     3     9    1
    12     3     2   ar
    13     9     8   am
    14    26    25   ar
    15    26    12   ar
    16    25    16   ar
    17    11    12    1
    18    11    27   am
    19    18    19    1
    20    12    13   ar
    21     8    27   am
    22    16    14   ar
    23    27    28    2
    24     1     2   ar
    25    13    14   ar
    26    19    20    1
    27    20    21    2
    28    21    22    1
    29    24    22   ar
    30    22    23   ar
