@<TRIPOS>MOLECULE
1wv1_PLP_A_1.pdb
 15 15 0 0 0
SMALL
GASTEIGER

@<TRIPOS>ATOM
      1  N1        24.7190   25.5310   30.3390 N.ar  999  PLP999     -0.2452
      2  C2        23.5970   24.8170   30.5440 C.ar  999  PLP999      0.0978
      3  C2A       22.5790   25.3820   31.5170 C.3   999  PLP999      0.0555
      4  C3        23.3510   23.6870   29.7830 C.ar  999  PLP999      0.2049
      5  O3        22.2320   22.9010   30.0320 O.3   999  PLP999     -0.2857
      6  C4        24.2730   23.3030   28.8070 C.ar  999  PLP999      0.0182
      7  C4A       23.9680   22.0590   27.8910 C.3   999  PLP999      0.0342
      8  C5        25.4400   24.0590   28.6380 C.ar  999  PLP999      0.0261
      9  C6        25.6240   25.1730   29.4100 C.ar  999  PLP999      0.0965
     10  C5A       26.5390   23.7290   27.5340 C.3   999  PLP999      0.1815
     11  O4P       26.1440   24.4130   26.3290 O.3   999  PLP999     -0.2653
     12  P         27.0890   24.6410   25.0220 P.3   999  PLP999      0.5329
     13  O1P       26.2130   25.3550   24.0650 O.2   999  PLP999     -0.2224
     14  O2P       28.2000   25.6790   25.5390 O.3   999  PLP999     -0.1145
     15  O3P       27.7250   23.3430   24.6380 O.3   999  PLP999     -0.1145
@<TRIPOS>BOND
     1    13    12    2
     2    15    12    1
     3    12    14    1
     4    12    11    1
     5    11    10    1
     6    10     8    1
     7     7     6    1
     8     8     6   ar
     9     8     9   ar
    10     6     4   ar
    11     9     1   ar
    12     4     5    1
    13     4     2   ar
    14     1     2   ar
    15     2     3    1
