@<TRIPOS>MOLECULE
1wv4_FMN_A_1.pdb
 31 33 0 0 0
SMALL
GASTEIGER

@<TRIPOS>ATOM
      1  N1        35.8120   31.2260   67.3910 N.2   250  FMN250     -0.2887
      2  C2        35.7990   32.1830   68.3840 C.1   250  FMN250      0.3669
      3  O2        36.3540   32.0970   69.4420 O.2   250  FMN250     -0.1744
      4  N3        35.1210   33.4380   68.1790 N.2   250  FMN250     -0.2300
      5  C4        34.4050   33.7280   66.9670 C.1   250  FMN250      0.2513
      6  O4        33.8570   34.8060   66.7890 O.2   250  FMN250     -0.2057
      7  C4A       34.3830   32.7440   65.8890 C.2   250  FMN250      0.2706
      8  N5        33.7730   33.0010   64.6980 N.2   250  FMN250     -0.3841
      9  C5A       33.8540   32.1970   63.5620 C.2   250  FMN250      0.1452
     10  C6        33.2610   32.6460   62.3410 C.2   250  FMN250      0.0252
     11  C7        33.3780   31.9310   61.1200 C.2   250  FMN250     -0.0375
     12  C7M       32.7380   32.5170   59.8560 C.3   250  FMN250      0.0268
     13  C8        34.1420   30.6890   61.0910 C.3   250  FMN250      0.0417
     14  C8M       34.3940   29.8950   59.8160 C.3   250  FMN250      0.0091
     15  C9        34.7360   30.2120   62.3510 C.2   250  FMN250     -0.0049
     16  C9A       34.6290   30.9060   63.6070 C.2   250  FMN250      0.0795
     17  N10       35.2360   30.5990   64.9900 N.pl3 250  FMN250     -0.2545
     18  C10       35.1620   31.4570   66.1270 C.2   250  FMN250      0.2449
     19  C1'       36.0530   29.3260   65.2440 C.3   250  FMN250      0.1336
     20  C2'       37.6120   29.5630   65.4400 C.3   250  FMN250      0.2048
     21  O2'       38.1780   29.8700   64.2220 O.3   250  FMN250     -0.2185
     22  C3'       38.3450   28.3940   66.0320 C.3   250  FMN250      0.2165
     23  O3'       37.8310   27.1040   65.7290 O.3   250  FMN250     -0.2175
     24  C4'       38.3650   28.4040   67.5460 C.3   250  FMN250      0.2147
     25  O4'       37.9810   29.5880   68.3610 O.3   250  FMN250     -0.2176
     26  C5'       39.7920   27.9360   67.6000 C.3   250  FMN250      0.1892
     27  O5'       40.4930   28.5730   68.8230 O.3   250  FMN250     -0.2674
     28  P         41.8990   28.1320   69.2350 P.3   250  FMN250      0.5327
     29  O1P       41.8800   29.1940   70.3530 O.3   250  FMN250     -0.1145
     30  O2P       41.9300   26.7960   69.8470 O.3   250  FMN250     -0.1145
     31  O3P       42.9200   28.3690   68.1060 O.2   250  FMN250     -0.2224
@<TRIPOS>BOND
     1    14    13    1
     2    12    11    1
     3    13    11    1
     4    13    15    1
     5    11    10    2
     6    10     9    1
     7    15    16    2
     8     9    16    1
     9     9     8    2
    10    16    17    1
    11    21    20    1
    12     8     7    2
    13    17    19    1
    14    17    18    1
    15    19    20    1
    16    20    22    1
    17    23    22    1
    18     7    18    1
    19     7     5    1
    20    22    24    1
    21    18     1    2
    22     6     5    2
    23     5     4    2
    24     1     2    2
    25    24    26    1
    26    24    25    1
    27    26    27    1
    28    31    28    2
    29     4     2    2
    30     2     3    2
    31    27    28    1
    32    28    30    1
    33    28    29    1
