@<TRIPOS>MOLECULE
1wv7_BGC_L_1.pdb
 11 11 0 0 0
SMALL
GASTEIGER

@<TRIPOS>ATOM
      1  C2        37.7520   35.9900   61.5420 C.3   1052  BGC1052     0.2141
      2  C3        37.9630   35.0210   60.3880 C.3   1052  BGC1052     0.2173
      3  C4        38.8460   33.8530   60.8360 C.3   1052  BGC1052     0.2142
      4  C5        38.2450   33.1780   62.0820 C.3   1052  BGC1052     0.1810
      5  C6        39.1950   32.0800   62.5780 C.3   1052  BGC1052     0.2141
      6  C1        37.1700   35.2220   62.7680 C.3   1052  BGC1052     0.1777
      7  O2        36.8340   37.0010   61.1130 O.3   1052  BGC1052    -0.2176
      8  O3        38.6000   35.7120   59.3080 O.3   1052  BGC1052    -0.2175
      9  O4        38.9220   32.8910   59.7760 O.3   1052  BGC1052    -0.2176
     10  O5        38.0380   34.1350   63.1330 O.3   1052  BGC1052    -0.3481
     11  O6        39.6370   31.2510   61.5170 O.3   1052  BGC1052    -0.2176
@<TRIPOS>BOND
     1     8     2    1
     2     9     3    1
     3     2     3    1
     4     2     1    1
     5     3     4    1
     6     7     1    1
     7    11     5    1
     8     1     6    1
     9     4     5    1
    10     4    10    1
    11     6    10    1
