@<TRIPOS>MOLECULE
1wv7_5PI_H_1.pdb
 43 45 0 0 0
SMALL
GASTEIGER

@<TRIPOS>ATOM
      1  C14       35.7740    6.9790   10.1450 C.2   2001  5PI2001     0.2598
      2  O1        34.9010    7.2020   10.9750 O.2   2001  5PI2001    -0.2718
      3  N5        35.6940    7.3980    8.8290 N.am  2001  5PI2001    -0.1965
      4  C15       34.5660    8.2960    8.4030 C.3   2001  5PI2001     0.1733
      5  C18       34.5740    8.6430    6.9450 C.3   2001  5PI2001     0.0408
      6  C19       35.8950    9.2320    6.5120 C.3   2001  5PI2001     0.0908
      7  C20       33.1820    7.6680    8.6590 C.2   2001  5PI2001     0.2615
      8  O5        32.9490    6.4990    8.4180 O.2   2001  5PI2001    -0.2715
      9  N6        32.2920    8.4820    9.1540 N.am  2001  5PI2001    -0.1991
     10  C21       30.9790    7.9410    9.3810 C.3   2001  5PI2001     0.1415
     11  C16       31.5000    6.5260   11.4320 C.ar  2001  5PI2001    -0.0023
     12  C17       31.2590    6.2100   12.7690 C.ar  2001  5PI2001     0.0077
     13  C22       30.2530    6.8840   13.4990 C.ar  2001  5PI2001     0.0975
     14  C23       29.4200    7.7840   12.8200 C.ar  2001  5PI2001     0.0077
     15  C24       29.6320    8.0750   11.4820 C.ar  2001  5PI2001    -0.0023
     16  C25       30.6960    7.4900   10.7870 C.ar  2001  5PI2001    -0.0006
     17  C26       30.1390    6.7110   14.9680 C.2   2001  5PI2001     0.4766
     18  N1        30.8910    5.8260   15.6130 N.pl3 2001  5PI2001     0.2047
     19  C2        35.8570    9.6840    5.0940 C.2   2001  5PI2001     0.2608
     20  O2        35.8560    8.9050    4.1830 O.2   2001  5PI2001    -0.2717
     21  N3        35.8520   10.9840    4.9390 N.am  2001  5PI2001    -0.0878
     22  C1        38.1050    7.0270   11.3580 C.3   2001  5PI2001     0.0530
     23  N4        36.4140    5.1670   11.4510 N.3   2001  5PI2001    -0.0738
     24  C5        37.0170    6.1760   10.6080 C.3   2001  5PI2001     0.1788
     25  S1        36.5060    3.5670   10.9480 S.O2  2001  5PI2001     0.0577
     26  O4        36.2900    3.7220    9.5530 O.2   2001  5PI2001    -0.1561
     27  O3        35.6000    2.9280   11.8390 O.2   2001  5PI2001    -0.1561
     28  C9        38.1460    2.9610   11.1240 C.3   2001  5PI2001     0.1706
     29  C8        38.4220    2.5360   12.5240 C.3   2001  5PI2001     0.0289
     30  N2        29.3480    7.5000   15.7080 N.pl3 2001  5PI2001     0.2047
     31  C13       43.1090    4.8000   10.8560 C.2   2001  5PI2001     0.0378
     32  C12       42.5070    4.6640   12.1520 C.2   2001  5PI2001     0.0184
     33  C3        41.2310    5.1690   12.4430 C.2   2001  5PI2001     0.0667
     34  C4        40.4820    5.8250   11.4020 C.3   2001  5PI2001     0.0850
     35  C27       41.0740    5.9800   10.1360 C.2   2001  5PI2001     0.0205
     36  C6        42.3970    5.4860    9.8220 C.2   2001  5PI2001     0.1350
     37  N7        40.4810    5.2520   13.6020 N.2   2001  5PI2001    -0.2481
     38  C29       39.3170    5.8940   13.3500 C.2   2001  5PI2001     0.0907
     39  C28       39.2480    6.2620   11.9990 C.2   2001  5PI2001    -0.0138
     40  O6        43.0580    5.6440    8.5930 O.2   2001  5PI2001    -0.4758
     41  C7        42.2790    5.3630    7.4420 C.3   2001  5PI2001     0.2054
     42  C10       43.1820    5.5340    6.2220 C.3   2001  5PI2001     0.0473
     43  C11       42.4650    5.1750    4.9230 C.3   2001  5PI2001     0.0040
@<TRIPOS>BOND
     1    20    19    2
     2    43    42    1
     3    21    19   am
     4    19     6    1
     5    42    41    1
     6     6     5    1
     7     5     4    1
     8    41    40    1
     9     4     7    1
    10     4     3    1
    11     8     7    2
    12    40    36    1
    13     7     9   am
    14     3     1   am
    15     9    10    1
    16    10    16    1
    17    26    25    2
    18    36    35    2
    19    36    31    1
    20    35    34    1
    21     1    24    1
    22     1     2    2
    23    24    22    1
    24    24    23    1
    25    16    11   ar
    26    16    15   ar
    27    31    32    2
    28    25    28    1
    29    25    23    1
    30    25    27    2
    31    28    29    1
    32    22    39    1
    33    34    39    1
    34    34    33    1
    35    11    12   ar
    36    15    14   ar
    37    39    38    2
    38    32    33    1
    39    33    37    2
    40    12    13   ar
    41    14    13   ar
    42    38    37    1
    43    13    17    1
    44    17    18    2
    45    17    30    1
