@<TRIPOS>MOLECULE
1wv7_FUC_L_1.pdb
 10 10 0 0 0
SMALL
GASTEIGER

@<TRIPOS>ATOM
      1  C1        21.3360   32.0830   62.4680 C.3   1060  FUC1060     0.1776
      2  C2        20.2830   33.1190   62.9060 C.3   1060  FUC1060     0.2141
      3  C3        20.1220   34.1980   61.8190 C.3   1060  FUC1060     0.2172
      4  C4        19.8120   33.5230   60.4800 C.3   1060  FUC1060     0.2116
      5  C5        20.9260   32.5080   60.1710 C.3   1060  FUC1060     0.1483
      6  C6        20.6780   31.8460   58.8160 C.3   1060  FUC1060     0.0349
      7  O2        20.7160   33.7430   64.1220 O.3   1060  FUC1060    -0.2176
      8  O3        19.0430   35.0760   62.1690 O.3   1060  FUC1060    -0.2175
      9  O4        18.5560   32.8370   60.5790 O.3   1060  FUC1060    -0.2177
     10  O5        20.9780   31.5140   61.2030 O.3   1060  FUC1060    -0.3508
@<TRIPOS>BOND
     1     6     5    1
     2     5     4    1
     3     5    10    1
     4     4     9    1
     5     4     3    1
     6    10     1    1
     7     3     8    1
     8     3     2    1
     9     1     2    1
    10     2     7    1
