@<TRIPOS>MOLECULE
1wva_S2C_A_1.pdb
 13 12 0 0 0
SMALL
GASTEIGER

@<TRIPOS>ATOM
      1  OXT       23.4010   13.7150   -6.3660 O.co2 1317  S2C1317     0.0000
      2  N         22.5730   11.5070   -3.5050 N.3   1317  S2C1317     0.0000
      3  CA        22.4030   12.0810   -4.8680 C.3   1317  S2C1317     0.0000
      4  C         23.4980   13.1820   -5.1440 C.2   1317  S2C1317     0.0000
      5  O         24.3580   13.5380   -4.3760 O.co2 1317  S2C1317     0.0000
      6  CB        20.9530   12.5710   -4.8350 C.3   1317  S2C1317     0.0000
      7  SG        20.4570   13.3760   -6.3520 S.3   1317  S2C1317     0.0000
      8  CD        18.7770   13.7350   -5.8610 C.3   1317  S2C1317     0.0000
      9  CE        18.6130   15.2220   -5.5710 C.3   1317  S2C1317     0.0000
     10  B         17.1830   15.6360   -5.1390 B     1317  S2C1317     0.0000
     11  O1        16.7690   15.0130   -3.9140 O.3   1317  S2C1317     0.0000
     12  O2        17.1090   17.0480   -4.9300 O.3   1317  S2C1317     0.0000
     13  O3        16.1950   15.3090   -6.1570 O.3   1317  S2C1317     0.0000
@<TRIPOS>BOND
     1     1     4   ar
     2     7     8    1
     3     7     6    1
     4    13    10    1
     5     8     9    1
     6     9    10    1
     7     4     3    1
     8     4     5   ar
     9    10    12    1
    10    10    11    1
    11     3     6    1
    12     3     2    1
