@<TRIPOS>MOLECULE
1wvb_S2C_A_1.pdb
 13 12 0 0 0
SMALL
GASTEIGER

@<TRIPOS>ATOM
      1  OXT       23.6230   14.0210   -6.2360 O.co2 1316  S2C1316     0.0000
      2  N         22.9440   11.2660   -3.8750 N.3   1316  S2C1316     0.0000
      3  CA        22.6500   12.2320   -4.9680 C.3   1316  S2C1316     0.0000
      4  C         23.8730   13.1590   -5.2490 C.2   1316  S2C1316     0.0000
      5  O         24.9420   13.1400   -4.6720 O.co2 1316  S2C1316     0.0000
      6  CB        21.4300   12.9800   -4.4760 C.3   1316  S2C1316     0.0000
      7  SG        20.4730   13.5980   -5.8490 S.3   1316  S2C1316     0.0000
      8  CD        19.2240   14.3750   -4.8530 C.3   1316  S2C1316     0.0000
      9  CE        18.1410   14.9120   -5.7570 C.3   1316  S2C1316     0.0000
     10  B         16.9710   15.6000   -5.0390 B     1316  S2C1316     0.0000
     11  O1        17.1360   17.0140   -4.8350 O.3   1316  S2C1316     0.0000
     12  O2        15.7980   15.4280   -5.8100 O.3   1316  S2C1316     0.0000
     13  O3        16.7150   14.9990   -3.7230 O.3   1316  S2C1316     0.0000
@<TRIPOS>BOND
     1     1     4   ar
     2     7     8    1
     3     7     6    1
     4    12    10    1
     5     9    10    1
     6     9     8    1
     7     4     3    1
     8     4     5   ar
     9    10    11    1
    10    10    13    1
    11     3     6    1
    12     3     2    1
