@<TRIPOS>MOLECULE
1wvc_CTP_A_1.pdb
 29 30 0 0 0
SMALL
GASTEIGER

@<TRIPOS>ATOM
      1  N1       -10.6710   31.2460   53.3900 N.am  401  CTP401     -0.1778
      2  C2        -9.7220   30.7760   54.2750 C.1   401  CTP401      0.2756
      3  N3        -8.7770   29.9640   53.7250 N.2   401  CTP401     -0.3024
      4  C4        -8.6690   29.5710   52.4000 C.2   401  CTP401      0.2346
      5  C5        -9.7040   30.1040   51.5870 C.2   401  CTP401      0.0687
      6  C6       -10.6220   30.8970   52.0680 C.2   401  CTP401      0.0836
      7  O2        -9.6860   31.0540   55.4540 O.2   401  CTP401     -0.1925
      8  N4        -7.7500   28.8330   52.0660 N.pl3 401  CTP401     -0.0921
      9  C1'      -11.7580   32.1220   53.8490 C.3   401  CTP401      0.2400
     10  C2'      -11.5990   33.5590   53.4160 C.3   401  CTP401      0.2319
     11  O2'      -10.8410   34.2990   54.3800 O.3   401  CTP401     -0.2157
     12  C3'      -13.0470   34.0570   53.5130 C.3   401  CTP401      0.2158
     13  C4'      -13.8170   32.8450   53.0200 C.3   401  CTP401      0.1799
     14  O4'      -12.9760   31.6980   53.2730 O.3   401  CTP401     -0.3320
     15  O3'      -13.3750   34.4000   54.8700 O.3   401  CTP401     -0.2175
     16  C5'      -14.3160   32.8600   51.5960 C.3   401  CTP401      0.1813
     17  O5'      -13.2290   32.8310   50.6570 O.3   401  CTP401     -0.3112
     18  PA       -13.3620   33.7110   49.3200 P.3   401  CTP401      0.2189
     19  O1A      -13.6170   35.1270   49.5760 O.3   401  CTP401     -0.4371
     20  O2A      -14.3720   33.2210   48.3560 O.2   401  CTP401     -0.5170
     21  O3A      -11.8220   33.6000   48.7430 O.3   401  CTP401     -0.2700
     22  PB       -10.5820   34.3910   49.2560 P.3   401  CTP401      0.2277
     23  O1B       -9.5090   33.4810   49.7480 O.2   401  CTP401     -0.5168
     24  O2B      -11.0500   35.2360   50.4080 O.3   401  CTP401     -0.4368
     25  O3B       -9.9460   35.3660   48.1100 O.3   401  CTP401     -0.2258
     26  PG       -10.1270   35.2020   46.4860 P.3   401  CTP401      0.5373
     27  O1G      -10.9100   33.9790   46.1100 O.3   401  CTP401     -0.1143
     28  O2G       -8.7240   35.1010   45.9810 O.3   401  CTP401     -0.1143
     29  O3G      -10.7600   36.3910   45.8710 O.2   401  CTP401     -0.2221
@<TRIPOS>BOND
     1    29    26    2
     2    28    26    1
     3    27    26    1
     4    26    25    1
     5    25    22    1
     6    20    18    2
     7    21    22    1
     8    21    18    1
     9    22    23    2
    10    22    24    1
    11    18    19    1
    12    18    17    1
    13    17    16    1
    14     5     6    2
    15     5     4    1
    16    16    13    1
    17     8     4    1
    18     6     1    1
    19     4     3    2
    20    13    14    1
    21    13    12    1
    22    14     9    1
    23     1     9    1
    24     1     2   am
    25    10    12    1
    26    10     9    1
    27    10    11    1
    28    12    15    1
    29     3     2    2
    30     2     7    2
