@<TRIPOS>MOLECULE
1wve_HEM_C_1.pdb
 43 50 0 0 0
SMALL
GASTEIGER

@<TRIPOS>ATOM
      1 FE        -30.7040    5.9240   -9.2390 Fe    699  HEM699      0.0000
      2  CHA      -31.1310    6.0840  -12.6110 C.2   699  HEM699      0.0000
      3  CHB      -33.9760    5.0500   -8.8590 C.2   699  HEM699      0.0000
      4  CHC      -30.2460    5.6940   -5.8590 C.2   699  HEM699      0.0000
      5  CHD      -27.5110    7.0100   -9.5650 C.2   699  HEM699      0.0000
      6  NA       -32.2720    5.6090  -10.5040 N.2   699  HEM699      0.0000
      7  C1A      -32.2370    5.7230  -11.8720 C.2   699  HEM699      0.0000
      8  C2A      -33.5570    5.4140  -12.3990 C.2   699  HEM699      0.0000
      9  C3A      -34.3570    5.1300  -11.3560 C.2   699  HEM699      0.0000
     10  C4A      -33.5610    5.2500  -10.1470 C.2   699  HEM699      0.0000
     11  CMA      -35.8410    4.7400  -11.3850 C.3   699  HEM699      0.0000
     12  CAA      -33.9100    5.4380  -13.8880 C.3   699  HEM699      0.0000
     13  CBA      -34.5980    6.7610  -14.2310 C.3   699  HEM699      0.0000
     14  CGA      -34.9940    6.9020  -15.6760 C.2   699  HEM699      0.0000
     15  O1A      -35.2190    8.1140  -16.0410 O.co2 699  HEM699      0.0000
     16  O2A      -35.0460    5.8920  -16.3840 O.co2 699  HEM699      0.0000
     17  NB       -31.8620    5.4730   -7.6670 N.ar  699  HEM699      0.0000
     18  C1B      -33.2190    5.1420   -7.7210 C.ar  699  HEM699      0.0000
     19  C2B      -33.7160    4.9270   -6.3830 C.ar  699  HEM699      0.0000
     20  C3B      -32.6550    5.0880   -5.5450 C.ar  699  HEM699      0.0000
     21  C4B      -31.5150    5.4250   -6.3360 C.ar  699  HEM699      0.0000
     22  CMB      -35.1820    4.5930   -6.0230 C.3   699  HEM699      0.0000
     23  CAB      -32.6020    4.9770   -4.0280 C.3   699  HEM699      0.0000
     24  CBB      -32.8510    3.5370   -3.4960 C.3   699  HEM699      0.0000
     25  NC       -29.1670    6.2620   -7.9790 N.2   699  HEM699      0.0000
     26  C1C      -29.1740    6.1090   -6.6140 C.2   699  HEM699      0.0000
     27  C2C      -27.8880    6.5070   -6.0420 C.2   699  HEM699      0.0000
     28  C3C      -27.1300    6.9050   -7.0680 C.2   699  HEM699      0.0000
     29  C4C      -27.9180    6.7460   -8.2830 C.2   699  HEM699      0.0000
     30  CMC      -27.5630    6.4870   -4.5200 C.3   699  HEM699      0.0000
     31  CAC      -25.7290    7.5120   -7.0370 C.3   699  HEM699      0.0000
     32  CBC      -24.6020    6.5830   -6.5250 C.3   699  HEM699      0.0000
     33  ND       -29.5580    6.4280  -10.7740 N.ar  699  HEM699      0.0000
     34  C1D      -28.2300    6.8630  -10.7290 C.ar  699  HEM699      0.0000
     35  C2D      -27.7400    7.1240  -12.0630 C.ar  699  HEM699      0.0000
     36  C3D      -28.7420    6.8370  -12.9270 C.ar  699  HEM699      0.0000
     37  C4D      -29.8850    6.4290  -12.1210 C.ar  699  HEM699      0.0000
     38  CMD      -26.3030    7.6280  -12.3910 C.3   699  HEM699      0.0000
     39  CAD      -28.6550    6.9240  -14.4650 C.3   699  HEM699      0.0000
     40  CBD      -27.8760    5.6650  -14.9780 C.3   699  HEM699      0.0000
     41  CGD      -27.5780    5.6740  -16.4610 C.2   699  HEM699      0.0000
     42  O1D      -28.4180    6.0670  -17.2740 O.co2 699  HEM699      0.0000
     43  O2D      -26.4310    5.2760  -16.7520 O.co2 699  HEM699      0.0000
@<TRIPOS>BOND
     1    42    41   ar
     2    43    41   ar
     3    41    40    1
     4    16    14   ar
     5    15    14   ar
     6    14    13    1
     7    40    39    1
     8    39    36    1
     9    13    12    1
    10    12     8    1
    11    36    37   ar
    12    36    35   ar
    13     2    37    2
    14     2     7    1
    15     8     7    1
    16     8     9    2
    17    38    35    1
    18    37    33   ar
    19    35    34   ar
    20     7     6    2
    21    11     9    1
    22     9    10    1
    23    33    34   ar
    24    33     1    1
    25    34     5    2
    26     6    10    1
    27     6     1    1
    28    10     3    2
    29     5    29    1
    30     1    25    1
    31     1    17    1
    32     3    18    1
    33    29    25    2
    34    29    28    1
    35    25    26    1
    36    18    17   ar
    37    18    19   ar
    38    17    21   ar
    39    28    31    1
    40    28    27    2
    41    31    32    1
    42    26    27    1
    43    26     4    2
    44    19    22    1
    45    19    20   ar
    46    21     4    1
    47    21    20   ar
    48    27    30    1
    49    20    23    1
    50    23    24    1
