@<TRIPOS>MOLECULE
1wvg_CXY_A_1.pdb
 34 36 0 0 0
SMALL
GASTEIGER

@<TRIPOS>ATOM
      1  O1B       63.4380   19.2570   53.2660 O.2   401  CXY401     -0.5170
      2  PB        63.3590   20.7230   52.8890 P.3   401  CXY401      0.2208
      3  O2B       62.3520   21.5100   53.6860 O.3   401  CXY401     -0.4371
      4  O1'       63.0270   20.8560   51.2840 O.3   401  CXY401     -0.2857
      5  O3A       64.8440   21.0690   53.1400 O.3   401  CXY401     -0.2703
      6  PA        65.5770   21.9900   54.2900 P.3   401  CXY401      0.2189
      7  O1A       67.0180   21.9810   53.9210 O.2   401  CXY401     -0.5170
      8  O2A       64.9720   23.3370   54.3570 O.3   401  CXY401     -0.4371
      9  O5D       65.2290   21.1780   55.6150 O.3   401  CXY401     -0.3112
     10  C5D       65.9480   19.9630   55.8670 C.3   401  CXY401      0.1813
     11  C4D       65.7450   19.5770   57.3120 C.3   401  CXY401      0.1799
     12  O4D       66.7410   20.2770   58.0980 O.3   401  CXY401     -0.3320
     13  C3D       64.3800   19.8590   57.9390 C.3   401  CXY401      0.2158
     14  O3D       63.9230   18.8790   58.9390 O.3   401  CXY401     -0.2175
     15  C2D       64.7040   21.2270   58.5660 C.3   401  CXY401      0.2319
     16  O2D       63.7680   21.4820   59.6170 O.3   401  CXY401     -0.2157
     17  C1D       66.0810   20.9520   59.1260 C.3   401  CXY401      0.2400
     18  N1        66.8450   22.1640   59.4370 N.am  401  CXY401     -0.1778
     19  C6        67.1590   23.0680   58.4350 C.2   401  CXY401      0.0836
     20  C5        67.8570   24.1540   58.6560 C.2   401  CXY401      0.0687
     21  C4        68.3200   24.4820   59.9600 C.2   401  CXY401      0.2346
     22  N3        67.9870   23.5250   60.9330 N.2   401  CXY401     -0.3024
     23  C2        67.2540   22.3660   60.7410 C.1   401  CXY401      0.2756
     24  N4        68.9490   25.4880   60.2690 N.pl3 401  CXY401     -0.0921
     25  O2        66.9770   21.5790   61.6530 O.2   401  CXY401     -0.1925
     26  C1'       64.1800   20.8000   50.4620 C.3   401  CXY401      0.2742
     27  C2'       63.9540   21.8010   49.3560 C.3   401  CXY401      0.2409
     28  C3'       62.7150   21.3460   48.6090 C.3   401  CXY401      0.2198
     29  C4'       62.9240   19.9420   48.0420 C.3   401  CXY401      0.2143
     30  C5'       63.2900   18.9830   49.1670 C.3   401  CXY401      0.1803
     31  O2'       63.7140   23.1270   49.8740 O.3   401  CXY401     -0.2149
     32  O3'       62.4870   22.2200   47.4880 O.3   401  CXY401     -0.2174
     33  O4'       61.7480   19.5080   47.3620 O.3   401  CXY401     -0.2176
     34  O5'       64.4160   19.4710   49.9030 O.3   401  CXY401     -0.3255
@<TRIPOS>BOND
     1    33    29    1
     2    32    28    1
     3    29    28    1
     4    29    30    1
     5    28    27    1
     6    30    34    1
     7    27    31    1
     8    27    26    1
     9    34    26    1
    10    26     4    1
    11     4     2    1
    12     2     5    1
    13     2     1    2
    14     2     3    1
    15     5     6    1
    16     7     6    2
    17     6     8    1
    18     6     9    1
    19     9    10    1
    20    10    11    1
    21    11    13    1
    22    11    12    1
    23    13    15    1
    24    13    14    1
    25    12    17    1
    26    19    20    2
    27    19    18    1
    28    15    17    1
    29    15    16    1
    30    20    21    1
    31    17    18    1
    32    18    23   am
    33    21    24    1
    34    21    22    2
    35    23    22    2
    36    23    25    2
