@<TRIPOS>MOLECULE
1wvg_APR_A_1.pdb
 36 39 0 0 0
SMALL
GASTEIGER

@<TRIPOS>ATOM
      1  N1        58.3240   31.8450   36.8940 N.2   400  APR400      0.0021
      2  C2        59.4910   31.3640   36.4030 C.3   400  APR400      0.5254
      3  N3        60.4920   30.8460   37.0480 N.2   400  APR400     -0.0055
      4  C4        60.2540   30.7840   38.3750 C.2   400  APR400      0.3518
      5  C5        59.1370   31.1940   39.0320 C.2   400  APR400      0.2526
      6  C6        58.1070   31.7810   38.2360 C.2   400  APR400      0.4393
      7  N6        56.9100   32.2210   38.6600 N.pl3 400  APR400      0.2180
      8  N7        59.2510   30.9460   40.3940 N.2   400  APR400     -0.2095
      9  C8        60.4510   30.4030   40.5310 C.3   400  APR400      0.3377
     10  N9        61.0960   30.2830   39.3390 N.pl3 400  APR400     -0.1439
     11  C1'       62.4220   29.7600   39.0590 C.3   400  APR400      0.3186
     12  C2'       63.4840   30.5880   39.7280 C.3   400  APR400      0.2570
     13  O2'       63.6790   31.8140   39.0080 O.3   400  APR400     -0.2130
     14  C3'       64.6590   29.6160   39.6020 C.3   400  APR400      0.2184
     15  O3'       65.2910   29.5280   38.3160 O.3   400  APR400     -0.2174
     16  O4'       62.5510   28.5150   39.6680 O.3   400  APR400     -0.3135
     17  C4'       63.9330   28.2900   39.9570 C.3   400  APR400      0.1821
     18  C5'       63.9580   27.9270   41.4120 C.3   400  APR400      0.1813
     19  O5'       65.3250   27.5800   41.7450 O.3   400  APR400     -0.3112
     20  PA        65.8340   27.4830   43.2890 P.3   400  APR400      0.2189
     21  O1A       65.0640   28.4050   44.2240 O.3   400  APR400     -0.4371
     22  O2A       67.3800   27.4590   43.2770 O.2   400  APR400     -0.5170
     23  O3A       65.3470   26.0340   43.6690 O.3   400  APR400     -0.2703
     24  PB        66.0190   24.6200   43.2270 P.3   400  APR400      0.2189
     25  O1B       66.6420   24.0460   44.4770 O.3   400  APR400     -0.4371
     26  O2B       66.8490   24.7490   41.9630 O.2   400  APR400     -0.5170
     27  O5D       64.7070   23.8460   42.7620 O.3   400  APR400     -0.3112
     28  C5D       64.6040   23.4670   41.3800 C.3   400  APR400      0.1813
     29  O4D       63.6000   21.2480   41.8500 O.3   400  APR400     -0.3237
     30  O1D       63.3780   20.5090   44.0590 O.3   400  APR400     -0.1869
     31  C1D       62.6930   21.0630   42.8990 C.3   400  APR400      0.3023
     32  O2D       60.8510   22.4520   43.7260 O.3   400  APR400     -0.2148
     33  C2D       62.2080   22.4510   43.2420 C.3   400  APR400      0.2433
     34  O3D       60.9490   22.6770   41.2310 O.3   400  APR400     -0.2175
     35  C3D       62.1420   23.1140   41.8780 C.3   400  APR400      0.2168
     36  C4D       63.3980   22.5660   41.2410 C.3   400  APR400      0.1807
@<TRIPOS>BOND
     1     2     1    1
     2     2     3    1
     3     1     6    2
     4     3     4    2
     5     6     7    1
     6     6     5    1
     7    15    14    1
     8     4     5    1
     9     4    10    1
    10    13    12    1
    11     5     8    2
    12    11    10    1
    13    11    16    1
    14    11    12    1
    15    10     9    1
    16    14    12    1
    17    14    17    1
    18    16    17    1
    19    17    18    1
    20     8     9    1
    21    34    35    1
    22    36    28    1
    23    36    29    1
    24    36    35    1
    25    28    27    1
    26    18    19    1
    27    19    20    1
    28    29    31    1
    29    35    33    1
    30    26    24    2
    31    27    24    1
    32    31    33    1
    33    31    30    1
    34    24    23    1
    35    24    25    1
    36    33    32    1
    37    22    20    2
    38    20    23    1
    39    20    21    1
