@<TRIPOS>MOLECULE
1wvj_IBC_A_1.pdb
 17 18 0 0 0
SMALL
GASTEIGER

@<TRIPOS>ATOM
      1  O4        14.5280    6.1050   25.6950 O.co2 1001  IBC1001    -0.2440
      2  C11       13.3860    6.5150   25.3340 C.2   1001  IBC1001     0.3822
      3  O3        12.3640    6.6420   26.1070 O.co2 1001  IBC1001    -0.2440
      4  C10       13.1520    6.8720   23.8240 C.3   1001  IBC1001     0.1986
      5  N2        11.6850    7.1740   23.5420 N.3   1001  IBC1001    -0.1205
      6  C9        14.0900    8.0690   23.4630 C.3   1001  IBC1001     0.0574
      7  C4        13.8860    8.6340   22.0520 C.2   1001  IBC1001    -0.0106
      8  C1        14.1520    7.7710   20.8880 C.2   1001  IBC1001     0.1145
      9  C5        13.3980    9.9060   21.9650 C.2   1001  IBC1001    -0.0295
     10  C6        13.0580   10.7310   20.7270 C.3   1001  IBC1001     0.0262
     11  C7        12.1430   10.0280   19.7130 C.3   1001  IBC1001     0.0127
     12  C8        12.7920    8.8900   18.8830 C.3   1001  IBC1001     0.0684
     13  C3        13.6830    7.9160   19.5900 C.2   1001  IBC1001     0.1643
     14  O1        14.1260    6.9320   18.7880 O.2   1001  IBC1001    -0.3479
     15  N1        14.9690    6.0530   19.5750 N.2   1001  IBC1001    -0.0005
     16  C2        14.9910    6.5390   20.8350 C.1   1001  IBC1001     0.1916
     17  O2        15.6350    6.0080   21.7880 O.2   1001  IBC1001    -0.2190
@<TRIPOS>BOND
     1    14    15    1
     2    14    13    1
     3    12    13    1
     4    12    11    1
     5    15    16    2
     6    13     8    2
     7    11    10    1
     8    10     9    1
     9    16     8    1
    10    16    17    2
    11     8     7    1
    12     9     7    2
    13     7     6    1
    14     6     4    1
    15     5     4    1
    16     4     2    1
    17     2     1   ar
    18     2     3   ar
