@<TRIPOS>MOLECULE
1wvm_III_C_1.pdb
 44 46 0 0 0
SMALL
GASTEIGER

@<TRIPOS>ATOM
      1  N         83.4310   28.7040   19.1180 N.am    1  PHE1       -0.1770
      2  CA        83.4630   28.4170   17.6420 C.3     1  PHE1        0.2037
      3  C         84.2110   27.0610   17.4910 C.2     1  PHE1        0.3846
      4  O         84.1150   26.4540   16.5810 O.co2   1  PHE1       -0.2437
      5  CB        84.1370   29.6560   16.9560 C.3     1  PHE1        0.0597
      6  CG        85.2830   30.4280   17.6840 C.ar    1  PHE1       -0.0199
      7  CD1       86.6520   29.9330   17.7690 C.ar    1  PHE1       -0.0042
      8  CD2       84.9530   31.6940   18.3080 C.ar    1  PHE1       -0.0042
      9  CE1       87.6580   30.6970   18.4650 C.ar    1  PHE1       -0.0003
     10  CE2       85.9650   32.4570   19.0040 C.ar    1  PHE1       -0.0003
     11  CZ        87.3160   31.9580   19.0820 C.ar    1  PHE1       -0.0000
     12  OXT       84.9620   26.6470   18.4180 O.co2   1  PHE1       -0.2437
     13  NE        81.6380   25.9850   22.5400 N.2     2  CSI2       -0.2056
     14  CD2       80.7700   26.2340   21.5260 C.1     2  CSI2        0.1238
     15  CD1       82.2600   27.0940   23.2650 C.3     2  CSI2        0.1397
     16  NH        80.5460   25.3620   20.5260 N.pl3   2  CSI2       -0.0464
     17  CB        80.3350   28.5570   22.4290 C.3     2  CSI2        0.1454
     18  CG1       81.2260   28.1360   23.6650 C.3     2  CSI2        0.0546
     19  NG2       80.0380   27.4180   21.4220 N.2     2  CSI2       -0.2053
     20  N         82.1390   29.3530   20.9000 N.am    2  CSI2       -0.1775
     21  CA        80.9030   29.7730   21.5920 C.3     2  CSI2        0.1974
     22  C         81.2030   30.9130   22.5840 C.2     2  CSI2        0.2637
     23  O         82.3750   31.1850   22.9080 O.2     2  CSI2       -0.2714
     24  O3        81.1970   29.1720   18.9000 O.2     2  CSI2       -0.2492
     25  C7        82.2320   29.0750   19.6090 C.2     2  CSI2        0.3402
     26  N         80.1120   31.5110   23.0640 N.am    3  LEU3       -0.1963
     27  CA        80.0810   32.5980   24.0780 C.3     3  LEU3        0.1728
     28  C         80.4960   31.7340   25.3370 C.2     3  LEU3        0.2612
     29  O         79.8310   30.7560   25.6650 O.2     3  LEU3       -0.2715
     30  CB        78.7220   33.3510   24.0850 C.3     3  LEU3        0.0311
     31  CG        78.3580   34.0140   22.7510 C.3     3  LEU3        0.0022
     32  CD1       76.9950   34.7020   22.7930 C.3     3  LEU3        0.0001
     33  CD2       79.3280   35.1380   22.3830 C.3     3  LEU3        0.0001
     34  N         80.9390   32.6710   26.4250 N.am    4  PHE4       -0.2027
     35  CA        81.3940   31.8790   27.6420 C.3     4  PHE4        0.1325
     36  C         80.7170   32.9840   28.4660 C.3     4  PHE4        0.2039
     37  O         80.3820   32.7580   30.0440 O.3     4  PHE4       -0.2185
     38  CB        82.7890   31.5620   28.1210 C.3     4  PHE4        0.0507
     39  CG        83.4660   30.4670   27.3360 C.ar    4  PHE4       -0.0204
     40  CD1       84.6450   30.8070   26.6170 C.ar    4  PHE4       -0.0042
     41  CD2       82.9430   29.0940   27.3200 C.ar    4  PHE4       -0.0042
     42  CE1       85.3410   29.7990   25.8590 C.ar    4  PHE4       -0.0003
     43  CE2       83.6410   28.0850   26.5590 C.ar    4  PHE4       -0.0003
     44  CZ        84.8390   28.4480   25.8330 C.ar    4  PHE4       -0.0000
@<TRIPOS>BOND
     1     4     3   ar
     2     5     2    1
     3     5     6    1
     4     3     2    1
     5     3    12   ar
     6     2     1    1
     7     6     7   ar
     8     6     8   ar
     9     7     9   ar
    10     8    10   ar
    11     9    11   ar
    12    24    25    2
    13    10    11   ar
    14     1    25   am
    15    25    20   am
    16    16    14    1
    17    20    21    1
    18    19    14    2
    19    19    17    1
    20    14    13    2
    21    21    17    1
    22    21    22    1
    23    33    31    1
    24    17    18    1
    25    13    15    1
    26    22    23    2
    27    22    26   am
    28    31    32    1
    29    31    30    1
    30    26    27    1
    31    15    18    1
    32    27    30    1
    33    27    28    1
    34    28    29    2
    35    28    34   am
    36    44    42   ar
    37    44    43   ar
    38    42    40   ar
    39    34    35    1
    40    43    41   ar
    41    40    39   ar
    42    41    39   ar
    43    39    38    1
    44    35    38    1
    45    35    36    1
    46    36    37    1
