@<TRIPOS>MOLECULE
1wvp_HEM_A_1.pdb
 43 50 0 0 0
SMALL
GASTEIGER

@<TRIPOS>ATOM
      1 FE         49.9050    5.7230    8.4200 Fe    154  HEM154      0.0000
      2  CHA       52.3480    4.8510   10.7450 C.2   154  HEM154      0.0000
      3  CHB       50.9220    8.9850    8.6160 C.2   154  HEM154      0.0000
      4  CHC       47.3700    6.6720    6.3100 C.2   154  HEM154      0.0000
      5  CHD       48.8040    2.4940    8.3250 C.2   154  HEM154      0.0000
      6  NA        51.3500    6.7010    9.4460 N.2   154  HEM154      0.0000
      7  C1A       52.2550    6.1530   10.3550 C.2   154  HEM154      0.0000
      8  C2A       53.0750    7.2030   10.8590 C.2   154  HEM154      0.0000
      9  C3A       52.6770    8.3490   10.3070 C.2   154  HEM154      0.0000
     10  C4A       51.5880    8.0650    9.4040 C.2   154  HEM154      0.0000
     11  CMA       53.2100    9.7650   10.4750 C.3   154  HEM154      0.0000
     12  CAA       54.2010    7.0000   11.8720 C.3   154  HEM154      0.0000
     13  CBA       55.5240    6.8170   11.0990 C.3   154  HEM154      0.0000
     14  CGA       55.5820    5.5800   10.2220 C.2   154  HEM154      0.0000
     15  O1A       55.6510    5.7490    9.0040 O.co2 154  HEM154      0.0000
     16  O2A       55.5930    4.4420   10.7560 O.co2 154  HEM154      0.0000
     17  NB        49.3010    7.4590    7.6270 N.ar  154  HEM154      0.0000
     18  C1B       49.8730    8.7070    7.8250 C.ar  154  HEM154      0.0000
     19  C2B       49.1130    9.6880    7.0810 C.ar  154  HEM154      0.0000
     20  C3B       48.1360    9.0290    6.4450 C.ar  154  HEM154      0.0000
     21  C4B       48.2340    7.6460    6.7540 C.ar  154  HEM154      0.0000
     22  CMB       49.4590   11.1880    7.0530 C.3   154  HEM154      0.0000
     23  CAB       47.0420    9.5920    5.5220 C.2   154  HEM154      0.0000
     24  CBB       46.4260   10.7510    5.7900 C.2   154  HEM154      0.0000
     25  NC        48.3790    4.7620    7.4590 N.2   154  HEM154      0.0000
     26  C1C       47.4020    5.3500    6.6850 C.2   154  HEM154      0.0000
     27  C2C       46.4010    4.3430    6.3860 C.2   154  HEM154      0.0000
     28  C3C       46.7860    3.1890    6.9590 C.2   154  HEM154      0.0000
     29  C4C       48.0350    3.4300    7.6430 C.2   154  HEM154      0.0000
     30  CMC       45.1500    4.6580    5.5400 C.3   154  HEM154      0.0000
     31  CAC       46.0780    1.8500    6.9840 C.2   154  HEM154      0.0000
     32  CBC       44.8420    1.5690    6.5460 C.2   154  HEM154      0.0000
     33  ND        50.5150    4.0230    9.2840 N.ar  154  HEM154      0.0000
     34  C1D       49.8660    2.7940    9.1230 C.ar  154  HEM154      0.0000
     35  C2D       50.4180    1.8100   10.0140 C.ar  154  HEM154      0.0000
     36  C3D       51.4380    2.5300   10.7840 C.ar  154  HEM154      0.0000
     37  C4D       51.4860    3.8800   10.2870 C.ar  154  HEM154      0.0000
     38  CMD       50.0270    0.3500   10.2000 C.3   154  HEM154      0.0000
     39  CAD       52.2430    1.9340   11.9250 C.3   154  HEM154      0.0000
     40  CBD       51.4200    2.2840   13.1970 C.3   154  HEM154      0.0000
     41  CGD       52.1230    1.8380   14.4630 C.2   154  HEM154      0.0000
     42  O1D       52.6800    2.7180   15.1580 O.co2 154  HEM154      0.0000
     43  O2D       52.1330    0.6140   14.7280 O.co2 154  HEM154      0.0000
@<TRIPOS>BOND
     1    23    24    2
     2    23    20    1
     3    30    27    1
     4     4    26    2
     5     4    21    1
     6    27    26    1
     7    27    28    2
     8    20    21   ar
     9    20    19   ar
    10    32    31    2
    11    26    25    1
    12    21    17   ar
    13    28    31    1
    14    28    29    1
    15    22    19    1
    16    19    18   ar
    17    25    29    2
    18    25     1    1
    19    17    18   ar
    20    17     1    1
    21    29     5    1
    22    18     3    1
    23     5    34    2
    24     1    33    1
    25     1     6    1
    26     3    10    2
    27    15    14   ar
    28    34    33   ar
    29    34    35   ar
    30    33    37   ar
    31    10     6    1
    32    10     9    1
    33     6     7    2
    34    35    38    1
    35    35    36   ar
    36    14    16   ar
    37    14    13    1
    38    37     2    2
    39    37    36   ar
    40     9    11    1
    41     9     8    2
    42     7     2    1
    43     7     8    1
    44    36    39    1
    45     8    12    1
    46    13    12    1
    47    39    40    1
    48    40    41    1
    49    41    43   ar
    50    41    42   ar
