@<TRIPOS>MOLECULE
1wvx_BD4_A_1.pdb
 24 27 0 0 0
SMALL
GASTEIGER

@<TRIPOS>ATOM
      1  O23       24.1580   42.0070   11.6060 O.2   1001  BD41001    -0.2086
      2  C20       25.0400   41.7910   10.7770 C.1   1001  BD41001     0.2154
      3  N21       25.3820   42.5600    9.7420 N.2   1001  BD41001    -0.2576
      4  C22       26.4200   42.0970    9.0450 C.1   1001  BD41001     0.2158
      5  O24       26.9120   42.6050    8.0390 O.2   1001  BD41001    -0.2086
      6  C13       26.7790   40.9230    9.6950 C.ar  1001  BD41001     0.1084
      7  C12       25.9220   40.7160   10.7670 C.ar  1001  BD41001     0.1035
      8  C11       26.0880   39.5980   11.5820 C.ar  1001  BD41001    -0.0077
      9  C15       25.1450   39.3570   12.7640 C.3   1001  BD41001     0.0319
     10  C10       27.1170   38.6930   11.3270 C.ar  1001  BD41001     0.0137
     11  C8        27.9830   38.9150   10.2600 C.ar  1001  BD41001     0.0603
     12  C9        27.8160   40.0260    9.4410 C.ar  1001  BD41001     0.0298
     13  C5        28.8320   40.0300    8.5000 C.ar  1001  BD41001     0.0176
     14  C6        29.1070   40.9460    7.4870 C.ar  1001  BD41001    -0.0028
     15  C1        30.2310   40.7290    6.6940 C.ar  1001  BD41001    -0.0218
     16  C14       30.5740   41.7040    5.5640 C.3   1001  BD41001     0.0310
     17  C2        31.0530   39.6260    6.9140 C.ar  1001  BD41001    -0.0028
     18  C3        30.7690   38.7110    7.9270 C.ar  1001  BD41001     0.0169
     19  C4        29.6480   38.9250    8.7190 C.ar  1001  BD41001     0.0599
     20  N7        29.0730   38.3250    9.7650 N.ar  1001  BD41001    -0.3271
     21  C16       29.6110   37.0780   10.3310 C.3   1001  BD41001     0.1076
     22  C17       30.9230   37.3100   11.0870 C.3   1001  BD41001     0.0450
     23  C18       30.7410   38.1820   12.3300 C.3   1001  BD41001     0.1113
     24  N19       32.0210   38.2730   13.0490 N.3   1001  BD41001    -0.1313
@<TRIPOS>BOND
     1    16    15    1
     2    15    17   ar
     3    15    14   ar
     4    17    18   ar
     5    14    13   ar
     6    18    19   ar
     7     5     4    2
     8    13    19   ar
     9    13    12   ar
    10    19    20   ar
    11     4     6    1
    12     4     3    2
    13    12     6   ar
    14    12    11   ar
    15     6     7   ar
    16     3     2    2
    17    20    11   ar
    18    20    21    1
    19    11    10   ar
    20    21    22    1
    21     7     2    1
    22     7     8   ar
    23     2     1    2
    24    22    23    1
    25    10     8   ar
    26     8     9    1
    27    23    24    1
