@<TRIPOS>MOLECULE
1wvy_STU_A_1.pdb
 35 42 0 0 0
SMALL
GASTEIGER

@<TRIPOS>ATOM
      1  O4        26.2880   37.5140   10.2870 O.3   1001  STU1001    -0.3186
      2  C25       27.3760   37.9520    9.4790 C.3   1001  STU1001     0.2078
      3  C24       28.7210   37.7540   10.2750 C.3   1001  STU1001     0.0739
      4  C23       28.5020   37.0970   11.6560 C.3   1001  STU1001     0.1086
      5  C22       27.4030   37.7840   12.5310 C.3   1001  STU1001     0.1761
      6  C21       26.0860   37.7680   11.6650 C.3   1001  STU1001     0.1915
      7  C26       25.2490   36.5760   12.0960 C.3   1001  STU1001     0.0566
      8  N2        25.2720   39.0650   11.7860 N.ar  1001  STU1001    -0.3054
      9  C18       25.4470   40.1120   10.8080 C.ar  1001  STU1001     0.0774
     10  C19       26.2590   40.2420    9.7020 C.ar  1001  STU1001     0.0783
     11  C6        26.2570   41.4330    8.8670 C.ar  1001  STU1001     0.0293
     12  C7        25.2720   42.4940    9.2990 C.ar  1001  STU1001     0.0822
     13  C10       24.4930   42.3640   10.3670 C.ar  1001  STU1001     0.0154
     14  C11       24.5180   41.1950   11.2050 C.ar  1001  STU1001     0.0173
     15  C12       23.8460   40.8020   12.3800 C.ar  1001  STU1001     0.0171
     16  C17       24.3120   39.4750   12.7550 C.ar  1001  STU1001     0.0617
     17  C16       23.7940   38.8690   13.8990 C.ar  1001  STU1001     0.0172
     18  C15       22.8560   39.5160   14.6820 C.ar  1001  STU1001     0.0015
     19  C14       22.3710   40.8450   14.3410 C.ar  1001  STU1001     0.0001
     20  C13       22.8810   41.4510   13.1910 C.ar  1001  STU1001     0.0015
     21  C9        23.6190   43.6120   10.5520 C.3   1001  STU1001     0.1650
     22  N1        24.0800   44.3700    9.4170 N.2   1001  STU1001    -0.1976
     23  C8        25.0240   43.8160    8.6420 C.1   1001  STU1001     0.1501
     24  O5        25.5420   44.2840    7.6480 O.2   1001  STU1001    -0.2222
     25  C5        27.2200   41.2670    7.8440 C.ar  1001  STU1001     0.0180
     26  C20       27.8240   39.9620    8.0530 C.ar  1001  STU1001     0.0618
     27  C1        28.8690   39.4530    7.1920 C.ar  1001  STU1001     0.0172
     28  C2        29.2980   40.2650    6.1320 C.ar  1001  STU1001     0.0015
     29  C3        28.7080   41.5570    5.9180 C.ar  1001  STU1001     0.0001
     30  C4        27.6940   42.0350    6.7570 C.ar  1001  STU1001     0.0015
     31  N3        27.2330   39.3800    9.1450 N.ar  1001  STU1001    -0.3039
     32  O6        27.8210   39.1290   12.8100 O.3   1001  STU1001    -0.3478
     33  C27       27.7690   39.3900   14.2050 C.3   1001  STU1001     0.1743
     34  N4        29.8790   37.0330   12.3890 N.3   1001  STU1001    -0.2152
     35  C28       30.7190   35.8960   11.9220 C.3   1001  STU1001     0.1075
@<TRIPOS>BOND
     1    29    28   ar
     2    29    30   ar
     3    28    27   ar
     4    30    25   ar
     5    27    26   ar
     6    24    23    2
     7    25    26   ar
     8    25    11   ar
     9    26    31   ar
    10    23    12    1
    11    23    22    2
    12    11    12   ar
    13    11    10   ar
    14    31     2    1
    15    31    10   ar
    16    12    13   ar
    17    22    21    1
    18     2     3    1
    19     2     1    1
    20    10     9   ar
    21     3     4    1
    22     1     6    1
    23    13    21    1
    24    13    14   ar
    25     9    14   ar
    26     9     8   ar
    27    14    15   ar
    28     4    34    1
    29     4     5    1
    30     6     8    1
    31     6     7    1
    32     6     5    1
    33     8    16   ar
    34    35    34    1
    35    15    16   ar
    36    15    20   ar
    37     5    32    1
    38    16    17   ar
    39    32    33    1
    40    20    19   ar
    41    17    18   ar
    42    19    18   ar
