@<TRIPOS>MOLECULE
1ww2_NBG_A_1.pdb
 15 15 0 0 0
SMALL
GASTEIGER

@<TRIPOS>ATOM
      1  C1        34.1330   22.7130   27.6500 C.3   998  NBG998      0.2446
      2  C2        34.1600   22.9440   26.1440 C.3   998  NBG998      0.2326
      3  C3        32.7650   22.6510   25.6120 C.3   998  NBG998      0.2190
      4  C4        32.5030   21.1760   25.9380 C.3   998  NBG998      0.2144
      5  C5        32.5370   20.9630   27.4630 C.3   998  NBG998      0.1828
      6  C6        32.3050   19.5210   27.8640 C.3   998  NBG998      0.2142
      7  C7        35.4100   23.6950   29.4670 C.2   998  NBG998      0.2440
      8  C8        36.8020   24.0550   29.9750 C.3   998  NBG998      0.0965
      9  N1        35.3870   23.1550   28.2540 N.am  998  NBG998     -0.1751
     10  O3        32.8080   22.7990   24.1980 O.3   998  NBG998     -0.2174
     11  O2        34.3780   24.3410   25.9250 O.3   998  NBG998     -0.2157
     12  O4        31.2700   20.7460   25.3830 O.3   998  NBG998     -0.2176
     13  O5        33.8370   21.3490   27.9740 O.3   998  NBG998     -0.3315
     14  O6        33.3290   18.6810   27.3570 O.3   998  NBG998     -0.2176
     15  O7        34.4200   23.9510   30.1400 O.2   998  NBG998     -0.2733
@<TRIPOS>BOND
     1    10     3    1
     2    12     4    1
     3     3     4    1
     4     3     2    1
     5    11     2    1
     6     4     5    1
     7     2     1    1
     8    14     6    1
     9     5     6    1
    10     5    13    1
    11     1    13    1
    12     1     9    1
    13     9     7   am
    14     7     8    1
    15     7    15    2
