@<TRIPOS>MOLECULE
1ww3_NTF_A_1.pdb
 18 18 0 0 0
SMALL
GASTEIGER

@<TRIPOS>ATOM
      1  C1        34.1210   22.8370   27.8250 C.3   998  NTF998      0.2449
      2  N1        35.4400   23.1090   28.3760 N.am  998  NTF998     -0.1680
      3  C2        34.1240   23.1510   26.3110 C.3   998  NTF998      0.2326
      4  O2        34.2160   24.5560   26.1130 O.3   998  NTF998     -0.2157
      5  C3        32.8670   22.6240   25.6030 C.3   998  NTF998      0.2190
      6  O3        33.0300   22.7360   24.1950 O.3   998  NTF998     -0.2174
      7  C4        32.6220   21.1600   25.9680 C.3   998  NTF998      0.2144
      8  O4        31.4030   20.7160   25.3920 O.3   998  NTF998     -0.2176
      9  C5        32.5630   21.0270   27.4900 C.3   998  NTF998      0.1828
     10  O5        33.8130   21.4510   28.0610 O.3   998  NTF998     -0.3315
     11  C6        32.3530   19.5940   27.9330 C.3   998  NTF998      0.2142
     12  O6        33.3040   18.7320   27.3180 O.3   998  NTF998     -0.2176
     13  C7        35.5680   23.6710   29.5740 C.2   998  NTF998      0.3388
     14  O7        34.6060   24.0350   30.2520 O.2   998  NTF998     -0.2641
     15  C8        36.9860   23.8880   30.0890 C.3   998  NTF998      0.4712
     16  F1        37.8080   23.1720   29.3840 F     998  NTF998     -0.1620
     17  F2        37.2870   25.1250   29.9930 F     998  NTF998     -0.1620
     18  F3        37.0150   23.4990   31.3330 F     998  NTF998     -0.1620
@<TRIPOS>BOND
     1     6     5    1
     2     8     7    1
     3     5     7    1
     4     5     3    1
     5     7     9    1
     6     4     3    1
     7     3     1    1
     8    12    11    1
     9     9    11    1
    10     9    10    1
    11     1    10    1
    12     1     2    1
    13     2    13   am
    14    16    15    1
    15    13    15    1
    16    13    14    2
    17    17    15    1
    18    15    18    1
