@<TRIPOS>MOLECULE
1ww3_PLP_A_1.pdb
 15 15 0 0 0
SMALL
GASTEIGER

@<TRIPOS>ATOM
      1  N1        24.6760   25.7180   30.2910 N.ar  999  PLP999     -0.2452
      2  C2        23.5700   24.9710   30.5450 C.ar  999  PLP999      0.0978
      3  C2A       22.6840   25.3690   31.7330 C.3   999  PLP999      0.0555
      4  C3        23.3350   23.8280   29.8200 C.ar  999  PLP999      0.2049
      5  O3        22.2130   23.0540   30.0920 O.3   999  PLP999     -0.2857
      6  C4        24.2300   23.4400   28.8360 C.ar  999  PLP999      0.0182
      7  C4A       23.9390   22.1540   28.0060 C.3   999  PLP999      0.0342
      8  C5        25.3520   24.2310   28.5920 C.ar  999  PLP999      0.0261
      9  C6        25.5490   25.3600   29.3200 C.ar  999  PLP999      0.0965
     10  C5A       26.3450   23.9430   27.4420 C.3   999  PLP999      0.1815
     11  O4P       25.8960   24.6340   26.2870 O.3   999  PLP999     -0.2653
     12  P         26.9160   24.8360   25.0370 P.3   999  PLP999      0.5329
     13  O1P       26.0940   25.5520   24.0440 O.2   999  PLP999     -0.2224
     14  O2P       28.0260   25.8040   25.6330 O.3   999  PLP999     -0.1145
     15  O3P       27.5190   23.5350   24.6600 O.3   999  PLP999     -0.1145
@<TRIPOS>BOND
     1    13    12    2
     2    15    12    1
     3    12    14    1
     4    12    11    1
     5    11    10    1
     6    10     8    1
     7     7     6    1
     8     8     6   ar
     9     8     9   ar
    10     6     4   ar
    11     9     1   ar
    12     4     5    1
    13     4     2   ar
    14     1     2   ar
    15     2     3    1
