@<TRIPOS>MOLECULE
1ww4_GAL_A_1.pdb
 11 11 0 0 0
SMALL
GASTEIGER

@<TRIPOS>ATOM
      1  C1        -4.3790    3.2970   62.8330 C.3   200  GAL200      0.1777
      2  C2        -5.6140    3.8730   63.5190 C.3   200  GAL200      0.2141
      3  C3        -5.1610    4.7210   64.7230 C.3   200  GAL200      0.2173
      4  C4        -4.2840    3.8880   65.6620 C.3   200  GAL200      0.2142
      5  C5        -3.1260    3.2490   64.8740 C.3   200  GAL200      0.1810
      6  C6        -2.2850    2.2930   65.7050 C.3   200  GAL200      0.2141
      7  O2        -6.3320    4.6660   62.5850 O.3   200  GAL200     -0.2176
      8  O3        -6.2980    5.2320   65.4560 O.3   200  GAL200     -0.2175
      9  O4        -5.0730    2.8820   66.2860 O.3   200  GAL200     -0.2176
     10  O5        -3.6370    2.4910   63.7570 O.3   200  GAL200     -0.3481
     11  O6        -0.9040    2.3940   65.3780 O.3   200  GAL200     -0.2176
@<TRIPOS>BOND
     1     7     2    1
     2     1     2    1
     3     1    10    1
     4     2     3    1
     5    10     5    1
     6     3     8    1
     7     3     4    1
     8     5     4    1
     9     5     6    1
    10    11     6    1
    11     4     9    1
