@<TRIPOS>MOLECULE
1ww4_SIA_A_1.pdb
 20 20 0 0 0
SMALL
GASTEIGER

@<TRIPOS>ATOM
      1  C1        -7.2140    7.3170   66.1990 C.2   202  SIA202      0.3914
      2  C2        -6.8770    6.4200   65.0110 C.3   202  SIA202      0.2203
      3  C3        -8.1630    6.1110   64.2120 C.3   202  SIA202      0.0760
      4  C4        -8.7010    7.3430   63.4720 C.3   202  SIA202      0.1773
      5  C5        -7.5800    8.0040   62.6770 C.3   202  SIA202      0.1552
      6  C6        -6.4330    8.3340   63.6250 C.3   202  SIA202      0.1710
      7  C7        -5.3090    9.0650   62.9000 C.3   202  SIA202      0.2134
      8  C8        -4.2710    9.5760   63.9170 C.3   202  SIA202      0.2173
      9  C9        -4.8540   10.7180   64.7610 C.3   202  SIA202      0.2175
     10  C10       -8.5220    9.1510   60.7890 C.2   202  SIA202      0.2420
     11  C11       -9.9520    9.6160   60.5470 C.3   202  SIA202      0.0964
     12  N5        -8.0640    9.2080   62.0350 N.am  202  SIA202     -0.2020
     13  O1A       -6.2930    7.6490   66.9780 O.co2 202  SIA202     -0.2430
     14  O1B       -8.3940    7.7030   66.3470 O.co2 202  SIA202     -0.2430
     15  O4        -9.7430    6.9530   62.5870 O.3   202  SIA202     -0.2211
     16  O6        -5.9170    7.1180   64.2000 O.3   202  SIA202     -0.3429
     17  O7        -4.6940    8.1860   61.9650 O.3   202  SIA202     -0.2176
     18  O8        -3.8640    8.5120   64.7700 O.3   202  SIA202     -0.2175
     19  O9        -4.0170   10.9740   65.8810 O.3   202  SIA202     -0.2175
     20  O10       -7.8430    8.7320   59.8510 O.2   202  SIA202     -0.2733
@<TRIPOS>BOND
     1    20    10    2
     2    11    10    1
     3    10    12   am
     4    17     7    1
     5    12     5    1
     6    15     4    1
     7     5     4    1
     8     5     6    1
     9     7     6    1
    10     7     8    1
    11     4     3    1
    12     6    16    1
    13     8     9    1
    14     8    18    1
    15    16     2    1
    16     3     2    1
    17     9    19    1
    18     2     1    1
    19     1    14   ar
    20     1    13   ar
