@<TRIPOS>MOLECULE
1ww4_GLA_B_1.pdb
 11 11 0 0 0
SMALL
GASTEIGER

@<TRIPOS>ATOM
      1  C1       -21.9600   31.2160  121.0480 C.3   210  GLA210      0.1777
      2  C2       -20.9080   32.2540  120.6030 C.3   210  GLA210      0.2141
      3  C3       -21.4570   33.1760  119.5050 C.3   210  GLA210      0.2173
      4  C4       -22.3650   32.3890  118.5820 C.3   210  GLA210      0.2142
      5  C5       -23.5910   31.9080  119.3680 C.3   210  GLA210      0.1810
      6  C6       -24.2810   30.6750  118.8220 C.3   210  GLA210      0.2141
      7  O2       -20.4850   33.0280  121.7160 O.3   210  GLA210     -0.2176
      8  O3       -20.3770   33.7520  118.7380 O.3   210  GLA210     -0.2175
      9  O4       -21.6540   31.2880  118.0350 O.3   210  GLA210     -0.2176
     10  O5       -23.2900   31.6730  120.7760 O.3   210  GLA210     -0.3481
     11  O6       -25.6910   30.8640  118.7840 O.3   210  GLA210     -0.2176
@<TRIPOS>BOND
     1     9     4    1
     2     4     5    1
     3     4     3    1
     4     8     3    1
     5    11     6    1
     6     6     5    1
     7     5    10    1
     8     3     2    1
     9     2     1    1
    10     2     7    1
    11    10     1    1
