@<TRIPOS>MOLECULE
1ww4_GLC_B_1.pdb
 12 12 0 0 0
SMALL
GASTEIGER

@<TRIPOS>ATOM
      1  C1       -24.5990   29.1500  124.8780 C.3   211  GLC211      0.3024
      2  C2       -23.9190   28.1830  123.8830 C.3   211  GLC211      0.2434
      3  C3       -22.7440   28.8500  123.1520 C.3   211  GLC211      0.2199
      4  C4       -22.9230   30.3730  123.1390 C.3   211  GLC211      0.2144
      5  C5       -22.9280   30.9060  124.5830 C.3   211  GLC211      0.1836
      6  C6       -23.4870   32.3080  124.7500 C.3   211  GLC211      0.2142
      7  O1       -25.2460   28.4330  125.8750 O.3   211  GLC211     -0.1869
      8  O2       -23.4710   27.0030  124.5430 O.3   211  GLC211     -0.2148
      9  O3       -22.6750   28.3560  121.8190 O.3   211  GLC211     -0.2174
     10  O4       -21.8360   30.9960  122.4160 O.3   211  GLC211     -0.2176
     11  O5       -23.6490   30.0300  125.5010 O.3   211  GLC211     -0.3236
     12  O6       -24.4480   32.6150  123.7510 O.3   211  GLC211     -0.2176
@<TRIPOS>BOND
     1     9     3    1
     2    10     4    1
     3     4     3    1
     4     4     5    1
     5     3     2    1
     6    12     6    1
     7     2     8    1
     8     2     1    1
     9     5     6    1
    10     5    11    1
    11     1    11    1
    12     1     7    1
