@<TRIPOS>MOLECULE
1ww4_BGC_A_1.pdb
 12 12 0 0 0
SMALL
GASTEIGER

@<TRIPOS>ATOM
      1  C2        -2.7810   -0.3160   60.1880 C.3   201  BGC201      0.2434
      2  C3        -3.9110    0.3460   60.9910 C.3   201  BGC201      0.2199
      3  C4        -3.6790    1.8590   61.0550 C.3   201  BGC201      0.2144
      4  C5        -3.5660    2.4090   59.6320 C.3   201  BGC201      0.1836
      5  C6        -3.3430    3.9050   59.5890 C.3   201  BGC201      0.2142
      6  C1        -2.5770    0.3720   58.8240 C.3   201  BGC201      0.3024
      7  O1        -1.4150   -0.1100   58.2430 O.3   201  BGC201     -0.1869
      8  O2        -3.0990   -1.6840   59.9720 O.3   201  BGC201     -0.2148
      9  O3        -3.9480   -0.1980   62.3080 O.3   201  BGC201     -0.2174
     10  O4        -4.7590    2.5010   61.7630 O.3   201  BGC201     -0.2176
     11  O5        -2.4390    1.7960   58.9670 O.3   201  BGC201     -0.3236
     12  O6        -2.2830    4.2860   60.4500 O.3   201  BGC201     -0.2176
@<TRIPOS>BOND
     1     7     6    1
     2     6    11    1
     3     6     1    1
     4    11     4    1
     5     5     4    1
     6     5    12    1
     7     4     3    1
     8     8     1    1
     9     1     2    1
    10     2     3    1
    11     2     9    1
    12     3    10    1
