@<TRIPOS>MOLECULE
1ww5_BGC_A_1.pdb
 12 12 0 0 0
SMALL
GASTEIGER

@<TRIPOS>ATOM
      1  C2        -2.8600   -0.9930   59.6590 C.3   201  BGC201      0.2434
      2  C3        -3.9910   -0.3190   60.4480 C.3   201  BGC201      0.2199
      3  C4        -3.7550    1.1880   60.4790 C.3   201  BGC201      0.2144
      4  C5        -3.6510    1.7180   59.0430 C.3   201  BGC201      0.1836
      5  C6        -3.3690    3.2080   58.9940 C.3   201  BGC201      0.2142
      6  C1        -2.7240   -0.3650   58.2640 C.3   201  BGC201      0.3024
      7  O1        -1.5990   -0.8800   57.6410 O.3   201  BGC201     -0.1869
      8  O2        -3.1280   -2.3810   59.5270 O.3   201  BGC201     -0.2148
      9  O3        -4.0280   -0.8250   61.7760 O.3   201  BGC201     -0.2174
     10  O4        -4.8230    1.8480   61.1920 O.3   201  BGC201     -0.2176
     11  O5        -2.5590    1.0620   58.3570 O.3   201  BGC201     -0.3236
     12  O6        -2.1000    3.5080   59.5620 O.3   201  BGC201     -0.2176
@<TRIPOS>BOND
     1     7     6    1
     2     6    11    1
     3     6     1    1
     4    11     4    1
     5     5     4    1
     6     5    12    1
     7     4     3    1
     8     8     1    1
     9     1     2    1
    10     2     3    1
    11     2     9    1
    12     3    10    1
