@<TRIPOS>MOLECULE
1ww5_SGA_A_1.pdb
 15 15 0 0 0
SMALL
GASTEIGER

@<TRIPOS>ATOM
      1  C1        -4.4220    2.7350   62.1830 C.3   200  SGA200      0.1777
      2  C2        -5.6490    3.4130   62.8070 C.3   200  SGA200      0.2132
      3  C3        -5.2080    4.3160   63.9650 C.3   200  SGA200      0.2085
      4  C4        -4.3690    3.5260   64.9800 C.3   200  SGA200      0.2134
      5  C5        -3.2060    2.8330   64.2510 C.3   200  SGA200      0.1809
      6  C6        -2.3650    1.9520   65.1540 C.3   200  SGA200      0.2141
      7  O2        -6.3340    4.1860   61.8290 O.3   200  SGA200     -0.2176
      8  O3        -6.3570    4.8550   64.5960 O.3   200  SGA200     -0.2383
      9  O4        -5.1850    2.5640   65.6420 O.3   200  SGA200     -0.2176
     10  O5        -3.7030    1.9960   63.1840 O.3   200  SGA200     -0.3481
     11  O6        -1.0230    1.8630   64.6870 O.3   200  SGA200     -0.2176
     12  S         -6.3430    6.2980   65.0740 S.3   200  SGA200     -0.0001
     13  O1S       -6.0750    7.2180   63.9460 O.2   200  SGA200     -0.3452
     14  O2S       -7.6470    6.6030   65.6650 O.2   200  SGA200     -0.3452
     15  O3S       -5.3380    6.4910   66.1030 O.3   200  SGA200     -0.2682
@<TRIPOS>BOND
     1     7     2    1
     2     1     2    1
     3     1    10    1
     4     2     3    1
     5    10     5    1
     6    13    12    2
     7     3     8    1
     8     3     4    1
     9     5     4    1
    10     5     6    1
    11     8    12    1
    12    11     6    1
    13     4     9    1
    14    12    14    2
    15    12    15    1
