@<TRIPOS>MOLECULE
1ww6_GAL_A_1.pdb
 11 11 0 0 0
SMALL
GASTEIGER

@<TRIPOS>ATOM
      1  C1        -4.5240    2.8740   62.5600 C.3   200  GAL200      0.1777
      2  C2        -5.7010    3.5930   63.2270 C.3   200  GAL200      0.2141
      3  C3        -5.1510    4.5030   64.3460 C.3   200  GAL200      0.2173
      4  C4        -4.2990    3.6780   65.3220 C.3   200  GAL200      0.2142
      5  C5        -3.1980    2.9570   64.5430 C.3   200  GAL200      0.1810
      6  C6        -2.3150    2.0750   65.4150 C.3   200  GAL200      0.2141
      7  O2        -6.3990    4.3640   62.2560 O.3   200  GAL200     -0.2176
      8  O3        -6.2150    5.1280   65.0500 O.3   200  GAL200     -0.2175
      9  O4        -5.1180    2.7230   65.9830 O.3   200  GAL200     -0.2176
     10  O5        -3.7940    2.1150   63.5330 O.3   200  GAL200     -0.3481
     11  O6        -1.0230    1.9040   64.8460 O.3   200  GAL200     -0.2176
@<TRIPOS>BOND
     1     7     2    1
     2     1     2    1
     3     1    10    1
     4     2     3    1
     5    10     5    1
     6     3     8    1
     7     3     4    1
     8     5     4    1
     9     5     6    1
    10    11     6    1
    11     4     9    1
