@<TRIPOS>MOLECULE
1ww6_BGC_A_1.pdb
 12 12 0 0 0
SMALL
GASTEIGER

@<TRIPOS>ATOM
      1  C2        -3.1710   -0.7480   59.7370 C.3   201  BGC201      0.2434
      2  C3        -4.2240   -0.1070   60.6480 C.3   201  BGC201      0.2199
      3  C4        -3.9550    1.3920   60.7690 C.3   201  BGC201      0.2144
      4  C5        -3.9280    2.0180   59.3670 C.3   201  BGC201      0.1836
      5  C6        -3.6290    3.5050   59.3800 C.3   201  BGC201      0.2142
      6  C1        -3.1230   -0.0240   58.3810 C.3   201  BGC201      0.3024
      7  O1        -2.0630   -0.5220   57.6380 O.3   201  BGC201     -0.1869
      8  O2        -3.4850   -2.1200   59.5340 O.3   201  BGC201     -0.2148
      9  O3        -4.1820   -0.7100   61.9350 O.3   201  BGC201     -0.2174
     10  O4        -4.9780    2.0090   61.5770 O.3   201  BGC201     -0.2176
     11  O5        -2.9020    1.3860   58.5670 O.3   201  BGC201     -0.3236
     12  O6        -2.3490    3.7720   59.9370 O.3   201  BGC201     -0.2176
@<TRIPOS>BOND
     1     7     6    1
     2     6    11    1
     3     6     1    1
     4    11     4    1
     5     4     5    1
     6     4     3    1
     7     5    12    1
     8     8     1    1
     9     1     2    1
    10     2     3    1
    11     2     9    1
    12     3    10    1
