@<TRIPOS>MOLECULE
1wwk_NAD_A_1.pdb
 44 48 0 0 0
SMALL
GASTEIGER

@<TRIPOS>ATOM
      1  PA        62.1930   12.8540   14.3210 P.3   1001  NAD1001     0.2189
      2  O1A       60.9850   13.5110   13.7720 O.3   1001  NAD1001    -0.4371
      3  O2A       63.0390   12.0450   13.4160 O.2   1001  NAD1001    -0.5170
      4  O5B       61.7720   11.9550   15.5880 O.3   1001  NAD1001    -0.3112
      5  C5B       60.9830   12.5190   16.6370 C.3   1001  NAD1001     0.1813
      6  C4B       60.3410   11.4150   17.4810 C.3   1001  NAD1001     0.1821
      7  O4B       59.6740   12.0410   18.5910 O.3   1001  NAD1001    -0.3135
      8  C3B       59.2700   10.6870   16.6630 C.3   1001  NAD1001     0.2184
      9  O3B       59.3780    9.2710   16.8330 O.3   1001  NAD1001    -0.2174
     10  C2B       57.9680   11.2140   17.2680 C.3   1001  NAD1001     0.2570
     11  O2B       56.9630   10.1990   17.1940 O.3   1001  NAD1001    -0.2130
     12  C1B       58.4060   11.3830   18.7230 C.3   1001  NAD1001     0.3186
     13  N9A       57.4890   12.2280   19.5260 N.pl3 1001  NAD1001    -0.1439
     14  C8A       56.6700   13.1780   19.0750 C.3   1001  NAD1001     0.3377
     15  N7A       56.0040   13.7260   20.0890 N.2   1001  NAD1001    -0.2095
     16  C5A       56.4040   13.1220   21.2040 C.2   1001  NAD1001     0.2526
     17  C6A       56.0710   13.2370   22.5500 C.2   1001  NAD1001     0.4393
     18  N6A       55.1600   14.1210   22.9490 N.pl3 1001  NAD1001     0.2180
     19  N1A       56.6730   12.4360   23.4420 N.2   1001  NAD1001     0.0021
     20  C2A       57.5750   11.5430   23.0690 C.3   1001  NAD1001     0.5254
     21  N3A       57.9130   11.4080   21.7980 N.2   1001  NAD1001    -0.0055
     22  C4A       57.3510   12.1710   20.8480 C.2   1001  NAD1001     0.3518
     23  O3        63.0890   14.0230   14.9640 O.3   1001  NAD1001    -0.2703
     24  PN        64.6550   13.8380   15.2840 P.3   1001  NAD1001     0.2189
     25  O1N       65.4450   14.4210   14.1770 O.2   1001  NAD1001    -0.5170
     26  O2N       64.9630   12.4610   15.7300 O.3   1001  NAD1001    -0.4371
     27  O5D       64.7180   14.7920   16.5750 O.3   1001  NAD1001    -0.3112
     28  C5D       65.7980   15.6970   16.7820 C.3   1001  NAD1001     0.1813
     29  C4D       65.3920   16.7100   17.8520 C.3   1001  NAD1001     0.1799
     30  O4D       66.5830   17.4660   18.1220 O.3   1001  NAD1001    -0.3327
     31  C3D       64.4120   17.7340   17.2780 C.3   1001  NAD1001     0.2158
     32  O3D       63.8790   18.5820   18.3000 O.3   1001  NAD1001    -0.2175
     33  C2D       65.3570   18.5280   16.3800 C.3   1001  NAD1001     0.2309
     34  O2D       64.8340   19.8280   16.0950 O.3   1001  NAD1001    -0.2158
     35  C1D       66.5620   18.6560   17.3160 C.3   1001  NAD1001     0.2263
     36  N1N       67.8740   18.8430   16.6580 N.pl3 1001  NAD1001    -0.2787
     37  C2N       68.9120   19.4070   17.4100 C.3   1001  NAD1001     0.1244
     38  C3N       70.1670   19.5830   16.8380 C.2   1001  NAD1001     0.0544
     39  C7N       71.3090   20.1610   17.6760 C.2   1001  NAD1001     0.2818
     40  O7N       72.2790   20.7000   17.1450 O.2   1001  NAD1001    -0.2670
     41  N7N       71.1490   20.0530   18.9930 N.am  1001  NAD1001    -0.0839
     42  C4N       70.3760   19.2030   15.5150 C.2   1001  NAD1001     0.0033
     43  C5N       69.3520   18.6370   14.7610 C.2   1001  NAD1001     0.0157
     44  C6N       68.0960   18.4520   15.3280 C.2   1001  NAD1001     0.0633
@<TRIPOS>BOND
     1     3     1    2
     2     2     1    1
     3    25    24    2
     4     1    23    1
     5     1     4    1
     6    43    44    2
     7    43    42    1
     8    23    24    1
     9    24    26    1
    10    24    27    1
    11    44    36    1
    12    42    38    2
    13     4     5    1
    14    34    33    1
    15    33    31    1
    16    33    35    1
    17    27    28    1
    18     5     6    1
    19    36    35    1
    20    36    37    1
    21     8     9    1
    22     8    10    1
    23     8     6    1
    24    28    29    1
    25    38    37    1
    26    38    39    1
    27    40    39    2
    28    11    10    1
    29    10    12    1
    30    31    29    1
    31    31    32    1
    32    35    30    1
    33     6     7    1
    34    39    41   am
    35    29    30    1
    36     7    12    1
    37    12    13    1
    38    14    13    1
    39    14    15    1
    40    13    22    1
    41    15    16    2
    42    22    16    1
    43    22    21    2
    44    16    17    1
    45    21    20    1
    46    17    18    1
    47    17    19    2
    48    20    19    1
