@<TRIPOS>MOLECULE
1wxe_AMP_A_1.pdb
 23 25 0 0 0
SMALL
GASTEIGER

@<TRIPOS>ATOM
      1  P         55.9820   49.5570   11.7110 P.3   400  AMP400      0.5327
      2  O1P       56.2740   48.9000   12.9920 O.3   400  AMP400     -0.1145
      3  O2P       54.5590   49.7010   11.2840 O.2   400  AMP400     -0.2224
      4  O3P       56.7510   50.9500   11.7040 O.3   400  AMP400     -0.1145
      5  O5'       56.8060   48.8120   10.6060 O.3   400  AMP400     -0.2675
      6  C5'       56.2140   48.1730    9.4580 C.3   400  AMP400      0.1860
      7  C4'       57.0330   48.4360    8.2200 C.3   400  AMP400      0.1823
      8  O4'       56.4460   49.5810    7.5620 O.3   400  AMP400     -0.3135
      9  C3'       58.4890   48.7810    8.4350 C.3   400  AMP400      0.2184
     10  O3'       59.2050   47.5370    8.4570 O.3   400  AMP400     -0.2174
     11  C2'       58.7720   49.6180    7.2080 C.3   400  AMP400      0.2570
     12  O2'       58.9870   48.8460    6.0280 O.3   400  AMP400     -0.2130
     13  C1'       57.4640   50.4210    6.9900 C.3   400  AMP400      0.3186
     14  N9        57.4550   51.7680    7.6510 N.pl3 400  AMP400     -0.1439
     15  C8        56.7190   52.2120    8.7280 C.3   400  AMP400      0.3377
     16  N7        57.0680   53.3840    9.1810 N.2   400  AMP400     -0.2095
     17  C5        57.9630   53.8190    8.2190 C.2   400  AMP400      0.2526
     18  C6        58.6170   55.0670    8.0060 C.2   400  AMP400      0.4393
     19  N6        58.6200   56.0030    8.9420 N.pl3 400  AMP400      0.2180
     20  N1        59.2980   55.2630    6.8420 N.2   400  AMP400      0.0021
     21  C2        59.3470   54.2780    5.9350 C.3   400  AMP400      0.5254
     22  N3        58.7770   53.0580    6.0070 N.2   400  AMP400     -0.0055
     23  C4        58.1190   52.8830    7.2160 C.2   400  AMP400      0.3518
@<TRIPOS>BOND
     1    21    22    1
     2    21    20    1
     3    22    23    2
     4    12    11    1
     5    20    18    2
     6    13    11    1
     7    13     8    1
     8    13    14    1
     9    11     9    1
    10    23    14    1
    11    23    17    1
    12     8     7    1
    13    14    15    1
    14    18    17    1
    15    18    19    1
    16    17    16    2
    17     7     9    1
    18     7     6    1
    19     9    10    1
    20    15    16    1
    21     6     5    1
    22     5     1    1
    23     3     1    2
    24     4     1    1
    25     1     2    1
