@<TRIPOS>MOLECULE
1wxg_DND_A_1.pdb
 44 48 0 0 0
SMALL
GASTEIGER

@<TRIPOS>ATOM
      1  PN         2.3760   46.3700  -12.8880 P.3   300  DND300      0.2189
      2  O11        2.4650   44.8950  -12.7950 O.3   300  DND300     -0.4371
      3  O12        2.8660   47.0270  -14.1200 O.2   300  DND300     -0.5170
      4  O3P        3.0880   47.0530  -11.6160 O.3   300  DND300     -0.2703
      5  O5D        0.8370   46.7840  -12.6510 O.3   300  DND300     -0.3112
      6  C5D        0.2130   47.7200  -13.5320 C.3   300  DND300      0.1813
      7  C4D       -0.7670   47.0120  -14.4710 C.3   300  DND300      0.1799
      8  O4D       -1.9680   46.7130  -13.7300 O.3   300  DND300     -0.3327
      9  C3D       -1.1830   47.9420  -15.6110 C.3   300  DND300      0.2158
     10  O3D       -1.6050   47.1980  -16.7560 O.3   300  DND300     -0.2175
     11  C2D       -2.3700   48.6620  -14.9770 C.3   300  DND300      0.2309
     12  O2D       -3.2310   49.2200  -15.9730 O.3   300  DND300     -0.2158
     13  C1D       -3.0480   47.4610  -14.3190 C.3   300  DND300      0.2263
     14  N1N       -4.0980   47.8610  -13.3530 N.pl3 300  DND300     -0.2787
     15  C6N       -3.7450   48.2510  -12.0560 C.3   300  DND300      0.1195
     16  C5N       -4.7140   48.6390  -11.1330 C.2   300  DND300     -0.0044
     17  C4N       -6.0740   48.6710  -11.4200 C.2   300  DND300      0.0050
     18  C3N       -6.4320   48.2260  -12.8430 C.2   300  DND300      0.0940
     19  C2N       -5.4420   47.8470  -13.7460 C.2   300  DND300      0.0699
     20  C7N       -7.8960   48.2090  -13.2810 C.2   300  DND300      0.3890
     21  O7N       -8.7760   48.6480  -12.5390 O.co2 300  DND300     -0.2405
     22  O8N       -8.2170   47.7480  -14.3750 O.co2 300  DND300     -0.2405
     23  PA         2.9290   46.4210  -10.1440 P.3   300  DND300      0.2189
     24  O13        3.3670   47.4540   -9.1780 O.3   300  DND300     -0.4371
     25  O14        1.5720   45.8490   -9.9950 O.2   300  DND300     -0.5170
     26  O5B        4.0140   45.2320  -10.1830 O.3   300  DND300     -0.3112
     27  C5B        5.3800   45.5250  -10.4930 C.3   300  DND300      0.1813
     28  C4B        6.2910   45.3970   -9.2690 C.3   300  DND300      0.1821
     29  O4B        6.2590   44.0700   -8.7140 O.3   300  DND300     -0.3135
     30  C3B        7.7510   45.6440   -9.6520 C.3   300  DND300      0.2184
     31  O3B        8.0090   47.0500   -9.6020 O.3   300  DND300     -0.2174
     32  C2B        8.4410   44.9710   -8.4670 C.3   300  DND300      0.2570
     33  O2B        8.3250   45.7850   -7.2970 O.3   300  DND300     -0.2130
     34  C1B        7.5930   43.7040   -8.3190 C.3   300  DND300      0.3186
     35  N9A        8.0480   42.6290   -9.2310 N.pl3 300  DND300     -0.1439
     36  C4A        8.5280   41.4510   -8.8470 C.2   300  DND300      0.3518
     37  N3A        8.7570   40.8990   -7.6460 N.2   300  DND300     -0.0055
     38  C2A        9.2480   39.6750   -7.5430 C.3   300  DND300      0.5254
     39  N1A        9.5260   38.9600   -8.6180 N.2   300  DND300      0.0021
     40  C6A        9.3230   39.4470   -9.8540 C.2   300  DND300      0.4393
     41  C5A        8.8110   40.7280   -9.9980 C.2   300  DND300      0.2526
     42  N7A        8.4930   41.4960  -11.0370 N.2   300  DND300     -0.2095
     43  C8A        8.0290   42.6490  -10.5640 C.3   300  DND300      0.3377
     44  N6A        9.6100   38.7070  -10.9220 N.pl3 300  DND300      0.2180
@<TRIPOS>BOND
     1    10     9    1
     2    12    11    1
     3     9    11    1
     4     9     7    1
     5    11    13    1
     6     7     8    1
     7     7     6    1
     8    22    20   ar
     9    13     8    1
    10    13    14    1
    11     3     1    2
    12    19    14    1
    13    19    18    2
    14     6     5    1
    15    14    15    1
    16    20    18    1
    17    20    21   ar
    18     1     2    1
    19     1     5    1
    20     1     4    1
    21    18    17    1
    22    15    16    1
    23     4    23    1
    24    17    16    2
    25    42    43    1
    26    42    41    2
    27    44    40    1
    28    43    35    1
    29    27    26    1
    30    27    28    1
    31    26    23    1
    32    23    25    2
    33    23    24    1
    34    41    40    1
    35    41    36    1
    36    40    39    2
    37    30    31    1
    38    30    28    1
    39    30    32    1
    40    28    29    1
    41    35    36    1
    42    35    34    1
    43    36    37    2
    44    29    34    1
    45    39    38    1
    46    32    34    1
    47    32    33    1
    48    37    38    1
