@<TRIPOS>MOLECULE
1wxh_NAD_A_1.pdb
 44 48 0 0 0
SMALL
GASTEIGER

@<TRIPOS>ATOM
      1  PA        15.0120   45.1250    4.7230 P.3   400  NAD400      0.2189
      2  O1A       15.4590   44.0660    5.6550 O.3   400  NAD400     -0.4371
      3  O2A       16.0060   45.7490    3.8210 O.2   400  NAD400     -0.5170
      4  O5B       13.7690   44.5830    3.8560 O.3   400  NAD400     -0.3112
      5  C5B       13.0730   45.4540    2.9600 C.3   400  NAD400      0.1813
      6  C4B       13.2890   45.0800    1.4910 C.3   400  NAD400      0.1821
      7  O4B       12.9000   43.7240    1.2120 O.3   400  NAD400     -0.3135
      8  C3B       12.3990   45.9500    0.6040 C.3   400  NAD400      0.2184
      9  O3B       13.0910   47.1720    0.3310 O.3   400  NAD400     -0.2174
     10  C2B       12.3580   45.0910   -0.6590 C.3   400  NAD400      0.2570
     11  O2B       13.5760   45.2180   -1.3970 O.3   400  NAD400     -0.2130
     12  C1B       12.2340   43.6850   -0.0650 C.3   400  NAD400      0.3186
     13  N9A       10.8200   43.3100    0.1730 N.pl3 400  NAD400     -0.1439
     14  C8A        9.9670   43.8880    1.0180 C.3   400  NAD400      0.3377
     15  N7A        8.7990   43.2490    0.9880 N.2   400  NAD400     -0.2095
     16  C5A        8.9060   42.2520    0.1150 C.2   400  NAD400      0.2526
     17  C6A        8.0530   41.2480   -0.3310 C.2   400  NAD400      0.4393
     18  N6A        6.8130   41.1560    0.1410 N.pl3 400  NAD400      0.2180
     19  N1A        8.4990   40.3690   -1.2410 N.2   400  NAD400      0.0021
     20  C2A        9.7290   40.4380   -1.7210 C.3   400  NAD400      0.5254
     21  N3A       10.5670   41.3780   -1.3160 N.2   400  NAD400     -0.0055
     22  C4A       10.1920   42.2920   -0.4080 C.2   400  NAD400      0.3518
     23  O3        14.3660   46.3220    5.5890 O.3   400  NAD400     -0.2703
     24  PN        13.2020   46.1670    6.6970 P.3   400  NAD400      0.2189
     25  O1N       12.2520   47.1360    6.1090 O.2   400  NAD400     -0.5170
     26  O2N       12.9840   44.7030    6.6960 O.3   400  NAD400     -0.4371
     27  O5D       14.1470   46.6820    7.8980 O.3   400  NAD400     -0.3112
     28  C5D       14.8390   45.7910    8.7780 C.3   400  NAD400      0.1813
     29  C4D       15.5220   46.5770    9.9010 C.3   400  NAD400      0.1799
     30  O4D       14.5030   47.2590   10.6570 O.3   400  NAD400     -0.3327
     31  C3D       16.1800   45.6270   10.9000 C.3   400  NAD400      0.2158
     32  O3D       17.1120   46.3300   11.7250 O.3   400  NAD400     -0.2175
     33  C2D       14.9680   45.2010   11.7230 C.3   400  NAD400      0.2309
     34  O2D       15.3750   44.7030   13.0000 O.3   400  NAD400     -0.2158
     35  C1D       14.2850   46.5570   11.8950 C.3   400  NAD400      0.2263
     36  N1N       12.8490   46.4450   12.2370 N.pl3 400  NAD400     -0.2787
     37  C2N       12.4110   46.7180   13.5400 C.3   400  NAD400      0.1244
     38  C3N       11.0520   46.6810   13.8350 C.2   400  NAD400      0.0544
     39  C7N       10.5560   47.0440   15.2370 C.2   400  NAD400      0.2818
     40  O7N       11.2460   46.8180   16.2300 O.2   400  NAD400     -0.2670
     41  N7N        9.3400   47.5830   15.2910 N.am  400  NAD400     -0.0839
     42  C4N       10.1400   46.3650   12.8310 C.2   400  NAD400      0.0033
     43  C5N       10.5660   46.0860   11.5370 C.2   400  NAD400      0.0157
     44  C6N       11.9230   46.1260   11.2350 C.2   400  NAD400      0.0633
@<TRIPOS>BOND
     1    20    21    1
     2    20    19    1
     3    11    10    1
     4    21    22    2
     5    19    17    2
     6    10    12    1
     7    10     8    1
     8    22    16    1
     9    22    13    1
    10    17    16    1
    11    17    18    1
    12    12    13    1
    13    12     7    1
    14    16    15    2
    15    13    14    1
    16     9     8    1
    17     8     6    1
    18    15    14    1
    19     7     6    1
    20     6     5    1
    21     5     4    1
    22     3     1    2
    23     4     1    1
    24     1    23    1
    25     1     2    1
    26    23    24    1
    27    25    24    2
    28    26    24    1
    29    24    27    1
    30    27    28    1
    31    28    29    1
    32    29    30    1
    33    29    31    1
    34    30    35    1
    35    31    33    1
    36    31    32    1
    37    44    43    2
    38    44    36    1
    39    43    42    1
    40    33    35    1
    41    33    34    1
    42    35    36    1
    43    36    37    1
    44    42    38    2
    45    37    38    1
    46    38    39    1
    47    39    41   am
    48    39    40    2
