@<TRIPOS>MOLECULE
1wxi_AMP_A_1.pdb
 23 25 0 0 0
SMALL
GASTEIGER

@<TRIPOS>ATOM
      1  P         37.4190   46.4920   33.7400 P.3   300  AMP300      0.5327
      2  O1P       38.6260   45.8360   33.2280 O.3   300  AMP300     -0.1145
      3  O2P       36.9890   47.6620   32.9050 O.2   300  AMP300     -0.2224
      4  O3P       37.4570   46.7460   35.2480 O.3   300  AMP300     -0.1145
      5  O5'       36.2810   45.3530   33.4980 O.3   300  AMP300     -0.2675
      6  C5'       34.9220   45.5570   33.9930 C.3   300  AMP300      0.1860
      7  C4'       34.0330   45.5500   32.7300 C.3   300  AMP300      0.1823
      8  O4'       33.9700   44.1690   32.2170 O.3   300  AMP300     -0.3135
      9  C3'       32.4590   45.9850   33.1120 C.3   300  AMP300      0.2184
     10  O3'       32.3650   47.4540   32.8520 O.3   300  AMP300     -0.2174
     11  C2'       31.6850   45.1230   31.9950 C.3   300  AMP300      0.2570
     12  O2'       31.7030   45.7570   30.7280 O.3   300  AMP300     -0.2130
     13  C1'       32.6390   43.8060   31.8180 C.3   300  AMP300      0.3186
     14  N9        32.1840   42.6890   32.6910 N.pl3 300  AMP300     -0.1439
     15  C8        32.2050   42.5940   34.0990 C.3   300  AMP300      0.3377
     16  N7        31.7060   41.4630   34.6520 N.2   300  AMP300     -0.2095
     17  C5        31.3130   40.8030   33.4840 C.2   300  AMP300      0.2526
     18  C6        30.8240   39.4500   33.2930 C.2   300  AMP300      0.4393
     19  N6        30.6150   38.6800   34.4240 N.pl3 300  AMP300      0.2180
     20  N1        30.6170   38.9930   31.9560 N.2   300  AMP300      0.0021
     21  C2        30.9510   39.7080   30.8620 C.3   300  AMP300      0.5254
     22  N3        31.4980   41.0430   31.0520 N.2   300  AMP300     -0.0055
     23  C4        31.6070   41.5340   32.3000 C.2   300  AMP300      0.3518
@<TRIPOS>BOND
     1    12    11    1
     2    21    22    1
     3    21    20    1
     4    22    23    2
     5    13    11    1
     6    13     8    1
     7    13    14    1
     8    20    18    2
     9    11     9    1
    10     8     7    1
    11    23    14    1
    12    23    17    1
    13    14    15    1
    14     7     9    1
    15     7     6    1
    16    10     9    1
    17     3     1    2
    18     2     1    1
    19    18    17    1
    20    18    19    1
    21    17    16    2
    22     5     1    1
    23     5     6    1
    24     1     4    1
    25    15    16    1
