@<TRIPOS>MOLECULE
1wxj_IPL_A_1.pdb
 17 18 0 0 0
SMALL
GASTEIGER

@<TRIPOS>ATOM
      1  N1        -7.3660    5.3200   11.5500 N.2   1001  IPL1001    -0.2482
      2  C2        -6.1280    4.8360   11.9260 C.2   1001  IPL1001     0.0906
      3  C3        -5.6990    5.4020   13.0990 C.2   1001  IPL1001    -0.0158
      4  C4        -6.9060    7.1930   14.6060 C.2   1001  IPL1001    -0.0164
      5  C5        -8.0860    7.9650   14.6900 C.2   1001  IPL1001    -0.0038
      6  C6        -9.0980    7.8740   13.6950 C.2   1001  IPL1001     0.0009
      7  C7        -8.9670    7.0170   12.5890 C.2   1001  IPL1001     0.0153
      8  C8        -7.7760    6.2340   12.4970 C.2   1001  IPL1001     0.0665
      9  C9        -6.7450    6.3080   13.4870 C.3   1001  IPL1001     0.0819
     10  C1'       -2.1800    6.3090   13.4980 C.3   1001  IPL1001     0.1541
     11  C2'       -3.2310    5.3970   12.9200 C.3   1001  IPL1001     0.0371
     12  C3'       -4.4200    5.1710   13.8780 C.3   1001  IPL1001     0.0269
     13  P         -0.7070    8.4510   12.9830 P.3   1001  IPL1001     0.5326
     14  O1P       -0.5120    9.3770   11.8390 O.2   1001  IPL1001    -0.2224
     15  O2P        0.5480    7.6870   13.3060 O.3   1001  IPL1001    -0.1145
     16  O3P       -1.2520    9.1150   14.2220 O.3   1001  IPL1001    -0.1145
     17  O4P       -1.8330    7.3500   12.5720 O.3   1001  IPL1001    -0.2702
@<TRIPOS>BOND
     1     1     2    1
     2     1     8    2
     3    14    13    2
     4     2     3    2
     5     8     7    1
     6     8     9    1
     7    17    13    1
     8    17    10    1
     9     7     6    2
    10    11    10    1
    11    11    12    1
    12    13    15    1
    13    13    16    1
    14     3     9    1
    15     3    12    1
    16     9     4    1
    17     6     5    1
    18     4     5    2
