@<TRIPOS>MOLECULE
1wxy_FRK_A_1.pdb
 27 29 0 0 0
SMALL
GASTEIGER

@<TRIPOS>ATOM
      1  C1        63.7850   67.2320   49.1040 C.2   401  FRK401      0.2332
      2  S2        62.9290   68.6420   49.7480 S.3   401  FRK401     -0.0544
      3  C3        61.4970   68.1770   48.8370 C.3   401  FRK401      0.1298
      4  C4        61.6810   67.0620   48.1140 C.2   401  FRK401      0.1254
      5  N5        63.0510   66.5330   48.2440 N.2   401  FRK401     -0.3821
      6  C6        60.2650   68.9510   48.8830 C.ar  401  FRK401     -0.0052
      7  N7        65.0580   66.9710   49.2100 N.am  401  FRK401     -0.1437
      8  C8        65.7830   67.5150   50.1720 C.2   401  FRK401      0.2480
      9  C9        67.2940   67.3680   49.9130 C.3   401  FRK401      0.0873
     10  O10       65.3070   67.9990   51.1830 O.2   401  FRK401     -0.2729
     11  C11       67.9050   68.4220   49.0180 C.3   401  FRK401      0.0096
     12  C12       68.4760   69.6040   49.7760 C.3   401  FRK401      0.0005
     13  C15       68.9620   70.7120   48.8390 C.3   401  FRK401      0.0000
     14  C18       68.4370   72.0910   49.1920 C.3   401  FRK401      0.0000
     15  C21       60.6850   66.3740   47.2960 C.ar  401  FRK401      0.0269
     16  C22       60.4690   65.0100   47.5270 C.ar  401  FRK401      0.0055
     17  C23       59.5330   64.2970   46.8150 C.ar  401  FRK401      0.0421
     18  C24       58.7340   64.9600   45.8960 C.ar  401  FRK401      0.1957
     19  C25       58.9780   66.3000   45.5920 C.ar  401  FRK401      0.0421
     20  C26       59.9640   67.0100   46.2980 C.ar  401  FRK401      0.0055
     21  C31       60.0040   69.9500   47.9460 C.ar  401  FRK401      0.0002
     22  C32       58.8190   70.6960   48.0100 C.ar  401  FRK401      0.0417
     23  C33       57.8950   70.4400   49.0470 C.ar  401  FRK401      0.1957
     24  C34       58.2060   69.4700   49.9940 C.ar  401  FRK401      0.0417
     25  C35       59.3600   68.7250   49.8970 C.ar  401  FRK401      0.0002
     26  O40       57.6760   64.2630   45.3660 O.3   401  FRK401     -0.2866
     27  O41       56.6290   71.0210   49.1440 O.3   401  FRK401     -0.2866
@<TRIPOS>BOND
     1    26    18    1
     2    19    18   ar
     3    19    20   ar
     4    18    17   ar
     5    20    15   ar
     6    17    16   ar
     7    15    16   ar
     8    15     4    1
     9    21    22   ar
    10    21     6   ar
    11    22    23   ar
    12     4     5    2
    13     4     3    1
    14     5     1    2
    15     3     6    1
    16     3     2    1
    17    13    14    1
    18    13    12    1
    19     6    25   ar
    20    11    12    1
    21    11     9    1
    22    23    27    1
    23    23    24   ar
    24     1     7    1
    25     1     2    1
    26     7     8   am
    27    25    24   ar
    28     9     8    1
    29     8    10    2
