@<TRIPOS>MOLECULE
1wxz_FRL_A_1.pdb
 30 33 0 0 0
SMALL
GASTEIGER

@<TRIPOS>ATOM
      1  C1        47.3620   52.3190   15.2830 C.ar  401  FRL401      0.0116
      2  C2        47.2750   53.5770   15.9120 C.ar  401  FRL401      0.0066
      3  C3        48.1510   53.9590   16.9310 C.ar  401  FRL401      0.0665
      4  C4        49.1070   53.0510   17.3860 C.ar  401  FRL401      0.0066
      5  C5        49.2230   51.7780   16.7580 C.ar  401  FRL401      0.0116
      6  C6        48.3670   51.4350   15.6790 C.ar  401  FRL401      0.0577
      7 CL7        48.5900   50.0410   14.7520 Cl    401  FRL401     -0.0822
      8  C8        48.0240   55.2940   17.4850 C.2   401  FRL401      0.2821
      9  N9        47.4860   56.3100   16.7930 N.2   401  FRL401     -0.3643
     10  C10       47.4740   57.4220   17.6190 C.2   401  FRL401      0.1684
     11  C11       48.0670   56.9890   18.8620 C.2   401  FRL401      0.1703
     12  O12       48.3890   55.6670   18.7500 O.2   401  FRL401     -0.4253
     13  C13       47.0500   58.7340   17.4680 C.2   401  FRL401      0.0311
     14  C14       47.1950   59.6890   18.5080 C.2   401  FRL401     -0.0189
     15  C15       47.7880   59.2780   19.7390 C.3   401  FRL401      0.0516
     16  C16       48.2200   57.9140   19.8920 C.2   401  FRL401      0.0017
     17  C17       48.8770   57.4510   21.1530 C.3   401  FRL401      0.0525
     18  C18       50.2810   58.0670   21.2890 C.2   401  FRL401     -0.0090
     19  C19       51.4610   57.1710   21.6880 C.2   401  FRL401      0.0531
     20  C20       52.8040   57.8520   21.7660 C.3   401  FRL401      0.1871
     21  O21       53.4100   57.5480   23.0170 O.3   401  FRL401     -0.2170
     22  N22       51.3530   55.7490   22.0510 N.pl3 401  FRL401     -0.2832
     23  C23       53.6540   57.5830   20.4980 C.3   401  FRL401      0.0418
     24  C24       51.4060   55.1960   23.2850 C.3   401  FRL401      0.2198
     25  N25       51.2790   53.8350   23.2370 N.2   401  FRL401     -0.2460
     26  C26       51.1430   53.4740   21.9280 C.2   401  FRL401      0.1320
     27  C27       51.1800   54.6810   21.1850 C.3   401  FRL401      0.1429
     28  C28       51.1010   52.1900   21.4230 C.2   401  FRL401      0.2991
     29  O29       51.0150   52.0010   20.2160 O.2   401  FRL401     -0.2653
     30  N30       51.1790   51.1750   22.2410 N.am  401  FRL401     -0.0826
@<TRIPOS>BOND
     1     7     6    1
     2     1     6   ar
     3     1     2   ar
     4     6     5   ar
     5     2     3   ar
     6     5     4   ar
     7     9     8    2
     8     9    10    2
     9     3     4   ar
    10     3     8    1
    11    13    10    1
    12    13    14    2
    13     8    12    1
    14    10    11    1
    15    14    15    1
    16    12    11    1
    17    11    16    2
    18    15    16    1
    19    16    17    1
    20    29    28    2
    21    23    20    1
    22    17    18    1
    23    27    26    1
    24    27    22    1
    25    18    19    2
    26    28    26    1
    27    28    30   am
    28    19    20    1
    29    19    22    1
    30    20    21    1
    31    26    25    2
    32    22    24    1
    33    25    24    1
