@<TRIPOS>MOLECULE
1wy7_SAH_A_1.pdb
 26 28 0 0 0
SMALL
GASTEIGER

@<TRIPOS>ATOM
      1  N         40.4990   -1.6810   43.3890 N.3   1001  SAH1001    -0.1208
      2  CA        39.1630   -1.7030   42.7600 C.3   1001  SAH1001     0.1952
      3  CB        38.4180   -2.9290   43.3120 C.3   1001  SAH1001     0.0422
      4  CG        38.7310   -4.0500   42.3870 C.3   1001  SAH1001     0.0597
      5  SD        38.1490   -5.7400   42.6230 S.3   1001  SAH1001    -0.1375
      6  C         38.5220   -0.3720   43.0490 C.2   1001  SAH1001     0.3819
      7  O         39.2770    0.6020   43.3560 O.co2 1001  SAH1001    -0.2441
      8  OXT       37.2490   -0.3730   42.9600 O.co2 1001  SAH1001    -0.2441
      9  C5'       36.8080   -5.6670   43.7910 C.3   1001  SAH1001     0.0899
     10  C4'       37.0540   -6.0700   45.2530 C.3   1001  SAH1001     0.1630
     11  O4'       36.0370   -7.0190   45.6620 O.3   1001  SAH1001    -0.3153
     12  C3'       38.3450   -6.8370   45.5470 C.3   1001  SAH1001     0.2168
     13  O3'       39.1990   -5.8460   46.1530 O.3   1001  SAH1001    -0.2175
     14  C2'       37.9810   -7.9070   46.5890 C.3   1001  SAH1001     0.2569
     15  O2'       38.7610   -8.1060   47.7460 O.3   1001  SAH1001    -0.2130
     16  C1'       36.4930   -7.6180   46.8520 C.3   1001  SAH1001     0.3185
     17  N9        35.6850   -8.7990   47.1190 N.pl3 1001  SAH1001    -0.1439
     18  C8        35.7150  -10.0600   46.5500 C.3   1001  SAH1001     0.3377
     19  N7        34.8150  -10.8810   47.0300 N.2   1001  SAH1001    -0.2095
     20  C5        34.1380  -10.1230   47.9800 C.2   1001  SAH1001     0.2526
     21  C6        33.0480  -10.3950   48.8510 C.2   1001  SAH1001     0.4393
     22  N6        32.4350  -11.5990   48.8760 N.pl3 1001  SAH1001     0.2180
     23  N1        32.5930   -9.4150   49.7010 N.2   1001  SAH1001     0.0021
     24  C2        33.2030   -8.2070   49.6670 C.3   1001  SAH1001     0.5254
     25  N3        34.2400   -7.8240   48.8860 N.2   1001  SAH1001    -0.0055
     26  C4        34.6670   -8.8370   48.0500 C.2   1001  SAH1001     0.3518
@<TRIPOS>BOND
     1     4     5    1
     2     4     3    1
     3     5     9    1
     4     2     6    1
     5     2     3    1
     6     2     1    1
     7     8     6   ar
     8     6     7   ar
     9     9    10    1
    10    10    12    1
    11    10    11    1
    12    12    13    1
    13    12    14    1
    14    11    16    1
    15    18    19    1
    16    18    17    1
    17    14    16    1
    18    14    15    1
    19    16    17    1
    20    19    20    2
    21    17    26    1
    22    20    26    1
    23    20    21    1
    24    26    25    2
    25    21    22    1
    26    21    23    2
    27    25    24    1
    28    24    23    1
