@<TRIPOS>MOLECULE
1wyu_PLP_B_1.pdb
 15 15 0 0 0
SMALL
GASTEIGER

@<TRIPOS>ATOM
      1  N1        67.1230   31.9260   53.9120 N.ar  475  PLP475     -0.2452
      2  C2        68.1110   31.2350   54.5960 C.ar  475  PLP475      0.0978
      3  C2A       67.7860   29.8620   55.2100 C.3   475  PLP475      0.0555
      4  C3        69.3780   31.7780   54.6910 C.ar  475  PLP475      0.2049
      5  O3        70.3480   31.1370   55.4080 O.3   475  PLP475     -0.2857
      6  C4        69.6490   33.0190   54.0730 C.ar  475  PLP475      0.0182
      7  C4A       71.1080   33.4580   54.0120 C.3   475  PLP475      0.0342
      8  C5        68.6030   33.7220   53.3850 C.ar  475  PLP475      0.0261
      9  C6        67.3510   33.1490   53.3190 C.ar  475  PLP475      0.0965
     10  C5A       68.7530   35.0840   52.7110 C.3   475  PLP475      0.1815
     11  O4P       69.6730   35.2880   51.6660 O.3   475  PLP475     -0.2653
     12  P         70.4270   36.6720   51.4720 P.3   475  PLP475      0.5329
     13  O1P       69.3600   37.6660   51.1880 O.3   475  PLP475     -0.1145
     14  O2P       71.3260   36.4010   50.3160 O.2   475  PLP475     -0.2224
     15  O3P       71.1290   36.8960   52.7620 O.3   475  PLP475     -0.1145
@<TRIPOS>BOND
     1    14    12    2
     2    13    12    1
     3    12    11    1
     4    12    15    1
     5    11    10    1
     6    10     8    1
     7     9     8   ar
     8     9     1   ar
     9     8     6   ar
    10     1     2   ar
    11     7     6    1
    12     6     4   ar
    13     2     4   ar
    14     2     3    1
    15     4     5    1
