@<TRIPOS>MOLECULE
1wyv_PLP_B_1.pdb
 15 15 0 0 0
SMALL
GASTEIGER

@<TRIPOS>ATOM
      1  N1        66.7060   31.9490   54.1330 N.ar  1475  PLP1475    -0.2452
      2  C2        67.5000   31.3050   55.0780 C.ar  1475  PLP1475     0.0978
      3  C2A       67.1000   29.8970   55.5520 C.3   1475  PLP1475     0.0555
      4  C3        68.6370   31.9450   55.5670 C.ar  1475  PLP1475     0.2049
      5  O3        69.4320   31.3160   56.4830 O.3   1475  PLP1475    -0.2857
      6  C4        68.9620   33.2520   55.0890 C.ar  1475  PLP1475     0.0182
      7  C4A       70.0920   34.0300   55.7920 C.3   1475  PLP1475     0.0342
      8  C5        68.1230   33.8700   54.0860 C.ar  1475  PLP1475     0.0261
      9  C6        67.0030   33.1950   53.6440 C.ar  1475  PLP1475     0.0965
     10  C5A       68.4160   35.1910   53.3670 C.3   1475  PLP1475     0.1815
     11  O4P       69.2130   35.2470   52.1860 O.3   1475  PLP1475    -0.2653
     12  P         70.0660   36.5440   51.8490 P.3   1475  PLP1475     0.5329
     13  O1P       69.0630   37.5770   51.4830 O.3   1475  PLP1475    -0.1145
     14  O2P       70.9390   36.1340   50.7240 O.2   1475  PLP1475    -0.2224
     15  O3P       70.8020   36.8270   53.1090 O.3   1475  PLP1475    -0.1145
@<TRIPOS>BOND
     1    14    12    2
     2    13    12    1
     3    12    11    1
     4    12    15    1
     5    11    10    1
     6    10     8    1
     7     9     8   ar
     8     9     1   ar
     9     8     6   ar
    10     1     2   ar
    11     2     3    1
    12     2     4   ar
    13     6     4   ar
    14     6     7    1
    15     4     5    1
