@<TRIPOS>MOLECULE
1wz1_DNS_H_1.pdb
 26 27 0 0 0
SMALL
GASTEIGER

@<TRIPOS>ATOM
      1  C1        69.3130   20.9250  -39.1520 C.3   200  DNS200      0.1122
      2  N1        68.8480   19.8930  -40.0930 N.pl3 200  DNS200     -0.3041
      3  C2        68.6910   19.9120  -41.5710 C.3   200  DNS200      0.1122
      4  C3        69.3080   18.5800  -39.6750 C.ar  200  DNS200      0.0479
      5  C4        70.5240   18.4150  -38.9430 C.ar  200  DNS200      0.0145
      6  C5        70.9790   17.1430  -38.5220 C.ar  200  DNS200      0.0013
      7  C6        70.2530   16.0000  -38.7930 C.ar  200  DNS200      0.0014
      8  C7        69.0170   16.0710  -39.5190 C.ar  200  DNS200      0.0199
      9  C8        68.2320   14.8940  -39.8060 C.ar  200  DNS200      0.1236
     10  S         68.7490   13.2990  -39.2600 S.O2  200  DNS200      0.0768
     11  OA        69.0290   13.4260  -37.8870 O.2   200  DNS200     -0.1516
     12  OB        67.7090   12.4450  -39.7430 O.2   200  DNS200     -0.1516
     13  NZ        70.1800   12.9500  -40.0320 N.3   200  DNS200     -0.0778
     14  CE        70.2890   11.9160  -41.0700 C.3   200  DNS200      0.1155
     15  CD        71.3620   12.2810  -42.1330 C.3   200  DNS200      0.0209
     16  CG        72.0410   13.6330  -41.8440 C.3   200  DNS200      0.0036
     17  CB        73.4960   13.6210  -42.3640 C.3   200  DNS200      0.0307
     18  CA        73.9810   15.0700  -42.6100 C.3   200  DNS200      0.1943
     19  C         74.6820   15.6260  -41.3880 C.2   200  DNS200      0.3819
     20  OXT       75.6220   16.3750  -41.5110 O.co2 200  DNS200     -0.2441
     21  O         74.2650   15.2970  -40.1600 O.co2 200  DNS200     -0.2441
     22  N         74.9190   15.0950  -43.7530 N.3   200  DNS200     -0.1208
     23  C9        67.0390   15.0190  -40.5190 C.ar  200  DNS200      0.0200
     24  C10       66.5730   16.2710  -40.9680 C.ar  200  DNS200      0.0014
     25  C11       67.2860   17.4270  -40.7080 C.ar  200  DNS200      0.0013
     26  C12       68.5280   17.3770  -39.9800 C.ar  200  DNS200      0.0146
@<TRIPOS>BOND
     1    22    18    1
     2    18    17    1
     3    18    19    1
     4    17    16    1
     5    15    16    1
     6    15    14    1
     7     3     2    1
     8    20    19   ar
     9    19    21   ar
    10    14    13    1
    11    24    25   ar
    12    24    23   ar
    13    25    26   ar
    14    23     9   ar
    15     2     4    1
    16     2     1    1
    17    13    10    1
    18    26     4   ar
    19    26     8   ar
    20     9     8   ar
    21     9    10    1
    22    12    10    2
    23     4     5   ar
    24     8     7   ar
    25    10    11    2
    26     5     6   ar
    27     7     6   ar
