@<TRIPOS>MOLECULE
1wzd_YOK_A_1.pdb
 30 35 0 0 0
SMALL
GASTEIGER

@<TRIPOS>ATOM
      1  O1A       -4.5000   13.7820   44.5270 O.co2 901  YOK901      0.0000
      2  CGA       -3.4390   13.0960   44.2340 C.2   901  YOK901      0.0000
      3  O2A       -2.5130   13.0410   45.0570 O.co2 901  YOK901      0.0000
      4  CBA       -3.3290   12.4270   42.9850 C.3   901  YOK901      0.0000
      5  CAA       -4.5300   12.4870   41.9940 C.3   901  YOK901      0.0000
      6  CC5       -3.9710   11.9380   40.7010 C.ar  901  YOK901      0.0000
      7  CC4       -3.2650   10.6970   40.6630 C.ar  901  YOK901      0.0000
      8  CC3       -2.7570   10.2420   39.4200 C.ar  901  YOK901      0.0000
      9  CC2       -2.9940   11.0440   38.2800 C.ar  901  YOK901      0.0000
     10  NB        -2.5070   10.6600   37.0100 N.pl3 901  YOK901      0.0000
     11 FE         -2.2590   12.3910   35.7190 Fe    901  YOK901      0.0000
     12  OB        -1.0970   11.2770   34.5980 O.3   901  YOK901      0.0000
     13  CB2       -1.0300    9.9250   34.4530 C.ar  901  YOK901      0.0000
     14  CB1       -1.6010    9.0280   35.4300 C.ar  901  YOK901      0.0000
     15  CB6       -1.4900    7.6470   35.2320 C.ar  901  YOK901      0.0000
     16  CB5       -0.8550    7.1650   34.0980 C.ar  901  YOK901      0.0000
     17  CB4       -0.2960    8.0300   33.1450 C.ar  901  YOK901      0.0000
     18  CB3       -0.3800    9.4210   33.3050 C.ar  901  YOK901      0.0000
     19  CB        -2.2590    9.4690   36.6110 C.3   901  YOK901      0.0000
     20  OA        -3.5430   12.7140   34.3820 O.3   901  YOK901      0.0000
     21  CA2       -4.5830   13.5880   34.2900 C.ar  901  YOK901      0.0000
     22  CA3       -5.0320   13.9920   32.9900 C.ar  901  YOK901      0.0000
     23  CA4       -6.1150   14.9160   32.9280 C.ar  901  YOK901      0.0000
     24  CA5       -6.7470   15.4400   34.0860 C.ar  901  YOK901      0.0000
     25  CA6       -6.2840   15.0210   35.3740 C.ar  901  YOK901      0.0000
     26  CA1       -5.2040   14.0990   35.5040 C.ar  901  YOK901      0.0000
     27  CA        -4.7830   13.7040   36.8180 C.3   901  YOK901      0.0000
     28  NA        -3.8080   12.8870   37.0820 N.pl3 901  YOK901      0.0000
     29  CC1       -3.7050   12.2600   38.3440 C.ar  901  YOK901      0.0000
     30  CC6       -4.2000   12.7250   39.5680 C.ar  901  YOK901      0.0000
@<TRIPOS>BOND
     1    23    22   ar
     2    23    24   ar
     3    22    21   ar
     4    17    18   ar
     5    17    16   ar
     6    18    13   ar
     7    24    25   ar
     8    16    15   ar
     9    21    20    1
    10    21    26   ar
    11    20    11    1
    12    13    12    1
    13    13    14   ar
    14    12    11    1
    15    15    14   ar
    16    25    26   ar
    17    14    19    1
    18    26    27    1
    19    11    10    1
    20    11    28    1
    21    19    10    1
    22    27    28    1
    23    10     9    1
    24    28    29    1
    25     9    29   ar
    26     9     8   ar
    27    29    30   ar
    28     8     7   ar
    29    30     6   ar
    30     7     6   ar
    31     6     5    1
    32     5     4    1
    33     4     2    1
    34     2     1   ar
    35     2     3   ar
