@<TRIPOS>MOLECULE
1wze_NAD_A_1.pdb
 26 27 0 0 0
SMALL
GASTEIGER

@<TRIPOS>ATOM
      1  PA        27.2110   22.6820   23.4800 P.3   1334  NAD1334     0.5373
      2  O1A       27.7540   22.9280   22.1390 O.2   1334  NAD1334    -0.2221
      3  O2A       28.2730   22.5320   24.4910 O.3   1334  NAD1334    -0.1143
      4  O5B       26.3480   21.3400   23.6050 O.3   1334  NAD1334    -0.1143
      5  O3        26.1690   23.7880   23.8390 O.3   1334  NAD1334    -0.2261
      6  PN        25.9350   24.7050   25.1370 P.3   1334  NAD1334     0.2231
      7  O1N       26.9510   25.7950   25.0900 O.2   1334  NAD1334    -0.5169
      8  O2N       26.0360   23.8170   26.3120 O.3   1334  NAD1334    -0.4370
      9  O5D       24.4930   25.3550   24.9000 O.3   1334  NAD1334    -0.3111
     10  C5D       23.3440   24.4800   24.7920 C.3   1334  NAD1334     0.1813
     11  C4D       22.1290   25.2750   24.3300 C.3   1334  NAD1334     0.1799
     12  O4D       21.7080   26.2260   25.3650 O.3   1334  NAD1334    -0.3327
     13  C3D       22.3100   26.0810   23.0300 C.3   1334  NAD1334     0.2158
     14  O3D       21.1970   25.9920   22.1190 O.3   1334  NAD1334    -0.2175
     15  C2D       22.5490   27.4970   23.5820 C.3   1334  NAD1334     0.2309
     16  O2D       22.2760   28.4900   22.5600 O.3   1334  NAD1334    -0.2158
     17  C1D       21.5960   27.4940   24.7580 C.3   1334  NAD1334     0.2263
     18  N1N       21.8140   28.5530   25.7820 N.pl3 1334  NAD1334    -0.2787
     19  C2N       20.6290   29.0560   26.2910 C.3   1334  NAD1334     0.1244
     20  C3N       20.7300   30.0450   27.2600 C.2   1334  NAD1334     0.0544
     21  C7N       19.4970   30.6810   27.9040 C.2   1334  NAD1334     0.2818
     22  O7N       18.3830   30.1970   27.6670 O.2   1334  NAD1334    -0.2670
     23  N7N       19.6430   31.7360   28.7110 N.am  1334  NAD1334    -0.0839
     24  C4N       22.0250   30.5330   27.7190 C.2   1334  NAD1334     0.0033
     25  C5N       23.1650   29.9300   27.1100 C.2   1334  NAD1334     0.0157
     26  C6N       23.1390   28.9480   26.1490 C.2   1334  NAD1334     0.0633
@<TRIPOS>BOND
     1    14    13    1
     2     2     1    2
     3    16    15    1
     4    13    15    1
     5    13    11    1
     6     1     4    1
     7     1     5    1
     8     1     3    1
     9    15    17    1
    10     5     6    1
    11    11    10    1
    12    11    12    1
    13    17    12    1
    14    17    18    1
    15    10     9    1
    16     9     6    1
    17     7     6    2
    18     6     8    1
    19    18    26    1
    20    18    19    1
    21    26    25    2
    22    19    20    1
    23    25    24    1
    24    20    24    2
    25    20    21    1
    26    22    21    2
    27    21    23   am
