@<TRIPOS>MOLECULE
1wzf_YOL_A_1.pdb
 28 33 0 0 0
SMALL
GASTEIGER

@<TRIPOS>ATOM
      1  O2A       -2.9190   12.5760   43.4240 O.co2 901  YOL901      0.0000
      2  CAA       -3.5820   12.7460   42.3970 C.2   901  YOL901      0.0000
      3  O1A       -4.6150   13.5730   42.4130 O.co2 901  YOL901      0.0000
      4  CC5       -3.3100   12.0530   41.0450 C.ar  901  YOL901      0.0000
      5  CC6       -3.6630   12.8470   39.8740 C.ar  901  YOL901      0.0000
      6  CC1       -3.2180   12.3700   38.5900 C.ar  901  YOL901      0.0000
      7  CC2       -2.4460   11.1410   38.5620 C.ar  901  YOL901      0.0000
      8  CC3       -2.1070   10.3540   39.7280 C.ar  901  YOL901      0.0000
      9  CC4       -2.5430   10.8140   41.0040 C.ar  901  YOL901      0.0000
     10  NA        -3.4320   12.9490   37.3280 N.pl3 901  YOL901      0.0000
     11  CA        -4.2750   13.9210   36.9930 C.3   901  YOL901      0.0000
     12  CA1       -4.7100   14.3520   35.6640 C.ar  901  YOL901      0.0000
     13  CA6       -5.7860   15.2180   35.4120 C.ar  901  YOL901      0.0000
     14  CA5       -6.2060   15.6200   34.1150 C.ar  901  YOL901      0.0000
     15  CA4       -5.5260   15.1450   32.9780 C.ar  901  YOL901      0.0000
     16  CA3       -4.4200   14.2690   33.1670 C.ar  901  YOL901      0.0000
     17  CA2       -4.0050   13.8700   34.4740 C.ar  901  YOL901      0.0000
     18  OA        -2.9420   13.0280   34.6320 O.3   901  YOL901      0.0000
     19 FE         -1.6540   12.5340   36.0820 Fe    901  YOL901      0.0000
     20  OB        -0.6450   11.4330   34.6810 O.3   901  YOL901      0.0000
     21  CB2       -0.6100   10.0660   34.6530 C.ar  901  YOL901      0.0000
     22  CB3        0.0480    9.5460   33.5080 C.ar  901  YOL901      0.0000
     23  CB4        0.1400    8.1400   33.3720 C.ar  901  YOL901      0.0000
     24  CB5       -0.3980    7.2370   34.3050 C.ar  901  YOL901      0.0000
     25  CB6       -1.0540    7.7210   35.4260 C.ar  901  YOL901      0.0000
     26  CB1       -1.1770    9.1070   35.6350 C.ar  901  YOL901      0.0000
     27  CB        -1.8660    9.5210   36.8340 C.3   901  YOL901      0.0000
     28  NB        -2.0000   10.6710   37.2840 N.pl3 901  YOL901      0.0000
@<TRIPOS>BOND
     1    15    16   ar
     2    15    14   ar
     3    16    17   ar
     4    23    22   ar
     5    23    24   ar
     6    22    21   ar
     7    14    13   ar
     8    24    25   ar
     9    17    18    1
    10    17    12   ar
    11    18    19    1
    12    21    20    1
    13    21    26   ar
    14    20    19    1
    15    13    12   ar
    16    25    26   ar
    17    26    27    1
    18    12    11    1
    19    19    28    1
    20    19    10    1
    21    27    28    1
    22    11    10    1
    23    28     7    1
    24    10     6    1
    25     7     6   ar
    26     7     8   ar
    27     6     5   ar
    28     8     9   ar
    29     5     4   ar
    30     9     4   ar
    31     4     2    1
    32     2     3   ar
    33     2     1   ar
