@<TRIPOS>MOLECULE
1wzg_YOM_A_1.pdb
 25 30 0 0 0
SMALL
GASTEIGER

@<TRIPOS>ATOM
      1  CA4       -6.3420   15.4240   33.6120 C.ar  901  YOM901      0.0000
      2  CA5       -6.8990   15.7740   34.8640 C.ar  901  YOM901      0.0000
      3  CA6       -6.4040   15.1370   36.0410 C.ar  901  YOM901      0.0000
      4  CA1       -5.3730   14.1680   35.9530 C.ar  901  YOM901      0.0000
      5  CA        -4.9270   13.5600   37.1780 C.3   901  YOM901      0.0000
      6  NA        -3.8830   12.8040   37.3420 N.pl3 901  YOM901      0.0000
      7  CC1       -3.7660   12.1470   38.6080 C.ar  901  YOM901      0.0000
      8  CC6       -4.3220   12.4810   39.8680 C.ar  901  YOM901      0.0000
      9  CA3       -5.3000   14.4710   33.4560 C.ar  901  YOM901      0.0000
     10  CA2       -4.8120   13.8390   34.6460 C.ar  901  YOM901      0.0000
     11  OA        -3.8220   12.9160   34.5160 O.3   901  YOM901      0.0000
     12 FE         -2.3850   12.4450   35.9760 Fe    901  YOM901      0.0000
     13  NB        -2.4080   10.6810   37.3120 N.pl3 901  YOM901      0.0000
     14  CC2       -2.9480   10.9770   38.5300 C.ar  901  YOM901      0.0000
     15  CC3       -2.6880   10.1270   39.6720 C.ar  901  YOM901      0.0000
     16  CC4       -3.2520   10.4620   40.9260 C.ar  901  YOM901      0.0000
     17  CC5       -4.0740   11.6420   40.9990 C.ar  901  YOM901      0.0000
     18  OB        -1.1790   11.4000   34.7560 O.3   901  YOM901      0.0000
     19  CB2       -1.1400   10.0360   34.5810 C.ar  901  YOM901      0.0000
     20  CB1       -1.7270    9.0760   35.5320 C.ar  901  YOM901      0.0000
     21  CB        -2.3620    9.5090   36.7400 C.3   901  YOM901      0.0000
     22  CB6       -1.6160    7.7020   35.2010 C.ar  901  YOM901      0.0000
     23  CB5       -0.9840    7.2640   34.0350 C.ar  901  YOM901      0.0000
     24  CB4       -0.4430    8.1720   33.0770 C.ar  901  YOM901      0.0000
     25  CB3       -0.5150    9.5630   33.3800 C.ar  901  YOM901      0.0000
@<TRIPOS>BOND
     1    24    25   ar
     2    24    23   ar
     3    25    19   ar
     4     9     1   ar
     5     9    10   ar
     6     1     2   ar
     7    23    22   ar
     8    11    10    1
     9    11    12    1
    10    19    18    1
    11    19    20   ar
    12    10     4   ar
    13    18    12    1
    14     2     3   ar
    15    22    20   ar
    16    20    21    1
    17     4     3   ar
    18     4     5    1
    19    12    13    1
    20    12     6    1
    21    21    13    1
    22     5     6    1
    23    13    14    1
    24     6     7    1
    25    14     7   ar
    26    14    15   ar
    27     7     8   ar
    28    15    16   ar
    29     8    17   ar
    30    16    17   ar
