@<TRIPOS>MOLECULE
1wzi_NDP_A_1.pdb
 39 41 0 0 0
SMALL
GASTEIGER

@<TRIPOS>ATOM
      1  PA         8.2590   18.6820   23.9530 P.3   1334  NDP1334     0.2189
      2  O1A        6.9780   18.8720   24.6050 O.3   1334  NDP1334    -0.4371
      3  O2A        8.1550   18.2810   22.5280 O.2   1334  NDP1334    -0.5170
      4  O5B        9.0800   19.9790   24.0100 O.3   1334  NDP1334    -0.3112
      5  C5B       10.5940   19.9660   24.2370 C.3   1334  NDP1334     0.1813
      6  C4B       11.1770   21.2510   23.5570 C.3   1334  NDP1334     0.1796
      7  O4B       12.1570   21.0310   22.3550 O.3   1334  NDP1334    -0.3336
      8  C3B       10.0240   22.1810   22.9140 C.3   1334  NDP1334     0.2129
      9  O3B        9.4970   23.0040   24.0200 O.3   1334  NDP1334    -0.2177
     10  C2B       10.8750   22.9250   21.8490 C.3   1334  NDP1334     0.2042
     11  O2B       11.7710   23.8880   22.5660 O.3   1334  NDP1334    -0.2659
     12  C1B       11.6410   21.7450   21.2300 C.3   1334  NDP1334     0.2370
     13  N9A       10.8740   20.7420   20.4090 N.3   1334  NDP1334    -0.0974
     14  O3         9.1350   17.6880   24.8010 O.3   1334  NDP1334    -0.2703
     15  PN         9.5360   16.9590   26.1570 P.3   1334  NDP1334     0.2189
     16  O1N        8.6680   15.7080   26.1890 O.2   1334  NDP1334    -0.5170
     17  O2N        9.5210   17.8130   27.1620 O.3   1334  NDP1334    -0.4371
     18  O5D       11.0610   16.4440   25.7450 O.3   1334  NDP1334    -0.3112
     19  C5D       11.2890   15.6660   24.5920 C.3   1334  NDP1334     0.1813
     20  C4D       12.8430   15.5810   24.6620 C.3   1334  NDP1334     0.1799
     21  O4D       13.3810   14.9460   25.8560 O.3   1334  NDP1334    -0.3327
     22  C3D       13.2290   14.7520   23.4370 C.3   1334  NDP1334     0.2158
     23  O3D       14.4830   15.3020   23.0490 O.3   1334  NDP1334    -0.2175
     24  C2D       13.2470   13.3600   24.0380 C.3   1334  NDP1334     0.2309
     25  O2D       13.9110   12.4830   23.1520 O.3   1334  NDP1334    -0.2158
     26  C1D       13.9720   13.6150   25.3940 C.3   1334  NDP1334     0.2263
     27  N1N       13.6360   12.6890   26.4670 N.pl3 1334  NDP1334    -0.2787
     28  C2N       14.7800   12.1770   27.1510 C.3   1334  NDP1334     0.1244
     29  C3N       14.6950   11.3010   28.1650 C.2   1334  NDP1334     0.0544
     30  C7N       15.8940   10.7290   28.9210 C.2   1334  NDP1334     0.2818
     31  O7N       15.7470    9.9410   29.8210 O.2   1334  NDP1334    -0.2670
     32  N7N       17.1170   11.2220   28.4480 N.am  1334  NDP1334    -0.0839
     33  C4N       13.2790   10.7160   28.7390 C.2   1334  NDP1334     0.0033
     34  C5N       12.1380   11.3850   27.8830 C.2   1334  NDP1334     0.0157
     35  C6N       12.3100   12.2550   26.8750 C.2   1334  NDP1334     0.0633
     36  P2B       11.7140   25.3730   22.0640 P.3   1334  NDP1334     0.5327
     37  O1X       10.3130   25.7350   21.5610 O.3   1334  NDP1334    -0.1145
     38  O2X       12.1510   26.1350   23.2040 O.3   1334  NDP1334    -0.1145
     39  O3X       12.6350   25.4440   20.8380 O.2   1334  NDP1334    -0.2224
@<TRIPOS>BOND
     1    13    12    1
     2    39    36    2
     3    12    10    1
     4    12     7    1
     5    37    36    1
     6    10    11    1
     7    10     8    1
     8    36    11    1
     9    36    38    1
    10     7     6    1
    11     3     1    2
    12     8     6    1
    13     8     9    1
    14    23    22    1
    15    25    24    1
    16    22    24    1
    17    22    20    1
    18     6     5    1
    19     1     4    1
    20     1     2    1
    21     1    14    1
    22     4     5    1
    23    24    26    1
    24    19    20    1
    25    19    18    1
    26    20    21    1
    27    14    15    1
    28    26    21    1
    29    26    27    1
    30    18    15    1
    31    15    16    2
    32    15    17    1
    33    27    35    1
    34    27    28    1
    35    35    34    2
    36    28    29    1
    37    34    33    1
    38    29    33    2
    39    29    30    1
    40    32    30   am
    41    30    31    2
