@<TRIPOS>MOLECULE
1wzn_SAH_A_1.pdb
 26 28 0 0 0
SMALL
GASTEIGER

@<TRIPOS>ATOM
      1  N         16.3670   56.2580   50.8250 N.3   1001  SAH1001    -0.1208
      2  CA        16.9580   55.0170   51.4860 C.3   1001  SAH1001     0.1952
      3  CB        18.4060   54.7300   51.1970 C.3   1001  SAH1001     0.0422
      4  CG        19.5000   55.7090   51.5910 C.3   1001  SAH1001     0.0597
      5  SD        21.0810   54.9850   50.9600 S.3   1001  SAH1001    -0.1375
      6  C         16.6950   55.1840   53.0500 C.2   1001  SAH1001     0.3819
      7  O         16.1080   56.1960   53.4770 O.co2 1001  SAH1001    -0.2441
      8  OXT       17.1130   54.2120   53.7950 O.co2 1001  SAH1001    -0.2441
      9  C5'       21.4780   55.9610   49.5610 C.3   1001  SAH1001     0.0899
     10  C4'       20.8750   55.3230   48.2160 C.3   1001  SAH1001     0.1630
     11  O4'       21.3310   56.2300   47.2060 O.3   1001  SAH1001    -0.3153
     12  C3'       21.4420   53.9840   47.8040 C.3   1001  SAH1001     0.2168
     13  O3'       20.4100   52.9980   47.7510 O.3   1001  SAH1001    -0.2175
     14  C2'       22.1280   54.2990   46.4110 C.3   1001  SAH1001     0.2569
     15  O2'       22.0870   53.1900   45.5220 O.3   1001  SAH1001    -0.2130
     16  C1'       21.3430   55.5090   45.9370 C.3   1001  SAH1001     0.3185
     17  N9        21.9030   56.2970   45.0050 N.pl3 1001  SAH1001    -0.1439
     18  C8        23.0860   57.0230   44.9670 C.3   1001  SAH1001     0.3377
     19  N7        23.2960   57.6850   43.8770 N.2   1001  SAH1001    -0.2095
     20  C5        22.1590   57.4000   43.0710 C.2   1001  SAH1001     0.2526
     21  C6        21.8020   57.8390   41.7520 C.2   1001  SAH1001     0.4393
     22  N6        22.5580   58.6590   41.0090 N.pl3 1001  SAH1001     0.2180
     23  N1        20.5990   57.3500   41.2860 N.2   1001  SAH1001     0.0021
     24  C2        19.8010   56.5130   42.0100 C.3   1001  SAH1001     0.5254
     25  N3        20.1110   56.0720   43.2800 N.2   1001  SAH1001    -0.0055
     26  C4        21.2980   56.5520   43.7430 C.2   1001  SAH1001     0.3518
@<TRIPOS>BOND
     1    22    21    1
     2    23    21    2
     3    23    24    1
     4    21    20    1
     5    24    25    1
     6    20    26    1
     7    20    19    2
     8    25    26    2
     9    26    17    1
    10    19    18    1
    11    18    17    1
    12    17    16    1
    13    15    14    1
    14    16    14    1
    15    16    11    1
    16    14    12    1
    17    11    10    1
    18    13    12    1
    19    12    10    1
    20    10     9    1
    21     9     5    1
    22     1     2    1
    23     5     4    1
    24     3     2    1
    25     3     4    1
    26     2     6    1
    27     6     7   ar
    28     6     8   ar
