@<TRIPOS>MOLECULE
1wzy_F29_A_1.pdb
 28 32 0 0 0
SMALL
GASTEIGER

@<TRIPOS>ATOM
      1  C1         2.0450    9.4760   41.2540 C.2   1001  F291001    -0.0027
      2  C2         2.2660    9.0370   42.6210 C.3   1001  F291001     0.1420
      3  N3         3.5810    8.8170   43.0880 N.pl3 1001  F291001    -0.2106
      4  C4         4.7630    9.0150   42.3420 C.2   1001  F291001     0.0581
      5  C5         4.5680    9.4050   40.9410 C.2   1001  F291001     0.0124
      6  C6         3.2260    9.6450   40.4130 C.2   1001  F291001    -0.0018
      7  N7         3.9230    8.3070   44.4180 N.2   1001  F291001    -0.1816
      8  C8         5.3350    8.2570   44.4640 C.2   1001  F291001     0.0871
      9  C9         5.9080    8.7200   43.2030 C.3   1001  F291001     0.1210
     10  C10        7.3170    8.9150   42.8500 C.ar  1001  F291001     0.0915
     11  C11        5.9070    7.7740   45.7160 C.ar  1001  F291001     0.0158
     12  C12        5.1730    6.7990   46.5250 C.ar  1001  F291001     0.0012
     13  C13        5.6820    6.2580   47.7760 C.ar  1001  F291001     0.0000
     14  C14        6.9880    6.6520   48.2680 C.ar  1001  F291001     0.0000
     15  C15        7.7450    7.6220   47.5000 C.ar  1001  F291001     0.0000
     16  C16        7.2010    8.1750   46.2730 C.ar  1001  F291001     0.0012
     17  C22        8.3290    7.8690   43.0010 C.ar  1001  F291001     0.0233
     18  C23        9.7430    8.0310   42.6790 C.ar  1001  F291001     0.0753
     19  C24       10.3300    9.2460   42.1470 C.ar  1001  F291001     0.1877
     20  N25        9.4080   10.3150   42.0010 N.ar  1001  F291001    -0.1286
     21  N26        7.8580   10.1350   42.3520 N.ar  1001  F291001    -0.1502
     22  C27       10.7430    6.9950   42.6320 C.ar  1001  F291001     0.1925
     23  N28       11.8930    7.5550   42.0390 N.ar  1001  F291001    -0.1452
     24  N29       11.6460    8.9790   41.6930 N.ar  1001  F291001    -0.2080
     25  N30       10.5930    5.6300   42.9600 N.pl3 1001  F291001    -0.1053
     26  C3        12.5110    9.6130   40.7630 C.2   1001  F291001     0.0976
     27  C7        12.2240    9.3830   39.3590 C.2   1001  F291001    -0.0051
     28  C17       11.2810    8.4130   38.8260 C.3   1001  F291001     0.0324
@<TRIPOS>BOND
     1    28    27    1
     2    27    26    2
     3     6     5    1
     4     6     1    2
     5    26    24    1
     6     5     4    2
     7     1     2    1
     8    24    23   ar
     9    24    19   ar
    10    20    19   ar
    11    20    21   ar
    12    23    22   ar
    13    19    18   ar
    14     4     3    1
    15     4     9    1
    16    21    10   ar
    17     2     3    1
    18    22    18   ar
    19    22    25    1
    20    18    17   ar
    21    10    17   ar
    22    10     9    1
    23     3     7    1
    24     9     8    1
    25     7     8    2
    26     8    11    1
    27    11    16   ar
    28    11    12   ar
    29    16    15   ar
    30    12    13   ar
    31    15    14   ar
    32    13    14   ar
