@<TRIPOS>MOLECULE
1x01_ATP_A_1.pdb
 31 33 0 0 0
SMALL
GASTEIGER

@<TRIPOS>ATOM
      1  PG       -15.8590  -14.9690   -2.5840 P.3   1001  ATP1001     0.5373
      2  O1G      -16.0810  -13.6430   -1.8910 O.3   1001  ATP1001    -0.1143
      3  O2G      -15.7800  -16.0560   -1.5150 O.3   1001  ATP1001    -0.1143
      4  O3G      -14.5800  -14.9180   -3.3930 O.2   1001  ATP1001    -0.2221
      5  PB       -17.5450  -14.7720   -4.9770 P.3   1001  ATP1001     0.2277
      6  O1B      -18.3890  -15.7010   -5.7850 O.2   1001  ATP1001    -0.5168
      7  O2B      -16.3100  -14.4370   -5.7360 O.3   1001  ATP1001    -0.4368
      8  O3B      -17.1600  -15.4050   -3.5010 O.3   1001  ATP1001    -0.2258
      9  PA       -19.6680  -13.2660   -3.7530 P.3   1001  ATP1001     0.2189
     10  O1A      -20.8600  -13.8190   -4.4220 O.2   1001  ATP1001    -0.5170
     11  O2A      -19.4880  -13.8970   -2.4140 O.3   1001  ATP1001    -0.4371
     12  O3A      -18.2820  -13.3950   -4.6050 O.3   1001  ATP1001    -0.2700
     13  O5'      -19.8890  -11.7000   -3.6410 O.3   1001  ATP1001    -0.3112
     14  C5'      -18.8860  -10.8230   -3.0550 C.3   1001  ATP1001     0.1813
     15  C4'      -18.2340  -11.2280   -1.7490 C.3   1001  ATP1001     0.1821
     16  O4'      -17.1230  -10.3030   -1.6280 O.3   1001  ATP1001    -0.3135
     17  C3'      -19.0790  -11.0350   -0.4830 C.3   1001  ATP1001     0.2184
     18  O3'      -19.6440  -12.2880   -0.0480 O.3   1001  ATP1001    -0.2174
     19  C2'      -18.0960  -10.4040    0.5210 C.3   1001  ATP1001     0.2570
     20  O2'      -17.4760  -11.3710    1.3820 O.3   1001  ATP1001    -0.2130
     21  C1'      -17.0080   -9.7410   -0.3410 C.3   1001  ATP1001     0.3186
     22  N9       -17.1650   -8.2860   -0.6000 N.pl3 1001  ATP1001    -0.1439
     23  C8       -18.2430   -7.4410   -0.3340 C.3   1001  ATP1001     0.3377
     24  N7       -18.0500   -6.1920   -0.7060 N.2   1001  ATP1001    -0.2095
     25  C5       -16.7870   -6.1990   -1.2720 C.2   1001  ATP1001     0.2526
     26  C6       -15.9780   -5.1660   -1.8390 C.2   1001  ATP1001     0.4393
     27  N6       -16.4010   -3.9000   -1.9770 N.pl3 1001  ATP1001     0.2180
     28  N1       -14.7300   -5.5120   -2.3130 N.2   1001  ATP1001     0.0021
     29  C2       -14.3070   -6.7940   -2.1790 C.3   1001  ATP1001     0.5254
     30  N3       -14.9760   -7.8420   -1.6500 N.2   1001  ATP1001    -0.0055
     31  C4       -16.2100   -7.4760   -1.1870 C.2   1001  ATP1001     0.3518
@<TRIPOS>BOND
     1     6     5    2
     2     7     5    1
     3     5    12    1
     4     5     8    1
     5    12     9    1
     6    10     9    2
     7     9    13    1
     8     9    11    1
     9    13    14    1
    10     8     1    1
    11     4     1    2
    12    14    15    1
    13     1     2    1
    14     1     3    1
    15    28    29    1
    16    28    26    2
    17    29    30    1
    18    27    26    1
    19    26    25    1
    20    15    16    1
    21    15    17    1
    22    30    31    2
    23    16    21    1
    24    25    31    1
    25    25    24    2
    26    31    22    1
    27    24    23    1
    28    22    21    1
    29    22    23    1
    30    17    18    1
    31    17    19    1
    32    21    19    1
    33    19    20    1
