@<TRIPOS>MOLECULE
1x06_FPS_A_1.pdb
 24 23 0 0 0
SMALL
GASTEIGER

@<TRIPOS>ATOM
      1  C1        21.4080   16.6390   22.2930 C.3   901  FPS901      0.0942
      2  S1        20.0120   17.6450   22.4720 S.3   901  FPS901     -0.0237
      3  C2        21.9700   17.3920   23.4350 C.2   901  FPS901     -0.0224
      4  C3        23.0600   18.0920   23.7920 C.2   901  FPS901     -0.0470
      5  C4        24.3840   18.4670   23.0710 C.3   901  FPS901      0.0261
      6  C5        22.8490   18.5860   25.1530 C.3   901  FPS901      0.0264
      7  C6        23.0650   17.5890   26.2960 C.3   901  FPS901      0.0297
      8  C7        23.2520   18.4870   27.5180 C.2   901  FPS901     -0.0342
      9  C8        22.2930   18.9260   28.3640 C.2   901  FPS901     -0.0478
     10  C10       22.7730   19.8120   29.4680 C.3   901  FPS901      0.0263
     11  C9        20.7880   18.5910   28.2810 C.3   901  FPS901      0.0260
     12  C11       22.7160   19.1410   30.8200 C.3   901  FPS901      0.0297
     13  C12       24.0680   18.6770   31.2880 C.2   901  FPS901     -0.0342
     14  C13       24.7020   19.0300   32.4280 C.2   901  FPS901     -0.0478
     15  C14       24.1650   19.9810   33.4870 C.3   901  FPS901      0.0260
     16  C15       26.0580   18.4890   32.7770 C.3   901  FPS901      0.0260
     17  PA        19.9830   18.3520   20.9530 P.3   901  FPS901      0.4273
     18  O1A       20.5140   19.8130   21.2220 O.3   901  FPS901     -0.1309
     19  O2A       20.6090   17.4170   19.9040 O.2   901  FPS901     -0.2431
     20  O3A       18.4680   18.6320   20.6300 O.3   901  FPS901     -0.1955
     21  PB        17.6540   18.1890   19.3230 P.3   901  FPS901      0.5394
     22  O1B       16.2040   18.1080   19.4320 O.3   901  FPS901     -0.1143
     23  O2B       18.1560   16.8930   18.7500 O.3   901  FPS901     -0.1143
     24  O3B       17.8180   19.1980   18.1570 O.2   901  FPS901     -0.2220
@<TRIPOS>BOND
     1    24    21    2
     2    23    21    1
     3    21    22    1
     4    21    20    1
     5    19    17    2
     6    20    17    1
     7    17    18    1
     8    17     2    1
     9     1     2    1
    10     1     3    1
    11     5     4    1
    12     3     4    2
    13     4     6    1
    14     6     7    1
    15     7     8    1
    16     8     9    2
    17    11     9    1
    18     9    10    1
    19    10    12    1
    20    12    13    1
    21    13    14    2
    22    14    16    1
    23    14    15    1
