@<TRIPOS>MOLECULE
1x07_IPE_A_1.pdb
 14 13 0 0 0
SMALL
GASTEIGER

@<TRIPOS>ATOM
      1  C1        20.6880   17.3210   23.3160 C.3   901  IPE901      0.1747
      2  O1        19.5310   17.8080   22.6130 O.3   901  IPE901     -0.3089
      3  C2        21.9970   18.0750   23.1000 C.2   901  IPE901     -0.0024
      4  C3        23.1760   17.7630   23.6860 C.2   901  IPE901     -0.0454
      5  C4        23.2950   16.5720   24.6630 C.3   901  IPE901      0.0261
      6  C5        24.3900   18.6180   23.3590 C.3   901  IPE901      0.0261
      7  PA        19.5880   18.5250   21.1330 P.3   901  IPE901      0.2233
      8  O1A       20.1960   19.9180   21.3310 O.3   901  IPE901     -0.4370
      9  O2A       20.3300   17.4550   20.2550 O.2   901  IPE901     -0.5169
     10  O3A       18.2980   18.9790   20.4150 O.3   901  IPE901     -0.2261
     11  PB        17.5070   18.1420   19.3580 P.3   901  IPE901      0.5373
     12  O1B       16.0910   18.0120   19.4960 O.3   901  IPE901     -0.1143
     13  O2B       18.1620   16.7900   19.0610 O.3   901  IPE901     -0.1143
     14  O3B       17.5090   18.8730   17.9850 O.2   901  IPE901     -0.2221
@<TRIPOS>BOND
     1    14    11    2
     2    13    11    1
     3    11    12    1
     4    11    10    1
     5     9     7    2
     6    10     7    1
     7     7     8    1
     8     7     2    1
     9     2     1    1
    10     3     1    1
    11     3     4    2
    12     6     4    1
    13     4     5    1
