@<TRIPOS>MOLECULE
1x08_FPS_A_1.pdb
 24 23 0 0 0
SMALL
GASTEIGER

@<TRIPOS>ATOM
      1  C1        22.7070   16.9260   21.9210 C.3   901  FPS901      0.0942
      2  S1        21.1840   16.4210   21.1780 S.3   901  FPS901     -0.0237
      3  C2        22.6970   17.4760   23.3230 C.2   901  FPS901     -0.0224
      4  C3        23.5210   18.4870   23.7180 C.2   901  FPS901     -0.0470
      5  C4        24.5560   19.2010   22.8040 C.3   901  FPS901      0.0261
      6  C5        23.4400   18.9780   25.1240 C.3   901  FPS901      0.0264
      7  C6        23.1110   17.9370   26.2040 C.3   901  FPS901      0.0297
      8  C7        23.1240   18.6350   27.5580 C.2   901  FPS901     -0.0342
      9  C8        22.1070   18.7990   28.4480 C.2   901  FPS901     -0.0478
     10  C10       22.4660   19.5560   29.7000 C.3   901  FPS901      0.0263
     11  C9        20.6730   18.3070   28.3030 C.3   901  FPS901      0.0260
     12  C11       23.0230   18.6550   30.7250 C.3   901  FPS901      0.0297
     13  C12       23.3770   19.4000   31.9840 C.2   901  FPS901     -0.0342
     14  C13       24.3530   19.1460   32.8450 C.2   901  FPS901     -0.0478
     15  C14       25.3120   17.9870   32.6660 C.3   901  FPS901      0.0260
     16  C15       24.6060   19.9810   34.0990 C.3   901  FPS901      0.0260
     17  PA        20.0370   18.1020   21.4640 P.3   901  FPS901      0.4273
     18  O1A       18.9850   17.8980   22.5350 O.3   901  FPS901     -0.1309
     19  O2A       20.8490   19.3820   21.5030 O.2   901  FPS901     -0.2431
     20  O3A       19.0910   18.3220   20.2020 O.3   901  FPS901     -0.1955
     21  PB        17.9680   17.3050   19.6480 P.3   901  FPS901      0.5394
     22  O1B       17.8730   17.1920   18.1440 O.2   901  FPS901     -0.2220
     23  O2B       16.6410   17.7020   20.2070 O.3   901  FPS901     -0.1143
     24  O3B       18.2030   15.8070   20.0740 O.3   901  FPS901     -0.1143
@<TRIPOS>BOND
     1    22    21    2
     2    21    24    1
     3    21    20    1
     4    21    23    1
     5    20    17    1
     6     2    17    1
     7     2     1    1
     8    17    19    2
     9    17    18    1
    10     1     3    1
    11     5     4    1
    12     3     4    2
    13     4     6    1
    14     6     7    1
    15     7     8    1
    16     8     9    2
    17    11     9    1
    18     9    10    1
    19    10    12    1
    20    12    13    1
    21    13    14    2
    22    15    14    1
    23    14    16    1
