@<TRIPOS>MOLECULE
1x09_IPE_A_2.pdb
 14 13 0 0 0
SMALL
GASTEIGER

@<TRIPOS>ATOM
      1  C1        24.3460   12.6680   20.5590 C.3   902  IPE902      0.1747
      2  O1        23.4710   13.3770   19.6870 O.3   902  IPE902     -0.3089
      3  C2        24.9490   13.4430   21.7170 C.2   902  IPE902     -0.0024
      4  C3        24.3030   13.9990   22.7820 C.2   902  IPE902     -0.0454
      5  C4        22.7940   13.9400   22.9960 C.3   902  IPE902      0.0261
      6  C5        25.1610   14.7150   23.8010 C.3   902  IPE902      0.0261
      7  PA        23.9920   13.8740   18.1940 P.3   902  IPE902      0.2233
      8  O1A       22.7650   14.6870   17.5680 O.2   902  IPE902     -0.5169
      9  O2A       25.3110   14.5780   18.5480 O.3   902  IPE902     -0.4370
     10  O3A       24.3750   12.9160   17.0640 O.3   902  IPE902     -0.2261
     11  PB        23.3270   12.4180   16.0950 P.3   902  IPE902      0.5373
     12  O1B       23.3250   10.9540   15.7070 O.3   902  IPE902     -0.1143
     13  O2B       23.5200   13.2760   14.8740 O.2   902  IPE902     -0.2221
     14  O3B       21.8270   12.5700   16.6170 O.3   902  IPE902     -0.1143
@<TRIPOS>BOND
     1    13    11    2
     2    12    11    1
     3    11    14    1
     4    11    10    1
     5    10     7    1
     6     8     7    2
     7     7     9    1
     8     7     2    1
     9     2     1    1
    10     1     3    1
    11     3     4    2
    12     4     5    1
    13     4     6    1
