@<TRIPOS>MOLECULE
1x0c_NAG_A_1.pdb
 14 14 0 0 0
SMALL
GASTEIGER

@<TRIPOS>ATOM
      1  C1        20.6230  -12.0160   39.5490 C.3   1000  NAG1000     0.1665
      2  C2        20.0260  -12.7420   38.3350 C.3   1000  NAG1000     0.1576
      3  C3        18.6510  -13.3200   38.6930 C.3   1000  NAG1000     0.2069
      4  C4        18.7480  -14.1860   39.9540 C.3   1000  NAG1000     0.2134
      5  C5        19.4230  -13.4030   41.0870 C.3   1000  NAG1000     0.1809
      6  C6        19.6560  -14.2590   42.3160 C.3   1000  NAG1000     0.2141
      7  C7        20.5160  -12.0910   36.0770 C.2   1000  NAG1000     0.2420
      8  C8        19.6910  -11.9960   34.8030 C.3   1000  NAG1000     0.0964
      9  N2        19.9010  -11.8230   37.2220 N.am  1000  NAG1000    -0.2019
     10  O3        18.1600  -14.1050   37.6140 O.3   1000  NAG1000    -0.2184
     11  O4        17.4470  -14.5850   40.3570 O.3   1000  NAG1000    -0.2176
     12  O5        20.7160  -12.9180   40.6590 O.3   1000  NAG1000    -0.3489
     13  O6        20.6310  -15.2600   42.0630 O.3   1000  NAG1000    -0.2176
     14  O7        21.7020  -12.4180   36.0200 O.2   1000  NAG1000    -0.2733
@<TRIPOS>BOND
     1     8     7    1
     2    14     7    2
     3     7     9   am
     4     9     2    1
     5    10     3    1
     6     2     3    1
     7     2     1    1
     8     3     4    1
     9     1    12    1
    10     4    11    1
    11     4     5    1
    12    12     5    1
    13     5     6    1
    14    13     6    1
