@<TRIPOS>MOLECULE
1x0i_RET_1_1.pdb
 20 20 0 0 0
SMALL
GASTEIGER

@<TRIPOS>ATOM
      1  C1        38.8760   15.5650   19.6510 C.3   250  RET250      0.0183
      2  C2        39.4410   14.6880   18.4390 C.3   250  RET250      0.0044
      3  C3        39.3440   13.2310   18.5470 C.3   250  RET250      0.0047
      4  C4        39.8580   12.7010   19.8710 C.3   250  RET250      0.0217
      5  C5        39.3680   13.4430   21.1140 C.2   250  RET250     -0.0479
      6  C6        38.8800   14.7890   21.0750 C.2   250  RET250     -0.0307
      7  C7        38.3960   15.3890   22.4230 C.2   250  RET250     -0.0052
      8  C8        37.9150   16.6110   22.7290 C.2   250  RET250     -0.0046
      9  C9        37.3580   17.0700   24.0000 C.2   250  RET250     -0.0219
     10  C10       36.9500   18.3780   24.0020 C.2   250  RET250     -0.0043
     11  C11       36.3060   19.1740   25.0200 C.2   250  RET250     -0.0007
     12  C12       35.9820   20.4430   24.7080 C.2   250  RET250     -0.0046
     13  C13       35.2850   21.4430   25.5570 C.2   250  RET250     -0.0261
     14  C14       35.1610   22.7310   25.0740 C.2   250  RET250     -0.0300
     15  C15       34.7280   23.9530   25.7810 C.3   250  RET250      0.0304
     16  C16       39.7620   16.8200   19.7260 C.3   250  RET250      0.0043
     17  C17       37.4560   15.9910   19.2430 C.3   250  RET250      0.0043
     18  C18       39.4280   12.6050   22.3850 C.3   250  RET250      0.0260
     19  C19       37.1860   16.1260   25.1760 C.3   250  RET250      0.0310
     20  C20       34.8430   21.0490   26.9470 C.3   250  RET250      0.0307
@<TRIPOS>BOND
     1     2     3    1
     2     2     1    1
     3     3     4    1
     4    17     1    1
     5     1    16    1
     6     1     6    1
     7     4     5    1
     8     6     5    2
     9     6     7    1
    10     5    18    1
    11     7     8    2
    12     8     9    1
    13     9    10    2
    14     9    19    1
    15    10    11    1
    16    12    11    2
    17    12    13    1
    18    14    13    2
    19    14    15    1
    20    13    20    1
