@<TRIPOS>MOLECULE
1x0k_RET_1_1.pdb
 20 20 0 0 0
SMALL
GASTEIGER

@<TRIPOS>ATOM
      1  C1        39.2750   16.3900   21.6850 C.3   250  RET250      0.0183
      2  C2        39.9340   15.6020   20.4860 C.3   250  RET250      0.0044
      3  C3        39.9780   14.1500   20.5280 C.3   250  RET250      0.0047
      4  C4        40.2630   13.5190   21.8780 C.3   250  RET250      0.0217
      5  C5        39.6120   14.2000   23.0780 C.2   250  RET250     -0.0479
      6  C6        39.1120   15.5340   23.0390 C.2   250  RET250     -0.0307
      7  C7        38.4980   16.0690   24.3450 C.2   250  RET250     -0.0052
      8  C8        38.0080   17.2810   24.6480 C.2   250  RET250     -0.0046
      9  C9        37.3960   17.6720   25.9030 C.2   250  RET250     -0.0219
     10  C10       36.9270   18.9460   25.9280 C.2   250  RET250     -0.0043
     11  C11       36.1950   19.6060   26.9720 C.2   250  RET250     -0.0007
     12  C12       35.8160   20.8600   26.7590 C.2   250  RET250     -0.0046
     13  C13       35.0520   21.7120   27.6690 C.2   250  RET250     -0.0261
     14  C14       34.8510   22.9770   27.2020 C.2   250  RET250     -0.0300
     15  C15       34.2670   24.1600   27.8230 C.3   250  RET250      0.0304
     16  C16       40.2620   17.5540   21.8450 C.3   250  RET250      0.0043
     17  C17       37.9430   16.8960   21.1120 C.3   250  RET250      0.0043
     18  C18       39.6020   13.2790   24.3070 C.3   250  RET250      0.0260
     19  C19       37.2210   16.6870   27.0390 C.3   250  RET250      0.0310
     20  C20       34.6110   21.1920   29.0300 C.3   250  RET250      0.0307
@<TRIPOS>BOND
     1     2     3    1
     2     2     1    1
     3     3     4    1
     4    17     1    1
     5     1    16    1
     6     1     6    1
     7     4     5    1
     8     6     5    2
     9     6     7    1
    10     5    18    1
    11     7     8    2
    12     8     9    1
    13     9    10    2
    14     9    19    1
    15    10    11    1
    16    12    11    2
    17    12    13    1
    18    14    13    2
    19    14    15    1
    20    13    20    1
