@<TRIPOS>MOLECULE
1x0p_FAD_A_1.pdb
 27 29 0 0 0
SMALL
GASTEIGER

@<TRIPOS>ATOM
      1  N1        50.4310   64.1320  140.7470 N.2   9150  FAD9150    -0.2890
      2  C2        51.7200   64.4400  140.3070 C.1   9150  FAD9150     0.3669
      3  O2        52.6780   64.4380  141.0670 O.2   9150  FAD9150    -0.1744
      4  N3        51.8120   64.7420  138.9200 N.2   9150  FAD9150    -0.2300
      5  C4        50.7380   64.7540  137.9830 C.1   9150  FAD9150     0.2513
      6  O4        50.9480   65.0570  136.8150 O.2   9150  FAD9150    -0.2057
      7  C4X       49.4560   64.4120  138.5600 C.2   9150  FAD9150     0.2700
      8  N5        48.3780   64.4060  137.6530 N.2   9150  FAD9150    -0.3878
      9  C5X       47.1100   64.0740  138.1510 C.2   9150  FAD9150     0.1320
     10  C6        46.0490   64.0590  137.2520 C.2   9150  FAD9150     0.0250
     11  C7        44.7690   63.7330  137.7040 C.2   9150  FAD9150    -0.0238
     12  C7M       43.6060   63.7120  136.7250 C.3   9150  FAD9150     0.0308
     13  C8        44.5470   63.4090  139.1140 C.2   9150  FAD9150    -0.0280
     14  C8M       43.1470   63.0470  139.6180 C.3   9150  FAD9150     0.0304
     15  C9        45.6160   63.4270  140.0070 C.2   9150  FAD9150    -0.0041
     16  C9A       46.9090   63.7540  139.5590 C.3   9150  FAD9150     0.1497
     17  N10       48.0130   63.7720  140.4620 N.pl3 9150  FAD9150    -0.2691
     18  C10       49.2730   64.0930  139.9730 C.2   9150  FAD9150     0.2416
     19  C1'       47.8790   63.4690  141.8470 C.3   9150  FAD9150     0.1294
     20  C2'       48.2820   62.2790  142.4960 C.3   9150  FAD9150     0.2044
     21  O2'       47.1830   61.3250  142.3170 O.3   9150  FAD9150    -0.2185
     22  C3'       48.7870   62.5750  143.8710 C.3   9150  FAD9150     0.2166
     23  O3'       47.7370   62.9940  144.7310 O.3   9150  FAD9150    -0.2175
     24  C4'       50.2190   63.2680  144.1590 C.3   9150  FAD9150     0.2175
     25  O4'       51.1970   62.7490  143.1670 O.3   9150  FAD9150    -0.2175
     26  C5'       50.8630   62.9160  145.5430 C.3   9150  FAD9150     0.2175
     27  O5'       52.1670   63.3640  146.1040 O.3   9150  FAD9150    -0.2175
@<TRIPOS>BOND
     1    12    11    1
     2     6     5    2
     3    10    11    2
     4    10     9    1
     5     8     9    2
     6     8     7    2
     7    11    13    1
     8     5     7    1
     9     5     4    2
    10     9    16    1
    11     7    18    1
    12     4     2    2
    13    13    14    1
    14    13    15    2
    15    16    15    1
    16    16    17    1
    17    18    17    1
    18    18     1    2
    19     2     1    2
    20     2     3    2
    21    17    19    1
    22    19    20    1
    23    21    20    1
    24    20    22    1
    25    25    24    1
    26    22    24    1
    27    22    23    1
    28    24    26    1
    29    26    27    1
