@<TRIPOS>MOLECULE
1x0s_RET_A_1.pdb
 20 20 0 0 0
SMALL
GASTEIGER

@<TRIPOS>ATOM
      1  C1        39.0080   16.1760   21.5260 C.3   250  RET250      0.0183
      2  C2        39.6720   15.3490   20.3720 C.3   250  RET250      0.0044
      3  C3        39.4870   13.9180   20.3940 C.3   250  RET250      0.0047
      4  C4        39.9250   13.3330   21.7000 C.3   250  RET250      0.0217
      5  C5        39.3070   14.0000   22.9310 C.2   250  RET250     -0.0479
      6  C6        38.8620   15.3310   22.8930 C.2   250  RET250     -0.0307
      7  C7        38.2400   15.9680   24.2030 C.2   250  RET250     -0.0052
      8  C8        37.6890   17.2170   24.2660 C.2   250  RET250     -0.0046
      9  C9        37.1130   17.7860   25.5120 C.2   250  RET250     -0.0219
     10  C10       36.5630   19.0480   25.4550 C.2   250  RET250     -0.0043
     11  C11       35.9610   19.7140   26.5770 C.2   250  RET250     -0.0007
     12  C12       35.4570   20.9450   26.4220 C.2   250  RET250     -0.0046
     13  C13       34.8630   21.7090   27.6090 C.2   250  RET250     -0.0261
     14  C14       34.2970   22.9460   27.4800 C.2   250  RET250     -0.0300
     15  C15       34.1300   23.7170   26.2310 C.3   250  RET250      0.0304
     16  C16       39.8960   17.4190   21.7080 C.3   250  RET250      0.0043
     17  C17       37.6460   16.5850   20.9260 C.3   250  RET250      0.0043
     18  C18       39.2130   13.1390   24.1970 C.3   250  RET250      0.0260
     19  C19       37.1190   16.9850   26.7920 C.3   250  RET250      0.0310
     20  C20       34.7100   21.0370   28.9520 C.3   250  RET250      0.0307
@<TRIPOS>BOND
     1     2     3    1
     2     2     1    1
     3     3     4    1
     4    17     1    1
     5     1    16    1
     6     1     6    1
     7     4     5    1
     8     6     5    2
     9     6     7    1
    10     5    18    1
    11     7     8    2
    12     8     9    1
    13    10     9    2
    14    10    11    1
    15     9    19    1
    16    15    14    1
    17    12    11    2
    18    12    13    1
    19    14    13    2
    20    13    20    1
