@<TRIPOS>MOLECULE
1x0x_NAD_A_1.pdb
 44 48 0 0 0
SMALL
GASTEIGER

@<TRIPOS>ATOM
      1  PA       -69.8890   37.9310 -113.6430 P.3   2001  NAD2001     0.2189
      2  O1A      -68.8970   38.5140 -114.5360 O.2   2001  NAD2001    -0.5170
      3  O2A      -70.5160   36.6380 -113.8040 O.3   2001  NAD2001    -0.4371
      4  O5B      -70.4480   38.7010 -112.3410 O.3   2001  NAD2001    -0.3112
      5  C5B      -70.2250   39.9270 -111.7340 C.3   2001  NAD2001     0.1813
      6  C4B      -69.8260   39.4420 -110.3880 C.3   2001  NAD2001     0.1821
      7  O4B      -69.0760   40.4780 -109.7420 O.3   2001  NAD2001    -0.3135
      8  C3B      -70.9700   38.9690 -109.3970 C.3   2001  NAD2001     0.2184
      9  O3B      -70.8130   37.5930 -109.0300 O.3   2001  NAD2001    -0.2174
     10  C2B      -70.7500   39.8380 -108.1380 C.3   2001  NAD2001     0.2570
     11  O2B      -70.4400   39.1690 -106.9280 O.3   2001  NAD2001    -0.2130
     12  C1B      -69.5640   40.6950 -108.4940 C.3   2001  NAD2001     0.3186
     13  N9A      -69.8070   42.1060 -108.2960 N.pl3 2001  NAD2001    -0.1439
     14  C8A      -70.7260   42.9670 -108.8780 C.3   2001  NAD2001     0.3377
     15  N7A      -70.5790   44.1590 -108.3500 N.2   2001  NAD2001    -0.2095
     16  C5A      -69.5440   44.0920 -107.4040 C.2   2001  NAD2001     0.2526
     17  C6A      -68.8900   45.0140 -106.4830 C.2   2001  NAD2001     0.4393
     18  N6A      -69.2800   46.2770 -106.4200 N.pl3 2001  NAD2001     0.2180
     19  N1A      -67.8280   44.5540 -105.6550 N.2   2001  NAD2001     0.0021
     20  C2A      -67.3920   43.2440 -105.6880 C.3   2001  NAD2001     0.5254
     21  N3A      -68.0220   42.3920 -106.5490 N.2   2001  NAD2001    -0.0055
     22  C4A      -69.0700   42.7960 -107.3910 C.2   2001  NAD2001     0.3518
     23  O3       -68.7420   37.1430 -113.1100 O.3   2001  NAD2001    -0.2703
     24  PN       -67.4670   35.9380 -113.6740 P.3   2001  NAD2001     0.2189
     25  O1N      -67.9290   35.4610 -114.9840 O.2   2001  NAD2001    -0.5170
     26  O2N      -67.3580   34.8210 -112.6140 O.3   2001  NAD2001    -0.4371
     27  O5D      -66.0460   36.6350 -113.8880 O.3   2001  NAD2001    -0.3112
     28  C5D      -64.7950   36.3530 -113.2400 C.3   2001  NAD2001     0.1813
     29  C4D      -63.6910   36.4470 -114.2970 C.3   2001  NAD2001     0.1799
     30  O4D      -63.9020   35.2230 -115.0470 O.3   2001  NAD2001    -0.3327
     31  C3D      -63.8330   37.5440 -115.3210 C.3   2001  NAD2001     0.2158
     32  O3D      -62.6180   38.1600 -115.4980 O.3   2001  NAD2001    -0.2175
     33  C2D      -64.2310   36.8740 -116.6600 C.3   2001  NAD2001     0.2309
     34  O2D      -63.8220   37.4610 -117.8390 O.3   2001  NAD2001    -0.2158
     35  C1D      -63.6960   35.4550 -116.4080 C.3   2001  NAD2001     0.2263
     36  N1N      -64.2120   34.2950 -117.1350 N.pl3 2001  NAD2001    -0.2787
     37  C2N      -65.6940   34.1010 -117.3770 C.3   2001  NAD2001     0.1244
     38  C3N      -66.1190   32.9560 -118.0680 C.2   2001  NAD2001     0.0544
     39  C7N      -67.6360   33.1270 -118.1010 C.2   2001  NAD2001     0.2818
     40  O7N      -68.0980   32.4490 -119.0330 O.2   2001  NAD2001    -0.2670
     41  N7N      -68.5140   33.8400 -117.3390 N.am  2001  NAD2001    -0.0839
     42  C4N      -65.1060   31.8740 -118.5840 C.2   2001  NAD2001     0.0033
     43  C5N      -63.6140   32.1080 -118.3220 C.2   2001  NAD2001     0.0157
     44  C6N      -63.1720   33.3330 -117.5890 C.2   2001  NAD2001     0.0633
@<TRIPOS>BOND
     1    40    39    2
     2    42    43    1
     3    42    38    2
     4    43    44    2
     5    39    38    1
     6    39    41   am
     7    38    37    1
     8    34    33    1
     9    44    36    1
    10    37    36    1
    11    36    35    1
    12    33    35    1
    13    33    31    1
    14    35    30    1
    15    32    31    1
    16    31    29    1
    17    30    29    1
    18    25    24    2
    19     2     1    2
    20    29    28    1
    21    27    24    1
    22    27    28    1
    23     3     1    1
    24    24    23    1
    25    24    26    1
    26     1    23    1
    27     1     4    1
    28     4     5    1
    29     5     6    1
    30     6     7    1
    31     6     8    1
    32     7    12    1
    33     8     9    1
    34     8    10    1
    35    14    15    1
    36    14    13    1
    37    12    13    1
    38    12    10    1
    39    15    16    2
    40    13    22    1
    41    10    11    1
    42    16    22    1
    43    16    17    1
    44    22    21    2
    45    21    20    1
    46    17    18    1
    47    17    19    2
    48    20    19    1
