@<TRIPOS>MOLECULE
1x14_NAD_B_1.pdb
 44 48 0 0 0
SMALL
GASTEIGER

@<TRIPOS>ATOM
      1  PA       -22.1910   13.8180   32.8620 P.3   1395  NAD1395     0.2189
      2  O1A      -20.9470   14.2920   32.2690 O.2   1395  NAD1395    -0.5170
      3  O2A      -22.2020   13.8740   34.3960 O.3   1395  NAD1395    -0.4371
      4  O5B      -22.2140   12.2290   32.5490 O.3   1395  NAD1395    -0.3112
      5  C5B      -22.4060   11.7450   31.2450 C.3   1395  NAD1395     0.1813
      6  C4B      -23.5990   10.7820   31.2090 C.3   1395  NAD1395     0.1821
      7  O4B      -23.3140    9.5970   31.9360 O.3   1395  NAD1395    -0.3135
      8  C3B      -24.9230   11.3590   31.7560 C.3   1395  NAD1395     0.2184
      9  O3B      -25.8730   11.5440   30.7210 O.3   1395  NAD1395    -0.2174
     10  C2B      -25.3360   10.3370   32.8140 C.3   1395  NAD1395     0.2570
     11  O2B      -26.7140   10.0870   32.9780 O.3   1395  NAD1395    -0.2130
     12  C1B      -24.6070    9.1360   32.2890 C.3   1395  NAD1395     0.3186
     13  N9A      -24.4920    8.0620   33.2520 N.pl3 1395  NAD1395    -0.1439
     14  C8A      -24.2320    8.1180   34.6000 C.3   1395  NAD1395     0.3377
     15  N7A      -24.2110    6.8320   35.0480 N.2   1395  NAD1395    -0.2095
     16  C5A      -24.4690    5.9840   34.0120 C.2   1395  NAD1395     0.2526
     17  C6A      -24.5980    4.5980   33.9130 C.2   1395  NAD1395     0.4393
     18  N6A      -24.4240    3.8460   34.9840 N.pl3 1395  NAD1395     0.2180
     19  N1A      -24.8500    4.0100   32.6930 N.2   1395  NAD1395     0.0021
     20  C2A      -25.0470    4.8190   31.5650 C.3   1395  NAD1395     0.5254
     21  N3A      -24.9660    6.1920   31.6680 N.2   1395  NAD1395    -0.0055
     22  C4A      -24.6560    6.7610   32.8680 C.2   1395  NAD1395     0.3518
     23  O3       -23.5620   14.4790   32.2390 O.3   1395  NAD1395    -0.2703
     24  PN       -23.8670   15.6850   31.1780 P.3   1395  NAD1395     0.2189
     25  O1N      -25.2710   15.5400   30.6610 O.3   1395  NAD1395    -0.4371
     26  O2N      -22.8050   15.6840   30.1620 O.2   1395  NAD1395    -0.5170
     27  O5D      -23.9320   17.0900   32.0290 O.3   1395  NAD1395    -0.3112
     28  C5D      -24.1680   17.1690   33.4490 C.3   1395  NAD1395     0.1813
     29  C4D      -25.1610   18.2630   33.9120 C.3   1395  NAD1395     0.1799
     30  O4D      -25.0700   19.4540   33.1180 O.3   1395  NAD1395    -0.3327
     31  C3D      -26.6300   17.8160   33.8640 C.3   1395  NAD1395     0.2158
     32  O3D      -27.3560   18.2090   35.0150 O.3   1395  NAD1395    -0.2175
     33  C2D      -27.1850   18.5290   32.6460 C.3   1395  NAD1395     0.2309
     34  O2D      -28.5700   18.7990   32.7240 O.3   1395  NAD1395    -0.2158
     35  C1D      -26.3560   19.8110   32.5970 C.3   1395  NAD1395     0.2263
     36  N1N      -26.4100   20.3220   31.1980 N.pl3 1395  NAD1395    -0.2787
     37  C2N      -27.4460   21.1570   30.8890 C.3   1395  NAD1395     0.1244
     38  C3N      -27.6090   21.6690   29.6030 C.2   1395  NAD1395     0.0544
     39  C7N      -28.7580   22.6060   29.2840 C.2   1395  NAD1395     0.2818
     40  O7N      -28.8930   23.1170   27.9820 O.2   1395  NAD1395    -0.2670
     41  N7N      -29.6320   22.9640   30.2270 N.am  1395  NAD1395    -0.0839
     42  C4N      -26.6930   21.2970   28.6140 C.2   1395  NAD1395     0.0033
     43  C5N      -25.6470   20.4370   28.9350 C.2   1395  NAD1395     0.0157
     44  C6N      -25.5170   19.9460   30.2340 C.2   1395  NAD1395     0.0633
@<TRIPOS>BOND
     1    40    39    2
     2    42    43    1
     3    42    38    2
     4    43    44    2
     5    39    38    1
     6    39    41   am
     7    38    37    1
     8    26    24    2
     9    44    36    1
    10    25    24    1
    11     9     8    1
    12    37    36    1
    13    24    27    1
    14    24    23    1
    15    36    35    1
    16     6     5    1
    17     6     8    1
    18     6     7    1
    19     5     4    1
    20    20    21    1
    21    20    19    1
    22    21    22    2
    23     8    10    1
    24     7    12    1
    25    27    28    1
    26    23     1    1
    27     2     1    2
    28    12    10    1
    29    12    13    1
    30     4     1    1
    31    35    33    1
    32    35    30    1
    33    33    34    1
    34    33    31    1
    35    19    17    2
    36    10    11    1
    37     1     3    1
    38    22    13    1
    39    22    16    1
    40    30    29    1
    41    13    14    1
    42    28    29    1
    43    31    29    1
    44    31    32    1
    45    17    16    1
    46    17    18    1
    47    16    15    2
    48    14    15    1
