@<TRIPOS>MOLECULE
1x15_NAD_B_1.pdb
 44 48 0 0 0
SMALL
GASTEIGER

@<TRIPOS>ATOM
      1  PA       -22.1190   13.8770   32.8430 P.3   1395  NAD1395     0.2189
      2  O1A      -20.6980   14.2370   32.2350 O.2   1395  NAD1395    -0.5170
      3  O2A      -22.1830   14.2660   34.3860 O.3   1395  NAD1395    -0.4371
      4  O5B      -22.2820   12.2600   32.6560 O.3   1395  NAD1395    -0.3112
      5  C5B      -22.4130   11.6730   31.3560 C.3   1395  NAD1395     0.1813
      6  C4B      -23.7370   10.9110   31.1390 C.3   1395  NAD1395     0.1821
      7  O4B      -23.6100    9.5430   31.5360 O.3   1395  NAD1395    -0.3135
      8  C3B      -24.9810   11.4600   31.8400 C.3   1395  NAD1395     0.2184
      9  O3B      -25.9410   11.6620   30.8240 O.3   1395  NAD1395    -0.2174
     10  C2B      -25.5400   10.3790   32.7430 C.3   1395  NAD1395     0.2570
     11  O2B      -26.9450   10.1850   32.7260 O.3   1395  NAD1395    -0.2130
     12  C1B      -24.7410    9.1680   32.3340 C.3   1395  NAD1395     0.3186
     13  N9A      -24.5280    8.1060   33.3510 N.pl3 1395  NAD1395    -0.1439
     14  C8A      -24.3360    8.1580   34.6920 C.3   1395  NAD1395     0.3377
     15  N7A      -24.2240    6.8840   35.2040 N.2   1395  NAD1395    -0.2095
     16  C5A      -24.3790    6.0120   34.1900 C.2   1395  NAD1395     0.2526
     17  C6A      -24.3980    4.5600   33.9160 C.2   1395  NAD1395     0.4393
     18  N6A      -24.2230    3.6810   34.9150 N.pl3 1395  NAD1395     0.2180
     19  N1A      -24.5890    4.1200   32.6490 N.2   1395  NAD1395     0.0021
     20  C2A      -24.7830    4.9390   31.5900 C.3   1395  NAD1395     0.5254
     21  N3A      -24.7970    6.2730   31.7200 N.2   1395  NAD1395    -0.0055
     22  C4A      -24.5780    6.8310   33.0270 C.2   1395  NAD1395     0.3518
     23  O3       -23.4450   14.5060   32.1260 O.3   1395  NAD1395    -0.2703
     24  PN       -23.6430   15.7560   31.0950 P.3   1395  NAD1395     0.2189
     25  O1N      -25.0900   15.7100   30.6200 O.3   1395  NAD1395    -0.4371
     26  O2N      -22.5260   15.6660   30.0980 O.2   1395  NAD1395    -0.5170
     27  O5D      -23.4870   17.0800   32.0280 O.3   1395  NAD1395    -0.3112
     28  C5D      -23.7450   17.1090   33.4530 C.3   1395  NAD1395     0.1813
     29  C4D      -24.9150   18.0240   33.8850 C.3   1395  NAD1395     0.1799
     30  O4D      -24.8800   19.3620   33.3090 O.3   1395  NAD1395    -0.3327
     31  C3D      -26.3120   17.4310   33.5950 C.3   1395  NAD1395     0.2158
     32  O3D      -26.9860   17.0590   34.7920 O.3   1395  NAD1395    -0.2175
     33  C2D      -27.1140   18.4980   32.8500 C.3   1395  NAD1395     0.2309
     34  O2D      -28.3450   18.8630   33.4750 O.3   1395  NAD1395    -0.2158
     35  C1D      -26.1770   19.7090   32.7410 C.3   1395  NAD1395     0.2263
     36  N1N      -26.2630   20.2080   31.3440 N.pl3 1395  NAD1395    -0.2787
     37  C2N      -27.2800   21.0660   31.1290 C.3   1395  NAD1395     0.1244
     38  C3N      -27.5320   21.6170   29.8770 C.2   1395  NAD1395     0.0544
     39  C7N      -28.6830   22.5920   29.7050 C.2   1395  NAD1395     0.2818
     40  O7N      -29.1130   22.8190   28.5810 O.2   1395  NAD1395    -0.2670
     41  N7N      -29.2150   23.2100   30.7760 N.am  1395  NAD1395    -0.0839
     42  C4N      -26.6860   21.2390   28.8200 C.2   1395  NAD1395     0.0033
     43  C5N      -25.6370   20.3420   29.0550 C.2   1395  NAD1395     0.0157
     44  C6N      -25.4420   19.8260   30.3380 C.2   1395  NAD1395     0.0633
@<TRIPOS>BOND
     1    40    39    2
     2    42    43    1
     3    42    38    2
     4    43    44    2
     5    39    38    1
     6    39    41   am
     7    38    37    1
     8    26    24    2
     9    44    36    1
    10    25    24    1
    11     9     8    1
    12    24    27    1
    13    24    23    1
    14    37    36    1
    15     6     5    1
    16     6     7    1
    17     6     8    1
    18    36    35    1
    19     5     4    1
    20     7    12    1
    21    20    21    1
    22    20    19    1
    23    21    22    2
    24     8    10    1
    25    27    28    1
    26    23     1    1
    27     2     1    2
    28    12    10    1
    29    12    13    1
    30    19    17    2
    31     4     1    1
    32    11    10    1
    33    35    33    1
    34    35    30    1
    35     1     3    1
    36    33    34    1
    37    33    31    1
    38    22    13    1
    39    22    16    1
    40    30    29    1
    41    13    14    1
    42    28    29    1
    43    31    29    1
    44    31    32    1
    45    17    16    1
    46    17    18    1
    47    16    15    2
    48    14    15    1
