@<TRIPOS>MOLECULE
1x18_NUC_C_1.pdb
 20 0 0 0 0
SMALL
GASTEIGER

@<TRIPOS>ATOM
      1  P        -75.3000    3.6300   43.5930 P.3   380  DU380       0.0000
      2  P        -70.8480    6.6600   40.1790 P.3   381  DU381       0.0000
      3  P        -67.2660    6.2600   36.0300 P.3   382  DC382       0.0000
      4  P        -66.0310    5.4590   30.5830 P.3   383  DC383       0.0000
      5  P        -68.1490    6.5380   25.6380 P.3   384  DC384       0.0000
      6  P        -71.5660   10.1390   23.1650 P.3   385  DG385       0.0000
      7  P        -74.5150   14.9470   24.0310 P.3   386  DG386       0.0000
      8  P        -76.8460   19.3110   27.6840 P.3   387  DG387       0.0000
      9  P        -77.8160   23.0750   31.7020 P.3   388  DC388       0.0000
     10  P        -75.6710   26.3020   35.7860 P.3   389  DC389       0.0000
     11  P        -71.2340   28.4130   38.5120 P.3   390  DU390       0.0000
     12  P        -62.0860   13.6670   29.4710 P.3   926  DG926       0.0000
     13  P        -57.7930   14.5230   32.9100 P.3   927  DG927       0.0000
     14  P        -62.0930   14.2310   37.1030 P.3   928  DG928       0.0000
     15  P        -65.6400   13.9790   41.6240 P.3   929  DG929       0.0000
     16  P        -70.6910   13.8310   44.3520 P.3   930  DC930       0.0000
     17  P        -76.2540   12.8650   43.6890 P.3   931  DC931       0.0000
     18  P        -80.7340   10.6150   39.9510 P.3   932  DC932       0.0000
     19  P        -84.0500    8.1940   35.1060 P.3   933  DG933       0.0000
     20  P        -85.6960    4.8780   31.1690 P.3   934  DC934       0.0000
@<TRIPOS>BOND
