@<TRIPOS>MOLECULE
1x1i_46M_A_1.pdb
 17 18 0 0 0
SMALL
GASTEIGER

@<TRIPOS>ATOM
      1  O3        -0.8990  -54.9780   48.9010 O.3   780  46M780     -0.2175
      2  C3        -1.3460  -55.5340   47.6610 C.3   780  46M780      0.2168
      3  C4        -0.3450  -56.5850   47.1740 C.3   780  46M780      0.1806
      4  O4         0.9310  -55.9900   46.8900 O.3   780  46M780     -0.3232
      5  C7         1.9030  -56.9380   46.4280 C.3   780  46M780      0.2839
      6  C9         2.3150  -57.8870   47.5590 C.2   780  46M780      0.4151
      7  O7         2.3640  -57.4060   48.7110 O.co2 780  46M780     -0.2402
      8  O8         2.5770  -59.0690   47.2460 O.co2 780  46M780     -0.2402
      9  C8         3.1420  -56.1670   45.9700 C.3   780  46M780      0.0737
     10  O6         1.4040  -57.6660   45.2970 O.3   780  46M780     -0.3233
     11  C6         0.1300  -58.2960   45.5140 C.3   780  46M780      0.1772
     12  C5        -0.8930  -57.2480   45.9190 C.3   780  46M780      0.1771
     13  O5        -2.1690  -57.8500   46.1930 O.3   780  46M780     -0.3239
     14  C1        -3.1540  -56.8630   46.5430 C.3   780  46M780      0.3023
     15  O1        -4.4110  -57.5170   46.7340 O.3   780  46M780     -0.1869
     16  C2        -2.7390  -56.1470   47.8310 C.3   780  46M780      0.2433
     17  O2        -2.6990  -57.0950   48.9010 O.3   780  46M780     -0.2148
@<TRIPOS>BOND
     1    10    11    1
     2    10     5    1
     3    11    12    1
     4    12    13    1
     5    12     3    1
     6     9     5    1
     7    13    14    1
     8     5     4    1
     9     5     6    1
    10    14    15    1
    11    14    16    1
    12     4     3    1
    13     3     2    1
    14     8     6   ar
    15     6     7   ar
    16     2    16    1
    17     2     1    1
    18    16    17    1
