@<TRIPOS>MOLECULE
1x1j_46D_A_1.pdb
 28 30 0 0 0
SMALL
GASTEIGER

@<TRIPOS>ATOM
      1  O6A       20.7370   56.2480   80.0810 O.co2 2001  46D2001    -0.2429
      2  C6        19.6590   56.6160   79.5660 C.2   2001  46D2001     0.3939
      3  O6B       18.7780   55.8310   79.1540 O.co2 2001  46D2001    -0.2429
      4  C5        19.4170   58.1200   79.4240 C.3   2001  46D2001     0.2480
      5  O5        20.0490   58.5660   78.2110 O.3   2001  46D2001    -0.3404
      6  C1        19.9480   59.9900   78.0430 C.3   2001  46D2001     0.1783
      7  C2        18.4720   60.3750   77.9130 C.3   2001  46D2001     0.2140
      8  O2        18.3640   61.7960   77.7880 O.3   2001  46D2001    -0.2176
      9  C3        17.6990   59.9080   79.1490 C.3   2001  46D2001     0.2146
     10  O3        16.3060   60.1460   78.9330 O.3   2001  46D2001    -0.2176
     11  C4        17.9220   58.4150   79.4090 C.3   2001  46D2001     0.1888
     12  OP1       17.3580   58.0400   80.6770 O.3   2001  46D2001    -0.3252
     13  CP1       16.1010   57.3590   80.5310 C.3   2001  46D2001     0.2695
     14  OP5       15.0620   58.2920   80.1870 O.3   2001  46D2001    -0.3259
     15  CP5       13.8000   57.6310   79.9940 C.3   2001  46D2001     0.1771
     16  CP6       12.7180   58.6170   79.5860 C.3   2001  46D2001     0.1772
     17  OP6       11.4700   57.9220   79.4230 O.3   2001  46D2001    -0.3233
     18  CP7       11.0400   57.2010   80.5860 C.3   2001  46D2001     0.2839
     19  CP9       10.5820   58.1520   81.6960 C.2   2001  46D2001     0.4151
     20  OP7       10.6310   57.7220   82.8680 O.co2 2001  46D2001    -0.2402
     21  OP8       10.1910   59.2880   81.3490 O.co2 2001  46D2001    -0.2402
     22  CP8        9.8470   56.3350   80.1770 C.3   2001  46D2001     0.0737
     23  OP4       12.0730   56.3230   81.0550 O.3   2001  46D2001    -0.3232
     24  CP4       13.3260   56.9880   81.2870 C.3   2001  46D2001     0.1806
     25  CP3       14.3850   55.9770   81.7310 C.3   2001  46D2001     0.2167
     26  OP3       14.0150   55.4420   83.0050 O.3   2001  46D2001    -0.2175
     27  CP2       15.7550   56.6510   81.8450 C.3   2001  46D2001     0.2404
     28  OP2       15.7130   57.6140   82.9010 O.3   2001  46D2001    -0.2149
@<TRIPOS>BOND
     1     8     7    1
     2     7     6    1
     3     7     9    1
     4     6     5    1
     5     5     4    1
     6    10     9    1
     7     9    11    1
     8     3     2   ar
     9    11     4    1
    10    11    12    1
    11    17    16    1
    12    17    18    1
    13     4     2    1
    14     2     1   ar
    15    16    15    1
    16    15    14    1
    17    15    24    1
    18    22    18    1
    19    14    13    1
    20    13    12    1
    21    13    27    1
    22    18    23    1
    23    18    19    1
    24    23    24    1
    25    24    25    1
    26    21    19   ar
    27    19    20   ar
    28    25    27    1
    29    25    26    1
    30    27    28    1
