@<TRIPOS>MOLECULE
1x1r_GDP_A_1.pdb
 28 30 0 0 0
SMALL
GASTEIGER

@<TRIPOS>ATOM
      1  PB         1.5710    8.1550    6.3170 P.3   1179  GDP1179     0.5373
      2  O1B        2.9110    8.2020    5.6700 O.2   1179  GDP1179    -0.2221
      3  O2B        0.6010    9.2180    5.8150 O.3   1179  GDP1179    -0.1143
      4  O3B        0.9410    6.7640    6.2940 O.3   1179  GDP1179    -0.1143
      5  O3A        1.8940    8.4820    7.8650 O.3   1179  GDP1179    -0.2261
      6  PA         0.9570    9.2000    8.9680 P.3   1179  GDP1179     0.2231
      7  O1A       -0.3630    8.5600    8.9450 O.3   1179  GDP1179    -0.4370
      8  O2A        0.9960   10.6970    8.9030 O.2   1179  GDP1179    -0.5169
      9  O5'        1.7300    8.7980   10.3080 O.3   1179  GDP1179    -0.3111
     10  C5'        1.9130    7.4430   10.6700 C.3   1179  GDP1179     0.1813
     11  C4'        2.0390    7.2920   12.1950 C.3   1179  GDP1179     0.1799
     12  O4'        3.1970    7.9860   12.6460 O.3   1179  GDP1179    -0.3326
     13  C3'        0.8530    7.8960   12.9380 C.3   1179  GDP1179     0.2158
     14  O3'        0.6510    7.1510   14.1310 O.3   1179  GDP1179    -0.2175
     15  C2'        1.3560    9.2870   13.2610 C.3   1179  GDP1179     0.2310
     16  O2'        0.7100    9.8810   14.3790 O.3   1179  GDP1179    -0.2158
     17  C1'        2.8360    9.0720   13.4960 C.3   1179  GDP1179     0.2293
     18  N9         3.7210   10.1770   13.1310 N.pl3 1179  GDP1179    -0.2354
     19  C8         3.7570   10.8920   11.9540 C.3   1179  GDP1179     0.2246
     20  N7         4.7600   11.7650   11.9920 N.2   1179  GDP1179    -0.2322
     21  C5         5.3980   11.6230   13.1810 C.2   1179  GDP1179     0.2182
     22  C6         6.5090   12.2480   13.7300 C.1   1179  GDP1179     0.2372
     23  O6         7.2040   13.0680   13.1390 O.2   1179  GDP1179    -0.2069
     24  N1         6.8940   11.8120   14.9860 N.2   1179  GDP1179    -0.2485
     25  C2         6.2290   10.8200   15.6570 C.1   1179  GDP1179     0.2531
     26  N2         6.6400   10.4810   16.8760 N.pl3 1179  GDP1179    -0.0226
     27  N3         5.1500   10.1840   15.1140 N.2   1179  GDP1179    -0.3074
     28  C4         4.7570   10.6150   13.8930 C.2   1179  GDP1179     0.2300
@<TRIPOS>BOND
     1     2     1    2
     2     3     1    1
     3     4     1    1
     4     1     5    1
     5     5     6    1
     6     8     6    2
     7     7     6    1
     8     6     9    1
     9     9    10    1
    10    10    11    1
    11    19    20    1
    12    19    18    1
    13    20    21    2
    14    11    12    1
    15    11    13    1
    16    12    17    1
    17    13    15    1
    18    13    14    1
    19    18    17    1
    20    18    28    1
    21    23    22    2
    22    21    22    1
    23    21    28    1
    24    15    17    1
    25    15    16    1
    26    22    24    2
    27    28    27    2
    28    24    25    2
    29    27    25    2
    30    25    26    1
