@<TRIPOS>MOLECULE
1x1s_GNP_A_1.pdb
 32 34 0 0 0
SMALL
GASTEIGER

@<TRIPOS>ATOM
      1  PG       -11.7040   45.0090    9.4620 P.3   179  GNP179      0.4884
      2  O1G      -12.9730   45.5790    8.9740 O.3   179  GNP179     -0.1240
      3  O2G      -10.8930   44.3250    8.4220 O.2   179  GNP179     -0.2331
      4  O3G      -12.1190   44.1430   10.6420 O.3   179  GNP179     -0.1240
      5  N3B      -10.8340   46.2430   10.0010 N.3   179  GNP179     -0.0163
      6  PB        -9.3220   46.1580   10.5180 P.3   179  GNP179      0.4669
      7  O1B       -9.3490   45.6730   11.9070 O.3   179  GNP179     -0.1253
      8  O2B       -8.5480   45.3410    9.5570 O.2   179  GNP179     -0.2351
      9  O3A       -8.7790   47.6050   10.5620 O.3   179  GNP179     -0.2360
     10  PA        -7.8690   48.3250    9.5310 P.3   179  GNP179      0.2220
     11  O1A       -8.4770   48.1930    8.1850 O.2   179  GNP179     -0.5170
     12  O2A       -6.4510   47.8910    9.6110 O.3   179  GNP179     -0.4370
     13  O5'       -7.8230   49.8150   10.0060 O.3   179  GNP179     -0.3111
     14  C5'       -8.9560   50.6680    9.9940 C.3   179  GNP179      0.1813
     15  C4'       -8.4760   52.1030    9.7940 C.3   179  GNP179      0.1799
     16  O4'       -7.6930   52.5610   10.9390 O.3   179  GNP179     -0.3326
     17  C3'       -7.5930   52.3710    8.5760 C.3   179  GNP179      0.2158
     18  O3'       -7.8800   53.6630    8.0830 O.3   179  GNP179     -0.2175
     19  C2'       -6.1800   52.3600    9.1530 C.3   179  GNP179      0.2310
     20  O2'       -5.2640   53.1470    8.4230 O.3   179  GNP179     -0.2158
     21  C1'       -6.3920   52.9690   10.5340 C.3   179  GNP179      0.2293
     22  N9        -5.4130   52.4990   11.5220 N.pl3 179  GNP179     -0.2354
     23  C8        -5.0970   51.1950   11.8350 C.3   179  GNP179      0.2246
     24  N7        -4.1850   51.0790   12.7640 N.2   179  GNP179     -0.2322
     25  C5        -3.8680   52.3830   13.0960 C.2   179  GNP179      0.2182
     26  C6        -2.9420   52.8940   14.0460 C.1   179  GNP179      0.2372
     27  O6        -2.1910   52.2590   14.8030 O.2   179  GNP179     -0.2069
     28  N1        -2.9350   54.2900   14.0780 N.2   179  GNP179     -0.2485
     29  C2        -3.7310   55.0960   13.2790 C.1   179  GNP179      0.2531
     30  N2        -3.6070   56.4340   13.4210 N.pl3 179  GNP179     -0.0226
     31  N3        -4.5910   54.6200   12.3830 N.2   179  GNP179     -0.3074
     32  C4        -4.6170   53.2690   12.3440 C.2   179  GNP179      0.2300
@<TRIPOS>BOND
     1    18    17    1
     2    11    10    2
     3     3     1    2
     4    20    19    1
     5    17    19    1
     6    17    15    1
     7     2     1    1
     8    19    21    1
     9     1     5    1
    10     1     4    1
    11    10    12    1
    12    10    13    1
    13    10     9    1
    14     8     6    2
    15    15    14    1
    16    15    16    1
    17    14    13    1
    18     5     6    1
    19     6     9    1
    20     6     7    1
    21    21    16    1
    22    21    22    1
    23    22    23    1
    24    22    32    1
    25    23    24    1
    26    32    31    2
    27    32    25    1
    28    31    29    2
    29    24    25    2
    30    25    26    1
    31    29    30    1
    32    29    28    2
    33    26    28    2
    34    26    27    2
