@<TRIPOS>MOLECULE
1x1t_NAD_A_1.pdb
 44 48 0 0 0
SMALL
GASTEIGER

@<TRIPOS>ATOM
      1  PA        12.4500   33.7960   36.0590 P.3   300  NAD300      0.2189
      2  O1A       13.0530   34.4660   34.8780 O.2   300  NAD300     -0.5170
      3  O2A       13.1330   32.6090   36.6590 O.3   300  NAD300     -0.4371
      4  O5B       10.9540   33.4160   35.6710 O.3   300  NAD300     -0.3112
      5  C5B       10.1240   34.2750   34.8340 C.3   300  NAD300      0.1813
      6  C4B        9.2430   33.3810   33.9900 C.3   300  NAD300      0.1821
      7  O4B        8.4730   34.3330   33.1660 O.3   300  NAD300     -0.3135
      8  C3B       10.0100   32.4840   32.9660 C.3   300  NAD300      0.2184
      9  O3B        9.5410   31.1080   33.1310 O.3   300  NAD300     -0.2174
     10  C2B        9.6880   33.0450   31.6010 C.3   300  NAD300      0.2570
     11  O2B        9.7100   32.1950   30.5080 O.3   300  NAD300     -0.2130
     12  C1B        8.3510   33.7440   31.8830 C.3   300  NAD300      0.3186
     13  N9A        8.1150   34.8310   30.9610 N.pl3 300  NAD300     -0.1439
     14  C8A        8.7880   36.0210   30.7000 C.3   300  NAD300      0.3377
     15  N7A        8.2200   36.7510   29.7590 N.2   300  NAD300     -0.2095
     16  C5A        7.1330   36.0810   29.3420 C.2   300  NAD300      0.2526
     17  C6A        6.1010   36.3640   28.3330 C.2   300  NAD300      0.4393
     18  N6A        6.1000   37.4610   27.6040 N.pl3 300  NAD300      0.2180
     19  N1A        5.1250   35.3790   28.2100 N.2   300  NAD300      0.0021
     20  C2A        5.0670   34.2380   28.9240 C.3   300  NAD300      0.5254
     21  N3A        6.0220   33.9230   29.8960 N.2   300  NAD300     -0.0055
     22  C4A        7.0390   34.8730   30.0730 C.2   300  NAD300      0.3518
     23  O3        12.2790   34.8470   37.2350 O.3   300  NAD300     -0.2703
     24  PN        11.4890   34.8140   38.6650 P.3   300  NAD300      0.2189
     25  O1N       12.2640   35.6050   39.6320 O.3   300  NAD300     -0.4371
     26  O2N       11.1190   33.3980   38.9550 O.2   300  NAD300     -0.5170
     27  O5D       10.2000   35.7010   38.2370 O.3   300  NAD300     -0.3112
     28  C5D        8.8480   35.2050   38.4940 C.3   300  NAD300      0.1813
     29  C4D        8.0230   36.2530   39.1460 C.3   300  NAD300      0.1799
     30  O4D        8.5260   36.5010   40.5250 O.3   300  NAD300     -0.3327
     31  C3D        8.0580   37.6740   38.4540 C.3   300  NAD300      0.2158
     32  O3D        6.7270   38.2250   38.3590 O.3   300  NAD300     -0.2175
     33  C2D        8.9130   38.5230   39.3960 C.3   300  NAD300      0.2309
     34  O2D        8.6570   39.8900   39.2500 O.3   300  NAD300     -0.2158
     35  C1D        8.5050   37.9150   40.7810 C.3   300  NAD300      0.2261
     36  N1N        9.4320   38.2190   41.9170 N.pl3 300  NAD300     -0.2831
     37  C2N       10.8110   37.7930   41.8300 C.2   300  NAD300      0.0633
     38  C3N       11.6270   37.8610   42.8890 C.2   300  NAD300      0.0490
     39  C7N       13.0770   37.4100   42.8110 C.2   300  NAD300      0.2814
     40  O7N       13.8840   37.8760   43.6480 O.2   300  NAD300     -0.2670
     41  N7N       13.4540   36.5350   41.8710 N.am  300  NAD300     -0.0839
     42  C4N       11.1360   38.3920   44.2380 C.3   300  NAD300      0.0341
     43  C5N        9.8600   39.2020   44.1260 C.3   300  NAD300      0.0264
     44  C6N        8.9640   38.9160   43.0630 C.3   300  NAD300      0.0934
@<TRIPOS>BOND
     1    18    17    1
     2    19    17    2
     3    19    20    1
     4    17    16    1
     5    20    21    1
     6    16    15    2
     7    16    22    1
     8    15    14    1
     9    21    22    2
    10    22    13    1
    11    11    10    1
    12    14    13    1
    13    13    12    1
    14    10    12    1
    15    10     8    1
    16    12     7    1
    17     8     9    1
    18     8     6    1
    19     7     6    1
    20     6     5    1
    21     5     4    1
    22     2     1    2
    23     4     1    1
    24     1     3    1
    25     1    23    1
    26    23    24    1
    27    27    28    1
    28    27    24    1
    29    32    31    1
    30    31    29    1
    31    31    33    1
    32    28    29    1
    33    24    26    2
    34    24    25    1
    35    29    30    1
    36    34    33    1
    37    33    35    1
    38    30    35    1
    39    35    36    1
    40    37    36    1
    41    37    38    2
    42    41    39   am
    43    36    44    1
    44    39    38    1
    45    39    40    2
    46    38    42    1
    47    44    43    1
    48    43    42    1
