@<TRIPOS>MOLECULE
1x1v_MMA_A_1.pdb
 13 13 0 0 0
SMALL
GASTEIGER

@<TRIPOS>ATOM
      1  C1        48.4470    8.6880   68.4290 C.3   801  MMA801      0.2695
      2  C2        48.8360    9.4480   69.6580 C.3   801  MMA801      0.2406
      3  C3        47.7550    9.1050   70.6590 C.3   801  MMA801      0.2198
      4  C4        46.3780    9.3330   70.0350 C.3   801  MMA801      0.2144
      5  C5        46.2170    8.7180   68.6310 C.3   801  MMA801      0.1835
      6  C6        44.8390    8.9830   68.0150 C.3   801  MMA801      0.2142
      7  C7        48.7730    6.7520   66.9640 C.3   801  MMA801      0.1769
      8  O1        49.1710    7.5420   68.0770 O.3   801  MMA801     -0.3259
      9  O2        48.7720   10.8290   69.3790 O.3   801  MMA801     -0.2149
     10  O3        47.9250    9.9080   71.8040 O.3   801  MMA801     -0.2174
     11  O4        45.4440    8.7320   70.8900 O.3   801  MMA801     -0.2176
     12  O5        47.2850    9.0750   67.7600 O.3   801  MMA801     -0.3256
     13  O6        44.5870   10.3630   67.8030 O.3   801  MMA801     -0.2176
@<TRIPOS>BOND
     1     7     8    1
     2    12     1    1
     3    12     5    1
     4    13     6    1
     5     6     5    1
     6     8     1    1
     7     1     2    1
     8     5     4    1
     9     9     2    1
    10     2     3    1
    11     4     3    1
    12     4    11    1
    13     3    10    1
