@<TRIPOS>MOLECULE
1x1z_BMP_A_1.pdb
 22 23 0 0 0
SMALL
GASTEIGER

@<TRIPOS>ATOM
      1  P         24.5890  -15.9930    8.7310 P.3   301  BMP301      0.5327
      2  OP1       25.8850  -15.2300    8.8790 O.3   301  BMP301     -0.1145
      3  OP2       23.4250  -15.0490    8.5920 O.3   301  BMP301     -0.1145
      4  OP3       24.6850  -16.9770    7.5900 O.2   301  BMP301     -0.2224
      5  O5'       24.2760  -16.8040   10.0820 O.3   301  BMP301     -0.2675
      6  C5'       25.3360  -17.3930   10.8650 C.3   301  BMP301      0.1859
      7  C4'       24.5700  -18.0980   11.9540 C.3   301  BMP301      0.1801
      8  O4'       25.4970  -18.9710   12.6590 O.3   301  BMP301     -0.3319
      9  C3'       24.0090  -17.2220   13.0130 C.3   301  BMP301      0.2158
     10  O3'       22.8550  -17.8020   13.6440 O.3   301  BMP301     -0.2175
     11  C2'       25.1330  -17.1190   14.0520 C.3   301  BMP301      0.2320
     12  O2'       24.6400  -16.7680   15.3100 O.3   301  BMP301     -0.2157
     13  C1'       25.7490  -18.4970   13.9880 C.3   301  BMP301      0.2425
     14  N1        27.2100  -18.6080   14.2190 N.am  301  BMP301     -0.1473
     15  C2        28.1140  -17.8160   13.5290 C.1   301  BMP301      0.2863
     16  O2        27.7620  -17.0320   12.6790 O.2   301  BMP301     -0.1918
     17  N3        29.4100  -17.9790   13.8380 N.2   301  BMP301     -0.2489
     18  C4        29.9410  -18.8820   14.7960 C.1   301  BMP301      0.2018
     19  O4        31.1580  -18.8920   14.9280 O.2   301  BMP301     -0.2129
     20  C5        28.9890  -19.6960   15.4790 C.3   301  BMP301      0.2213
     21  C6        27.6490  -19.5780   15.1830 C.2   301  BMP301      0.2591
     22  O1        26.7510  -20.2950   15.7020 O.2   301  BMP301     -0.2725
@<TRIPOS>BOND
     1     4     1    2
     2     3     1    1
     3     1     2    1
     4     1     5    1
     5     5     6    1
     6     6     7    1
     7     7     8    1
     8     7     9    1
     9     8    13    1
    10    16    15    2
    11     9    10    1
    12     9    11    1
    13    15    17    2
    14    15    14   am
    15    17    18    2
    16    13    11    1
    17    13    14    1
    18    11    12    1
    19    14    21   am
    20    18    19    2
    21    18    20    1
    22    21    20    1
    23    21    22    2
