@<TRIPOS>MOLECULE
1x28_PGU_A_1.pdb
 25 25 0 0 0
SMALL
GASTEIGER

@<TRIPOS>ATOM
      1  N1        32.0480   77.3270    0.9400 N.ar  413  PGU413     -0.2452
      2  C2        32.2460   75.9440    0.8960 C.ar  413  PGU413      0.0978
      3  C2A       31.7060   75.3220    2.1640 C.3   413  PGU413      0.0555
      4  C3        32.8950   75.3840   -0.2900 C.ar  413  PGU413      0.2062
      5  O3        33.0190   74.0370   -0.1960 O.3   413  PGU413     -0.2856
      6  C4        33.3310   76.1790   -1.3920 C.ar  413  PGU413      0.0353
      7  C4A       34.0030   75.5660   -2.6250 C.3   413  PGU413      0.1186
      8  C5        33.0560   77.5930   -1.1920 C.ar  413  PGU413      0.0275
      9  C6        32.4370   78.1600   -0.0710 C.ar  413  PGU413      0.0965
     10  C5A       33.4240   78.6670   -2.2290 C.3   413  PGU413      0.1816
     11  O4P       32.6050   78.7730   -3.3360 O.3   413  PGU413     -0.2653
     12  P         32.9410   79.6170   -4.6440 P.3   413  PGU413      0.5329
     13  O1P       31.7550   79.9930   -5.3650 O.2   413  PGU413     -0.2224
     14  O2P       33.9920   78.7890   -5.3540 O.3   413  PGU413     -0.1145
     15  O3P       33.5070   80.9180   -4.0970 O.3   413  PGU413     -0.1145
     16  N         35.0190   74.5710   -2.0530 N.3   413  PGU413     -0.2034
     17  CA        35.4960   73.5770   -3.1110 C.3   413  PGU413      0.1766
     18  CB        36.0940   74.2800   -4.3700 C.3   413  PGU413      0.0407
     19  CG        37.5660   74.7410   -4.3560 C.3   413  PGU413      0.1161
     20  CD        37.8720   75.7310   -3.2340 C.2   413  PGU413      0.3649
     21  OE1       38.4360   75.2650   -2.2620 O.co2 413  PGU413     -0.2457
     22  OE2       37.5000   76.8930   -3.4710 O.co2 413  PGU413     -0.2457
     23  C         36.4930   72.5890   -2.4510 C.2   413  PGU413      0.3803
     24  O         36.1890   72.4240   -1.1390 O.co2 413  PGU413     -0.2441
     25  OXT       37.4820   71.9880   -3.0590 O.co2 413  PGU413     -0.2441
@<TRIPOS>BOND
     1    13    12    2
     2    14    12    1
     3    12    15    1
     4    12    11    1
     5    18    19    1
     6    18    17    1
     7    19    20    1
     8    22    20   ar
     9    11    10    1
    10    20    21   ar
    11    17    23    1
    12    17    16    1
    13    25    23   ar
    14     7    16    1
    15     7     6    1
    16    23    24   ar
    17    10     8    1
    18     6     8   ar
    19     6     4   ar
    20     8     9   ar
    21     4     5    1
    22     4     2   ar
    23     9     1   ar
    24     2     1   ar
    25     2     3    1
