@<TRIPOS>MOLECULE
1x29_PMG_A_1.pdb
 26 26 0 0 0
SMALL
GASTEIGER

@<TRIPOS>ATOM
      1  N1        31.8220   77.0030    1.0280 N.ar  413  PMG413     -0.2452
      2  C2        32.0590   75.5690    0.9530 C.ar  413  PMG413      0.0978
      3  C2A       31.5920   74.8970    2.2420 C.3   413  PMG413      0.0555
      4  C3        32.6850   75.0710   -0.3200 C.ar  413  PMG413      0.2062
      5  O3        32.8620   73.7460   -0.2900 O.3   413  PMG413     -0.2856
      6  C4        33.0450   75.9670   -1.4430 C.ar  413  PMG413      0.0353
      7  C4A       33.6870   75.4520   -2.7690 C.3   413  PMG413      0.1185
      8  C5        32.7230   77.4160   -1.1740 C.ar  413  PMG413      0.0275
      9  C6        32.1280   77.9300    0.0260 C.ar  413  PMG413      0.0965
     10  C5A       32.9940   78.5320   -2.1670 C.3   413  PMG413      0.1816
     11  OP4       32.6370   78.2930   -3.4670 O.3   413  PMG413     -0.2653
     12  P         32.8120   79.2900   -4.7000 P.3   413  PMG413      0.5329
     13  OP1       31.5340   79.5970   -5.3090 O.3   413  PMG413     -0.1145
     14  OP2       33.8020   78.5450   -5.5370 O.2   413  PMG413     -0.2224
     15  OP3       33.4390   80.5970   -4.1770 O.3   413  PMG413     -0.1145
     16  N         34.4930   74.0990   -2.5380 N.3   413  PMG413     -0.2051
     17  CA        35.2260   73.2710   -3.5110 C.3   413  PMG413      0.1533
     18  CB2       34.1970   72.3460   -4.2070 C.3   413  PMG413      0.0290
     19  CB1       35.9230   74.2160   -4.5600 C.3   413  PMG413      0.0388
     20  CG        37.3950   74.5640   -4.4460 C.3   413  PMG413      0.1160
     21  CD        37.6500   75.4600   -3.2770 C.2   413  PMG413      0.3649
     22  OE1       37.2600   76.6480   -3.3600 O.co2 413  PMG413     -0.2457
     23  OE2       38.2380   74.9550   -2.2810 O.co2 413  PMG413     -0.2457
     24  C         36.2140   72.3500   -2.7030 C.2   413  PMG413      0.3784
     25  O         37.0740   71.6950   -3.3190 O.co2 413  PMG413     -0.2442
     26  OXT       36.0740   72.3190   -1.4500 O.co2 413  PMG413     -0.2442
@<TRIPOS>BOND
     1    14    12    2
     2    13    12    1
     3    12    15    1
     4    12    11    1
     5    19    20    1
     6    19    17    1
     7    20    21    1
     8    18    17    1
     9    17    24    1
    10    17    16    1
    11    11    10    1
    12    22    21   ar
    13    25    24   ar
    14    21    23   ar
    15     7    16    1
    16     7     6    1
    17    24    26   ar
    18    10     8    1
    19     6     8   ar
    20     6     4   ar
    21     8     9   ar
    22     4     5    1
    23     4     2   ar
    24     9     1   ar
    25     2     1   ar
    26     2     3    1
