@<TRIPOS>MOLECULE
1x2a_PDG_A_1.pdb
 25 25 0 0 0
SMALL
GASTEIGER

@<TRIPOS>ATOM
      1  N1        31.8250   76.6290    1.0250 N.ar  413  PDG413     -0.2452
      2  C2        31.9680   75.2480    0.9210 C.ar  413  PDG413      0.0978
      3  C2A       31.4480   74.5850    2.1880 C.3   413  PDG413      0.0555
      4  C3        32.5510   74.7170   -0.3060 C.ar  413  PDG413      0.2062
      5  O3        32.6210   73.3680   -0.2570 O.3   413  PDG413     -0.2856
      6  C4        32.9790   75.5430   -1.3980 C.ar  413  PDG413      0.0353
      7  C4A       33.5850   74.9950   -2.6980 C.3   413  PDG413      0.1186
      8  C5        32.7690   76.9420   -1.1300 C.ar  413  PDG413      0.0275
      9  C6        32.2110   77.4880    0.0330 C.ar  413  PDG413      0.0965
     10  C5A       33.1460   78.0190   -2.1390 C.3   413  PDG413      0.1816
     11  OP4       32.4350   78.0210   -3.3080 O.3   413  PDG413     -0.2653
     12  P         32.7350   78.9470   -4.5640 P.3   413  PDG413      0.5329
     13  OP1       31.5220   79.3620   -5.1940 O.3   413  PDG413     -0.1145
     14  OP2       33.7550   78.1370   -5.3520 O.2   413  PDG413     -0.2224
     15  OP3       33.3400   80.2170   -4.0100 O.3   413  PDG413     -0.1145
     16  NA        34.0890   73.6030   -2.3530 N.3   413  PDG413     -0.2034
     17  CAA       35.5570   73.4480   -2.6410 C.3   413  PDG413      0.1766
     18  CBA       35.9360   73.7430   -4.1080 C.3   413  PDG413      0.0407
     19  CGA       37.4040   74.1520   -4.3380 C.3   413  PDG413      0.1161
     20  CDA       37.9000   75.1480   -3.2780 C.2   413  PDG413      0.3649
     21  OE1       38.4900   74.6650   -2.3330 O.co2 413  PDG413     -0.2457
     22  OE2       37.6150   76.3370   -3.5240 O.co2 413  PDG413     -0.2457
     23  CA        35.9860   72.0360   -2.2430 C.2   413  PDG413      0.3803
     24  OA        35.4850   71.7310   -1.0190 O.co2 413  PDG413     -0.2441
     25  OXT       36.7340   71.2440   -2.9690 O.co2 413  PDG413     -0.2441
@<TRIPOS>BOND
     1    14    12    2
     2    13    12    1
     3    12    15    1
     4    12    11    1
     5    19    18    1
     6    19    20    1
     7    18    17    1
     8    22    20   ar
     9    11    10    1
    10    20    21   ar
    11    25    23   ar
    12     7    16    1
    13     7     6    1
    14    17    16    1
    15    17    23    1
    16    23    24   ar
    17    10     8    1
    18     6     8   ar
    19     6     4   ar
    20     8     9   ar
    21     4     5    1
    22     4     2   ar
    23     9     1   ar
    24     2     1   ar
    25     2     3    1
