@<TRIPOS>MOLECULE
1x2b_STX_A_1.pdb
 14 14 0 0 0
SMALL
GASTEIGER

@<TRIPOS>ATOM
      1  N         18.4240   -0.3340   -9.0280 N.3   401  STX401     -0.2082
      2  CA        19.2580    0.3830   -7.9900 C.3   401  STX401      0.1626
      3  C         20.7310   -0.0430   -8.0460 C.2   401  STX401      0.2450
      4  O         21.0870   -1.1610   -7.7090 O.2   401  STX401     -0.2848
      5  CD        17.0950   -0.6440   -8.3970 C.3   401  STX401      0.1080
      6  C5        21.6890    0.9680   -8.5010 C.ar  401  STX401      0.2861
      7  N4        21.6680    1.7970   -9.5720 N.ar  401  STX401     -0.1041
      8  N3        22.7540    2.5370   -9.5680 N.ar  401  STX401     -0.1113
      9  C2        23.5220    2.2190   -8.5000 C.ar  401  STX401      0.2256
     10  O1        22.8750    1.2010   -7.7710 O.2   401  STX401     -0.4173
     11  C6        24.8470    2.7390   -8.0060 C.3   401  STX401      0.0704
     12  C7        25.6590    3.2950   -9.1820 C.3   401  STX401      0.0093
     13  C8        25.6400    1.6120   -7.3320 C.3   401  STX401      0.0093
     14  C9        24.5580    3.8600   -7.0170 C.3   401  STX401      0.0093
@<TRIPOS>BOND
     1     7     8   ar
     2     7     6   ar
     3     8     9   ar
     4    12    11    1
     5     1     5    1
     6     1     2    1
     7     6     3    1
     8     6    10   ar
     9     9    11    1
    10     9    10   ar
    11     3     2    1
    12     3     4    2
    13    11    13    1
    14    11    14    1
