@<TRIPOS>MOLECULE
1x2e_ATX_A_1.pdb
 14 14 0 0 0
SMALL
GASTEIGER

@<TRIPOS>ATOM
      1  N         19.1530    0.3660   -9.7620 N.3   401  ATX401     -0.1244
      2  CA        19.7470    0.2900   -8.3820 C.3   401  ATX401      0.1581
      3  C         21.2840    0.1440   -8.4460 C.2   401  ATX401      0.2448
      4  O         21.8580   -0.8430   -8.0070 O.2   401  ATX401     -0.2848
      5  CB        19.0360   -0.8980   -7.7170 C.3   401  ATX401      0.0290
      6  C5        22.0450    1.2530   -9.0290 C.ar  401  ATX401      0.2861
      7  N4        22.0290    1.8190  -10.2520 N.ar  401  ATX401     -0.1041
      8  N3        22.9120    2.7960  -10.2850 N.ar  401  ATX401     -0.1113
      9  C2        23.5330    2.8980   -9.0820 C.ar  401  ATX401      0.2256
     10  O1        23.0030    1.9170   -8.2320 O.2   401  ATX401     -0.4173
     11  C6        24.6140    3.8120   -8.5420 C.3   401  ATX401      0.0704
     12  C7        25.8140    2.9700   -8.0990 C.3   401  ATX401      0.0093
     13  C8        24.0790    4.6010   -7.3540 C.3   401  ATX401      0.0093
     14  C9        25.0350    4.7860   -9.6450 C.3   401  ATX401      0.0093
@<TRIPOS>BOND
     1     8     7   ar
     2     8     9   ar
     3     7     6   ar
     4     1     2    1
     5    14    11    1
     6     9    11    1
     7     9    10   ar
     8     6     3    1
     9     6    10   ar
    10    11    12    1
    11    11    13    1
    12     3     2    1
    13     3     4    2
    14     2     5    1
