@<TRIPOS>MOLECULE
1x2h_LPA_A_1.pdb
 12 12 0 0 0
SMALL
GASTEIGER

@<TRIPOS>ATOM
      1  O1        27.3300   48.2490   33.2340 O.co2 338  LPA338     -0.2457
      2  O2        27.1660   48.8460   35.3780 O.co2 338  LPA338     -0.2457
      3  C1        27.6960   48.1830   34.4460 C.2   338  LPA338      0.3649
      4  C2        28.8420   47.2540   34.8190 C.3   338  LPA338      0.1141
      5  C3        28.7320   46.8190   36.2920 C.3   338  LPA338      0.0118
      6  C4        29.9460   45.9550   36.6430 C.3   338  LPA338      0.0015
      7  C5        30.0690   45.7940   38.1530 C.3   338  LPA338      0.0117
      8  C6        31.3630   46.4020   38.6920 C.3   338  LPA338      0.0588
      9  C7        31.6620   45.8980   40.0990 C.3   338  LPA338      0.0242
     10  C8        31.7250   46.9030   41.2780 C.3   338  LPA338      0.0696
     11  S8        31.0300   48.4560   40.8670 S.3   338  LPA338     -0.0821
     12  S6        31.2170   48.1320   38.8930 S.3   338  LPA338     -0.0830
@<TRIPOS>BOND
     1     1     3   ar
     2     3     4    1
     3     3     2   ar
     4     4     5    1
     5     5     6    1
     6     6     7    1
     7     7     8    1
     8     8    12    1
     9     8     9    1
    10    12    11    1
    11     9    10    1
    12    11    10    1
