@<TRIPOS>MOLECULE
1x38_IDD_A_1.pdb
 20 22 0 0 0
SMALL
GASTEIGER

@<TRIPOS>ATOM
      1  C1        27.0890   29.0720   35.9570 C.ar  1001  IDD1001     0.0271
      2  C2        27.7210   29.3130   37.1930 C.ar  1001  IDD1001     0.0023
      3  C3        28.4370   30.5010   37.4110 C.ar  1001  IDD1001     0.0001
      4  C4        28.5150   31.4520   36.3900 C.ar  1001  IDD1001     0.0000
      5  C5        27.8770   31.2250   35.1650 C.ar  1001  IDD1001     0.0001
      6  C6        27.1540   30.0460   34.9400 C.ar  1001  IDD1001     0.0023
      7  C1B       25.2160   26.0070   36.3480 C.2   1001  IDD1001     0.1933
      8  C2B       24.5150   24.9610   37.1050 C.3   1001  IDD1001     0.2504
      9  C3B       23.9770   23.8700   36.1840 C.3   1001  IDD1001     0.2222
     10  C4B       23.4810   24.4570   34.8340 C.3   1001  IDD1001     0.2057
     11  C5B       24.6550   25.1200   34.0780 C.3   1001  IDD1001     0.1410
     12  C6B       24.2230   25.7140   32.7260 C.3   1001  IDD1001     0.2044
     13  O2B       25.3560   24.4450   38.1490 O.3   1001  IDD1001    -0.2111
     14  O3B       22.8980   23.2080   36.8500 O.3   1001  IDD1001    -0.2171
     15  O4B       22.9120   23.4070   34.0740 O.3   1001  IDD1001    -0.2184
     16  N1B       25.2550   26.1150   35.0080 N.pl3 1001  IDD1001    -0.2749
     17  O6B       23.3330   26.7800   32.9360 O.3   1001  IDD1001    -0.2185
     18  N2B       25.8650   27.0380   36.8640 N.2   1001  IDD1001    -0.3914
     19  C7B       26.3190   27.8060   35.8170 C.2   1001  IDD1001     0.1302
     20  C8B       25.9600   27.2630   34.6280 C.3   1001  IDD1001     0.1523
@<TRIPOS>BOND
     1    12    17    1
     2    12    11    1
     3    15    10    1
     4    11    10    1
     5    11    16    1
     6    20    16    1
     7    20    19    1
     8    10     9    1
     9     6     5   ar
    10     6     1   ar
    11    16     7    1
    12     5     4   ar
    13    19     1    1
    14    19    18    2
    15     1     2   ar
    16     9    14    1
    17     9     8    1
    18     7    18    2
    19     7     8    1
    20     4     3   ar
    21     8    13    1
    22     2     3   ar
