@<TRIPOS>MOLECULE
1x39_IDE_A_1.pdb
 22 24 0 0 0
SMALL
GASTEIGER

@<TRIPOS>ATOM
      1  O6B       22.6510   26.5170   33.1080 O.3   1001  IDE1001    -0.2185
      2  C6B       23.4720   25.3790   32.8820 C.3   1001  IDE1001     0.2044
      3  C5B       23.9140   24.8050   34.2320 C.3   1001  IDE1001     0.1410
      4  C4B       22.7560   24.1610   35.0270 C.3   1001  IDE1001     0.2057
      5  O4B       22.1560   23.0940   34.2890 O.3   1001  IDE1001    -0.2184
      6  C3B       23.2210   23.6260   36.4010 C.3   1001  IDE1001     0.2222
      7  O3B       22.1180   23.0050   37.0850 O.3   1001  IDE1001    -0.2171
      8  C2B       23.7610   24.7350   37.3040 C.3   1001  IDE1001     0.2504
      9  O2B       24.6420   24.2380   38.3170 O.3   1001  IDE1001    -0.2111
     10  N1B       24.5190   25.7940   35.1680 N.pl3 1001  IDE1001    -0.2751
     11  C8B       25.2310   26.9130   34.7290 C.3   1001  IDE1001     0.1495
     12  C7B       25.5850   27.5060   35.8960 C.2   1001  IDE1001     0.1297
     13  N2B       25.1180   26.8060   36.9800 N.2   1001  IDE1001    -0.3939
     14  C1B       24.4670   25.7600   36.5030 C.2   1001  IDE1001     0.1930
     15  C7        26.4020   28.7620   35.8560 C.3   1001  IDE1001     0.1679
     16  N1        27.4730   28.6530   36.8400 N.pl3 1001  IDE1001    -0.2303
     17  C1        28.5890   29.5850   36.7820 C.ar  1001  IDE1001     0.0658
     18  C6        28.3520   30.9350   36.5060 C.ar  1001  IDE1001     0.0161
     19  C5        29.4210   31.8310   36.4510 C.ar  1001  IDE1001     0.0013
     20  C4        30.7210   31.3650   36.6640 C.ar  1001  IDE1001     0.0001
     21  C3        30.9620   30.0140   36.9270 C.ar  1001  IDE1001     0.0013
     22  C2        29.8930   29.1240   36.9920 C.ar  1001  IDE1001     0.0161
@<TRIPOS>BOND
     1     2     1    1
     2     2     3    1
     3     3     4    1
     4     3    10    1
     5     5     4    1
     6    11    10    1
     7    11    12    1
     8     4     6    1
     9    10    14    1
    10    15    12    1
    11    15    16    1
    12    12    13    2
    13     6     7    1
    14     6     8    1
    15    19    18   ar
    16    19    20   ar
    17    14    13    2
    18    14     8    1
    19    18    17   ar
    20    20    21   ar
    21    17    16    1
    22    17    22   ar
    23    21    22   ar
    24     8     9    1
