@<TRIPOS>MOLECULE
1x3k_HEM_A_1.pdb
 43 50 0 0 0
SMALL
GASTEIGER

@<TRIPOS>ATOM
      1 FE          7.0590    4.8540   -1.3070 Fe    1001  HEM1001     0.0000
      2  CHA        4.5960    2.5670   -0.6180 C.2   1001  HEM1001     0.0000
      3  CHB        9.1310    3.3770    1.0400 C.2   1001  HEM1001     0.0000
      4  CHC        9.3510    7.2710   -1.9250 C.2   1001  HEM1001     0.0000
      5  CHD        4.8650    6.4220   -3.6160 C.2   1001  HEM1001     0.0000
      6  NA         6.8970    3.2400   -0.0190 N.2   1001  HEM1001     0.0000
      7  C1A        5.7970    2.4630    0.0840 C.2   1001  HEM1001     0.0000
      8  C2A        6.0610    1.4540    1.0970 C.2   1001  HEM1001     0.0000
      9  C3A        7.3440    1.6720    1.5630 C.2   1001  HEM1001     0.0000
     10  C4A        7.8670    2.8180    0.8470 C.2   1001  HEM1001     0.0000
     11  CMA        8.0760    0.8820    2.6290 C.3   1001  HEM1001     0.0000
     12  CAA        5.0650    0.3800    1.5390 C.3   1001  HEM1001     0.0000
     13  CBA        5.1150   -0.9600    0.8070 C.3   1001  HEM1001     0.0000
     14  CGA        4.6380   -0.8060   -0.6300 C.2   1001  HEM1001     0.0000
     15  O1A        5.5020   -0.4900   -1.4750 O.co2 1001  HEM1001     0.0000
     16  O2A        3.4230   -0.9660   -0.8450 O.co2 1001  HEM1001     0.0000
     17  NB         8.9120    5.2350   -0.5990 N.ar  1001  HEM1001     0.0000
     18  C1B        9.5800    4.5070    0.3500 C.ar  1001  HEM1001     0.0000
     19  C2B       10.8760    5.1270    0.5450 C.ar  1001  HEM1001     0.0000
     20  C3B       10.9380    6.2260   -0.2920 C.ar  1001  HEM1001     0.0000
     21  C4B        9.6720    6.2800   -1.0060 C.ar  1001  HEM1001     0.0000
     22  CMB       11.9480    4.6500    1.5070 C.3   1001  HEM1001     0.0000
     23  CAB       12.0840    7.2190   -0.4550 C.3   1001  HEM1001     0.0000
     24  CBB       12.7920    7.1900   -1.7980 C.3   1001  HEM1001     0.0000
     25  NC         7.1000    6.5260   -2.5450 N.2   1001  HEM1001     0.0000
     26  C1C        8.1670    7.3580   -2.6070 C.2   1001  HEM1001     0.0000
     27  C2C        7.8860    8.4380   -3.5300 C.2   1001  HEM1001     0.0000
     28  C3C        6.6190    8.1920   -4.0140 C.2   1001  HEM1001     0.0000
     29  C4C        6.1150    6.9810   -3.3910 C.2   1001  HEM1001     0.0000
     30  CMC        8.8400    9.5780   -3.8450 C.3   1001  HEM1001     0.0000
     31  CAC        5.8630    9.0610   -5.0250 C.2   1001  HEM1001     0.0000
     32  CBC        5.5350   10.3510   -4.7570 C.2   1001  HEM1001     0.0000
     33  ND         5.0920    4.5300   -2.0120 N.ar  1001  HEM1001     0.0000
     34  C1D        4.4210    5.2820   -2.9480 C.ar  1001  HEM1001     0.0000
     35  C2D        3.1110    4.6880   -3.1300 C.ar  1001  HEM1001     0.0000
     36  C3D        3.0290    3.5970   -2.2720 C.ar  1001  HEM1001     0.0000
     37  C4D        4.3000    3.5240   -1.5740 C.ar  1001  HEM1001     0.0000
     38  CMD        2.0310    5.1760   -4.0700 C.3   1001  HEM1001     0.0000
     39  CAD        1.8410    2.6410   -2.0730 C.3   1001  HEM1001     0.0000
     40  CBD        0.5270    3.3010   -1.6070 C.3   1001  HEM1001     0.0000
     41  CGD       -0.0260    2.8090   -0.2660 C.2   1001  HEM1001     0.0000
     42  O1D        0.6260    1.9550    0.3750 O.co2 1001  HEM1001     0.0000
     43  O2D       -1.1010    3.3190    0.1130 O.co2 1001  HEM1001     0.0000
@<TRIPOS>BOND
     1    31    32    2
     2    31    28    1
     3    38    35    1
     4    28    27    2
     5    28    29    1
     6    30    27    1
     7     5    29    1
     8     5    34    2
     9    27    26    1
    10    29    25    2
    11    35    34   ar
    12    35    36   ar
    13    34    33   ar
    14    26    25    1
    15    26     4    2
    16    25     1    1
    17    36    39    1
    18    36    37   ar
    19    39    40    1
    20    33    37   ar
    21    33     1    1
    22     4    21    1
    23    24    23    1
    24    40    41    1
    25    37     2    2
    26    15    14   ar
    27     1    17    1
    28     1     6    1
    29    21    17   ar
    30    21    20   ar
    31    16    14   ar
    32    14    13    1
    33     2     7    1
    34    17    18   ar
    35    23    20    1
    36    20    19   ar
    37    41    43   ar
    38    41    42   ar
    39     6     7    2
    40     6    10    1
    41     7     8    1
    42    18    19   ar
    43    18     3    1
    44    19    22    1
    45    13    12    1
    46    10     3    2
    47    10     9    1
    48     8    12    1
    49     8     9    2
    50     9    11    1
