@<TRIPOS>MOLECULE
1x3n_ANP_A_1.pdb
 31 33 0 0 0
SMALL
GASTEIGER

@<TRIPOS>ATOM
      1  PG        13.1050   41.7240   51.0570 P.3   404  ANP404      0.4884
      2  O1G       13.1990   41.2830   49.4840 O.2   404  ANP404     -0.2331
      3  O2G       12.1340   40.5650   51.7260 O.3   404  ANP404     -0.1240
      4  O3G       12.3890   43.2150   51.2320 O.3   404  ANP404     -0.1240
      5  PB        13.9770   41.7250   53.8920 P.3   404  ANP404      0.4669
      6  O1B       13.3670   40.2840   54.3600 O.3   404  ANP404     -0.1253
      7  O2B       12.7400   42.7890   54.2110 O.2   404  ANP404     -0.2351
      8  N3B       14.4000   41.7330   52.1830 N.3   404  ANP404     -0.0163
      9  PA        16.2390   43.4610   54.9120 P.3   404  ANP404      0.2220
     10  O1A       16.1140   44.5940   53.9060 O.2   404  ANP404     -0.5170
     11  O2A       15.9100   43.9540   56.3770 O.3   404  ANP404     -0.4370
     12  O3A       15.2360   42.1980   54.8390 O.3   404  ANP404     -0.2360
     13  O5'       17.7360   42.7640   54.9380 O.3   404  ANP404     -0.3111
     14  C5'       18.1230   41.6360   55.8450 C.3   404  ANP404      0.1813
     15  C4'       19.4580   41.3380   55.5170 C.3   404  ANP404      0.1821
     16  O4'       20.5280   42.3980   55.6280 O.3   404  ANP404     -0.3135
     17  C3'       20.2100   40.1390   56.2980 C.3   404  ANP404      0.2184
     18  O3'       20.9740   39.3680   55.3250 O.3   404  ANP404     -0.2174
     19  C2'       21.1110   40.7500   57.2460 C.3   404  ANP404      0.2570
     20  O2'       22.2490   39.9460   57.6580 O.3   404  ANP404     -0.2130
     21  C1'       21.5050   42.0350   56.6200 C.3   404  ANP404      0.3186
     22  N9        21.8030   42.8140   57.6280 N.pl3 404  ANP404     -0.1439
     23  C8        20.8430   43.3530   58.6060 C.3   404  ANP404      0.3377
     24  N7        21.4550   44.1300   59.5690 N.2   404  ANP404     -0.2095
     25  C5        22.8700   44.0940   59.2040 C.2   404  ANP404      0.2526
     26  C6        24.2030   44.6720   59.7230 C.2   404  ANP404      0.4393
     27  N6        24.2860   45.4680   60.8500 N.pl3 404  ANP404      0.2180
     28  N1        25.5000   44.3710   58.9940 N.2   404  ANP404      0.0021
     29  C2        25.4900   43.5640   57.8340 C.3   404  ANP404      0.5254
     30  N3        24.3330   43.0080   57.3070 N.2   404  ANP404     -0.0055
     31  C4        23.0660   43.3030   58.0170 C.2   404  ANP404      0.3518
@<TRIPOS>BOND
     1     2     1    2
     2     1     4    1
     3     1     3    1
     4     1     8    1
     5     8     5    1
     6     5     7    2
     7     5     6    1
     8     5    12    1
     9    10     9    2
    10    12     9    1
    11     9    13    1
    12     9    11    1
    13    13    14    1
    14    18    17    1
    15    15    16    1
    16    15    14    1
    17    15    17    1
    18    16    21    1
    19    17    19    1
    20    21    19    1
    21    21    22    1
    22    19    20    1
    23    30    29    1
    24    30    31    2
    25    22    31    1
    26    22    23    1
    27    29    28    1
    28    31    25    1
    29    23    24    1
    30    28    26    2
    31    25    24    2
    32    25    26    1
    33    26    27    1
