@<TRIPOS>MOLECULE
1x3s_GNP_A_1.pdb
 32 34 0 0 0
SMALL
GASTEIGER

@<TRIPOS>ATOM
      1  PG        23.0310   29.9560   15.2910 P.3   300  GNP300      0.4884
      2  O1G       23.0280   30.4160   13.8440 O.2   300  GNP300     -0.2331
      3  O2G       23.3580   28.4610   15.3680 O.3   300  GNP300     -0.1240
      4  O3G       21.7540   30.3600   15.9810 O.3   300  GNP300     -0.1240
      5  N3B       24.2900   30.8810   15.9900 N.3   300  GNP300     -0.0163
      6  PB        24.8430   30.5400   17.5630 P.3   300  GNP300      0.4669
      7  O1B       24.0810   31.4150   18.5120 O.3   300  GNP300     -0.1253
      8  O2B       24.8620   29.0540   17.8960 O.2   300  GNP300     -0.2351
      9  O3A       26.3350   31.1170   17.4400 O.3   300  GNP300     -0.2360
     10  PA        27.7350   30.3250   17.4480 P.3   300  GNP300      0.2220
     11  O1A       28.0180   29.6190   18.6840 O.3   300  GNP300     -0.4370
     12  O2A       27.7270   29.5100   16.1590 O.2   300  GNP300     -0.5170
     13  O5'       28.7750   31.5390   17.3460 O.3   300  GNP300     -0.3111
     14  C5'       28.7200   32.4400   16.1600 C.3   300  GNP300      0.1813
     15  C4'       30.1670   33.0390   15.9540 C.3   300  GNP300      0.1799
     16  O4'       30.5110   33.7640   17.1610 O.3   300  GNP300     -0.3326
     17  C3'       31.0860   31.9140   15.8290 C.3   300  GNP300      0.2158
     18  O3'       32.1260   32.1990   14.8070 O.3   300  GNP300     -0.2175
     19  C2'       31.8490   31.7430   17.1410 C.3   300  GNP300      0.2310
     20  O2'       33.2300   31.4670   17.0900 O.3   300  GNP300     -0.2158
     21  C1'       31.6380   33.1680   17.7300 C.3   300  GNP300      0.2293
     22  N9        31.5550   33.2740   19.1650 N.pl3 300  GNP300     -0.2354
     23  C8        30.6900   32.5390   19.9840 C.3   300  GNP300      0.2246
     24  N7        30.8500   32.8810   21.2150 N.2   300  GNP300     -0.2322
     25  C5        31.8190   33.8450   21.2630 C.2   300  GNP300      0.2182
     26  C6        32.3960   34.5680   22.3080 C.1   300  GNP300      0.2372
     27  O6        32.1180   34.4190   23.5040 O.2   300  GNP300     -0.2069
     28  N1        33.3520   35.4790   21.9750 N.2   300  GNP300     -0.2485
     29  C2        33.7390   35.6890   20.6700 C.1   300  GNP300      0.2531
     30  N2        34.6990   36.6420   20.4470 N.pl3 300  GNP300     -0.0226
     31  N3        33.2150   35.0160   19.6490 N.2   300  GNP300     -0.3074
     32  C4        32.2550   34.0910   19.9310 C.2   300  GNP300      0.2300
@<TRIPOS>BOND
     1     2     1    2
     2    18    17    1
     3     1     3    1
     4     1     4    1
     5     1     5    1
     6    17    15    1
     7    17    19    1
     8    15    14    1
     9    15    16    1
    10     5     6    1
    11    12    10    2
    12    14    13    1
    13    20    19    1
    14    19    21    1
    15    16    21    1
    16    13    10    1
    17     9    10    1
    18     9     6    1
    19    10    11    1
    20     6     8    2
    21     6     7    1
    22    21    22    1
    23    22    32    1
    24    22    23    1
    25    31    32    2
    26    31    29    2
    27    32    25    1
    28    23    24    1
    29    30    29    1
    30    29    28    2
    31    24    25    2
    32    25    26    1
    33    28    26    2
    34    26    27    2
