@<TRIPOS>MOLECULE
1x3w_SUC_A_1.pdb
 23 24 0 0 0
SMALL
GASTEIGER

@<TRIPOS>ATOM
      1  C1        75.0410   34.6340   80.3770 C.3   1001  SUC1001     0.2713
      2  C2        75.2210   33.4400   81.3130 C.3   1001  SUC1001     0.2406
      3  C3        76.6290   33.5610   81.9130 C.3   1001  SUC1001     0.2198
      4  C4        77.7010   33.6600   80.7840 C.3   1001  SUC1001     0.2144
      5  C5        77.3970   34.8770   79.8860 C.3   1001  SUC1001     0.1835
      6  C6        78.3930   35.1450   78.7590 C.3   1001  SUC1001     0.2142
      7  O1        75.0610   35.8120   81.1920 O.3   1001  SUC1001    -0.3033
      8  O2        74.1990   33.4210   82.3280 O.3   1001  SUC1001    -0.2149
      9  O3        76.8300   32.5080   82.8730 O.3   1001  SUC1001    -0.2174
     10  O4        79.0490   33.7390   81.2850 O.3   1001  SUC1001    -0.2176
     11  O5        76.0730   34.7100   79.3570 O.3   1001  SUC1001    -0.3256
     12  O6        78.7690   36.5270   78.8240 O.3   1001  SUC1001    -0.2176
     13  C1'       72.9720   36.5560   80.1840 C.3   1001  SUC1001     0.2406
     14  C2'       74.4160   36.9330   80.5820 C.3   1001  SUC1001     0.2516
     15  C3'       74.4320   38.0650   81.6080 C.3   1001  SUC1001     0.2381
     16  C4'       74.9850   39.2800   80.8720 C.3   1001  SUC1001     0.2167
     17  C5'       75.1720   38.8510   79.4050 C.3   1001  SUC1001     0.1835
     18  C6'       76.4320   39.3790   78.7080 C.3   1001  SUC1001     0.2142
     19  O1'       72.7960   36.4040   78.7610 O.3   1001  SUC1001    -0.2149
     20  O2'       75.1580   37.4160   79.4300 O.3   1001  SUC1001    -0.3272
     21  O3'       75.2080   37.7080   82.7640 O.3   1001  SUC1001    -0.2150
     22  O4'       74.0240   40.3360   81.0020 O.3   1001  SUC1001    -0.2175
     23  O6'       77.3970   38.3200   78.4970 O.3   1001  SUC1001    -0.2176
@<TRIPOS>BOND
     1    23    18    1
     2    18    17    1
     3     6    12    1
     4     6     5    1
     5    19    13    1
     6    11     5    1
     7    11     1    1
     8    17    20    1
     9    17    16    1
    10    20    14    1
    11     5     4    1
    12    13    14    1
    13     1     7    1
    14     1     2    1
    15    14     7    1
    16    14    15    1
    17     4    10    1
    18     4     3    1
    19    16    22    1
    20    16    15    1
    21     2     3    1
    22     2     8    1
    23    15    21    1
    24     3     9    1
