@<TRIPOS>MOLECULE
1x3x_HEM_A_1.pdb
 43 50 0 0 0
SMALL
GASTEIGER

@<TRIPOS>ATOM
      1 FE         13.0230    4.2650    1.6840 Fe    201  HEM201      0.0000
      2  CHA       15.4890    6.5710    1.0800 C.2   201  HEM201      0.0000
      3  CHB       12.6360    5.5920    4.8600 C.2   201  HEM201      0.0000
      4  CHC       10.5190    2.0100    2.3590 C.2   201  HEM201      0.0000
      5  CHD       13.3950    2.9770   -1.4230 C.2   201  HEM201      0.0000
      6  NA        13.8910    5.7960    2.7700 N.2   201  HEM201      0.0000
      7  C1A       14.8980    6.6360    2.3260 C.2   201  HEM201      0.0000
      8  C2A       15.2340    7.5990    3.3790 C.2   201  HEM201      0.0000
      9  C3A       14.4260    7.3160    4.4430 C.2   201  HEM201      0.0000
     10  C4A       13.5930    6.1840    4.0480 C.2   201  HEM201      0.0000
     11  CMA       14.3690    8.0080    5.7850 C.3   201  HEM201      0.0000
     12  CAA       16.2830    8.6850    3.2720 C.3   201  HEM201      0.0000
     13  CBA       15.6630   10.0230    2.8590 C.3   201  HEM201      0.0000
     14  CGA       16.6170   11.2080    2.7150 C.2   201  HEM201      0.0000
     15  O1A       16.3200   12.1180    1.8980 O.co2 201  HEM201      0.0000
     16  O2A       17.6600   11.2270    3.4190 O.co2 201  HEM201      0.0000
     17  NB        11.8100    3.8790    3.3170 N.ar  201  HEM201      0.0000
     18  C1B       11.8150    4.5320    4.5350 C.ar  201  HEM201      0.0000
     19  C2B       10.8230    3.9420    5.4260 C.ar  201  HEM201      0.0000
     20  C3B       10.2270    2.9360    4.7130 C.ar  201  HEM201      0.0000
     21  C4B       10.8480    2.9050    3.3980 C.ar  201  HEM201      0.0000
     22  CMB       10.5450    4.3880    6.8420 C.3   201  HEM201      0.0000
     23  CAB        9.1490    2.0090    5.1240 C.2   201  HEM201      0.0000
     24  CBB        7.8630    2.2830    5.2680 C.2   201  HEM201      0.0000
     25  NC        12.0950    2.7360    0.6460 N.2   201  HEM201      0.0000
     26  C1C       11.0880    1.9330    1.0950 C.2   201  HEM201      0.0000
     27  C2C       10.7050    1.0000    0.0390 C.2   201  HEM201      0.0000
     28  C3C       11.5120    1.2660   -1.0360 C.2   201  HEM201      0.0000
     29  C4C       12.3980    2.3750   -0.6330 C.2   201  HEM201      0.0000
     30  CMC        9.6120   -0.0360    0.1780 C.3   201  HEM201      0.0000
     31  CAC       11.5250    0.6000   -2.3620 C.2   201  HEM201      0.0000
     32  CBC       11.2120    1.1530   -3.5330 C.2   201  HEM201      0.0000
     33  ND        14.2470    4.7070    0.1140 N.ar  201  HEM201      0.0000
     34  C1D       14.2480    4.0410   -1.0930 C.ar  201  HEM201      0.0000
     35  C2D       15.2640    4.6130   -1.9620 C.ar  201  HEM201      0.0000
     36  C3D       15.8540    5.6350   -1.2490 C.ar  201  HEM201      0.0000
     37  C4D       15.1990    5.6820    0.0500 C.ar  201  HEM201      0.0000
     38  CMD       15.5870    4.1560   -3.3660 C.3   201  HEM201      0.0000
     39  CAD       16.9690    6.5360   -1.7160 C.3   201  HEM201      0.0000
     40  CBD       18.3570    6.0080   -1.2800 C.3   201  HEM201      0.0000
     41  CGD       19.4770    6.9410   -1.7540 C.2   201  HEM201      0.0000
     42  O1D       19.2390    8.1680   -1.9410 O.co2 201  HEM201      0.0000
     43  O2D       20.6130    6.4100   -1.9170 O.co2 201  HEM201      0.0000
@<TRIPOS>BOND
     1    32    31    2
     2    38    35    1
     3    31    28    1
     4    35    36   ar
     5    35    34   ar
     6    42    41   ar
     7    43    41   ar
     8    41    40    1
     9    39    40    1
    10    39    36    1
    11     5    34    2
    12     5    29    1
    13    36    37   ar
    14    34    33   ar
    15    28    29    1
    16    28    27    2
    17    29    25    2
    18    27    30    1
    19    27    26    1
    20    37    33   ar
    21    37     2    2
    22    33     1    1
    23    25    26    1
    24    25     1    1
    25     2     7    1
    26    26     4    2
    27     1     6    1
    28     1    17    1
    29    15    14   ar
    30     7     6    2
    31     7     8    1
    32     4    21    1
    33    14    13    1
    34    14    16   ar
    35     6    10    1
    36    13    12    1
    37    12     8    1
    38    17    21   ar
    39    17    18   ar
    40     8     9    2
    41    21    20   ar
    42    10     9    1
    43    10     3    2
    44     9    11    1
    45    18     3    1
    46    18    19   ar
    47    20    23    1
    48    20    19   ar
    49    23    24    2
    50    19    22    1
