@<TRIPOS>MOLECULE
1x3z_SUC_A_1.pdb
 23 24 0 0 0
SMALL
GASTEIGER

@<TRIPOS>ATOM
      1  C1        75.3120   36.3190   79.5820 C.3   1001  SUC1001     0.2713
      2  C2        75.3550   34.8530   79.9930 C.3   1001  SUC1001     0.2406
      3  C3        76.4870   34.6630   80.9760 C.3   1001  SUC1001     0.2198
      4  C4        77.7810   34.9650   80.2410 C.3   1001  SUC1001     0.2144
      5  C5        77.8120   36.4210   79.7640 C.3   1001  SUC1001     0.1835
      6  C6        78.9740   36.5960   78.7830 C.3   1001  SUC1001     0.2142
      7  O1        74.8340   37.0670   80.6960 O.3   1001  SUC1001    -0.3033
      8  O2        74.1340   34.5070   80.6390 O.3   1001  SUC1001    -0.2149
      9  O3        76.4700   33.3300   81.4820 O.3   1001  SUC1001    -0.2174
     10  O4        78.8870   34.7120   81.1080 O.3   1001  SUC1001    -0.2176
     11  O5        76.5810   36.8430   79.1380 O.3   1001  SUC1001    -0.3256
     12  O6        78.7690   37.7270   77.9320 O.3   1001  SUC1001    -0.2176
     13  C1'       72.4350   37.1580   80.2500 C.3   1001  SUC1001     0.2406
     14  C2'       73.7340   37.9310   80.4180 C.3   1001  SUC1001     0.2516
     15  C3'       73.5990   38.8970   81.5790 C.3   1001  SUC1001     0.2381
     16  C4'       74.2390   40.1790   81.0980 C.3   1001  SUC1001     0.2167
     17  C5'       74.2210   40.0790   79.5730 C.3   1001  SUC1001     0.1835
     18  C6'       75.5200   40.5250   78.9250 C.3   1001  SUC1001     0.2142
     19  O1'       72.0670   37.1080   78.8700 O.3   1001  SUC1001    -0.2149
     20  O2'       73.9960   38.7080   79.2460 O.3   1001  SUC1001    -0.3272
     21  O3'       74.2900   38.3970   82.7220 O.3   1001  SUC1001    -0.2150
     22  O4'       73.4900   41.2970   81.5920 O.3   1001  SUC1001    -0.2175
     23  O6'       76.0930   39.4320   78.2080 O.3   1001  SUC1001    -0.2176
@<TRIPOS>BOND
     1    12     6    1
     2    23    18    1
     3     6     5    1
     4    19    13    1
     5    18    17    1
     6    11     1    1
     7    11     5    1
     8    20    17    1
     9    20    14    1
    10    17    16    1
    11     1     2    1
    12     1     7    1
    13     5     4    1
    14     2     8    1
    15     2     3    1
    16     4     3    1
    17     4    10    1
    18    13    14    1
    19    14     7    1
    20    14    15    1
    21     3     9    1
    22    16    15    1
    23    16    22    1
    24    15    21    1
