@<TRIPOS>MOLECULE
1x3z_III_I_1.pdb
 21 20 0 0 0
SMALL
GASTEIGER

@<TRIPOS>ATOM
      1  N         62.9980   46.6860   85.2550 N.3     1  VAL1       -0.1231
      2  CA        63.9010   45.6240   85.8480 C.3     1  VAL1        0.1692
      3  C         64.9550   45.0790   84.8480 C.2     1  VAL1        0.2592
      4  O         64.6060   44.7040   83.7230 O.2     1  VAL1       -0.2718
      5  CB        63.0820   44.4540   86.5040 C.3     1  VAL1        0.0266
      6  CG1       62.0820   43.9040   85.5390 C.3     1  VAL1        0.0020
      7  CG2       63.9960   43.3360   87.0050 C.3     1  VAL1        0.0020
      8  N         66.2220   45.0220   85.2760 N.am    2  ALA2       -0.1966
      9  CA        67.3670   44.7470   84.3790 C.3     2  ALA2        0.1728
     10  C         67.5540   43.2860   83.9650 C.2     2  ALA2        0.2616
     11  O         67.2570   42.3790   84.7260 O.2     2  ALA2       -0.2715
     12  CB        68.6520   45.2820   84.9900 C.3     2  ALA2        0.0334
     13  N         68.0650   43.0680   82.7560 N.am    3  ASP3       -0.1976
     14  CA        68.2850   41.7140   82.2450 C.3     3  ASP3        0.1635
     15  C         69.6940   41.2230   82.5370 C.2     3  ASP3        0.1713
     16  O         70.4680   41.0090   81.5910 O.2     3  ASP3       -0.2942
     17  CB        68.0300   41.6560   80.7410 C.3     3  ASP3        0.1432
     18  CG        66.5720   41.8220   80.3960 C.2     3  ASP3        0.3671
     19  OD1       66.2690   42.6880   79.5410 O.co2   3  ASP3       -0.2456
     20  OD2       65.7350   41.1060   80.9900 O.co2   3  ASP3       -0.2456
     21  C1        70.0780   41.0290   83.7080 C.3     4  CF04        0.0741
@<TRIPOS>BOND
     1    19    18   ar
     2    18    17    1
     3    18    20   ar
     4    17    14    1
     5    16    15    2
     6    14    15    1
     7    14    13    1
     8    15    21    1
     9    13    10   am
    10     4     3    2
    11    10     9    1
    12    10    11    2
    13     9    12    1
    14     9     8    1
    15     3     8   am
    16     3     2    1
    17     1     2    1
    18     6     5    1
    19     2     5    1
    20     5     7    1
