@<TRIPOS>MOLECULE
1x46_HEM_A_1.pdb
 43 50 0 0 0
SMALL
GASTEIGER

@<TRIPOS>ATOM
      1 FE          7.7670    5.3240   14.8170 Fe    151  HEM151      0.0000
      2  CHA        9.0020    3.3780   17.3550 C.2   151  HEM151      0.0000
      3  CHB        6.4440    7.4910   17.1330 C.2   151  HEM151      0.0000
      4  CHC        6.5020    7.2380   12.2970 C.2   151  HEM151      0.0000
      5  CHD        9.0360    3.1300   12.4900 C.2   151  HEM151      0.0000
      6  NA         7.7680    5.4310   16.8460 N.2   151  HEM151      0.0000
      7  C1A        8.2550    4.4680   17.7010 C.2   151  HEM151      0.0000
      8  C2A        7.9180    4.8400   19.0580 C.2   151  HEM151      0.0000
      9  C3A        7.2150    5.9650   18.9750 C.2   151  HEM151      0.0000
     10  C4A        7.1210    6.3850   17.6050 C.2   151  HEM151      0.0000
     11  CMA        6.6300    6.7520   20.1690 C.3   151  HEM151      0.0000
     12  CAA        8.2270    3.9940   20.3340 C.3   151  HEM151      0.0000
     13  CBA        9.6730    4.0660   20.8660 C.3   151  HEM151      0.0000
     14  CGA        9.9810    5.4580   21.3630 C.2   151  HEM151      0.0000
     15  O1A       10.9360    6.0810   20.8580 O.co2 151  HEM151      0.0000
     16  O2A        9.2660    5.9600   22.2760 O.co2 151  HEM151      0.0000
     17  NB         6.6680    7.0110   14.7420 N.ar  151  HEM151      0.0000
     18  C1B        6.1860    7.7640   15.8170 C.ar  151  HEM151      0.0000
     19  C2B        5.4120    8.8630   15.2890 C.ar  151  HEM151      0.0000
     20  C3B        5.4290    8.7890   13.9390 C.ar  151  HEM151      0.0000
     21  C4B        6.2460    7.6400   13.5970 C.ar  151  HEM151      0.0000
     22  CMB        4.6840    9.9050   16.1820 C.3   151  HEM151      0.0000
     23  CAB        4.7770    9.6700   12.8490 C.2   151  HEM151      0.0000
     24  CBB        4.1390   10.8170   13.0830 C.2   151  HEM151      0.0000
     25  NC         7.7660    5.2150   12.7790 N.2   151  HEM151      0.0000
     26  C1C        7.1780    6.1160   11.9100 C.2   151  HEM151      0.0000
     27  C2C        7.4240    5.6590   10.5450 C.2   151  HEM151      0.0000
     28  C3C        8.0930    4.5090   10.6020 C.2   151  HEM151      0.0000
     29  C4C        8.3430    4.2100   11.9980 C.2   151  HEM151      0.0000
     30  CMC        6.9690    6.4100    9.2690 C.3   151  HEM151      0.0000
     31  CAC        8.5840    3.6440    9.4120 C.2   151  HEM151      0.0000
     32  CBC        8.0170    2.6310    9.0280 C.2   151  HEM151      0.0000
     33  ND         8.8450    3.6200   14.8990 N.ar  151  HEM151      0.0000
     34  C1D        9.2940    2.8670   13.8060 C.ar  151  HEM151      0.0000
     35  C2D       10.0420    1.7250   14.2640 C.ar  151  HEM151      0.0000
     36  C3D       10.0380    1.8090   15.7600 C.ar  151  HEM151      0.0000
     37  C4D        9.2450    2.9760   16.0640 C.ar  151  HEM151      0.0000
     38  CMD       10.7070    0.6510   13.3790 C.3   151  HEM151      0.0000
     39  CAD       10.7110    0.8070   16.7320 C.3   151  HEM151      0.0000
     40  CBD        9.8160   -0.4060   16.9630 C.3   151  HEM151      0.0000
     41  CGD       10.5360   -1.4360   17.8120 C.2   151  HEM151      0.0000
     42  O1D       11.4940   -1.0780   18.5350 O.co2 151  HEM151      0.0000
     43  O2D       10.1610   -2.6300   17.7410 O.co2 151  HEM151      0.0000
@<TRIPOS>BOND
     1    32    31    2
     2    30    27    1
     3    31    28    1
     4    27    28    2
     5    27    26    1
     6    28    29    1
     7    26     4    2
     8    26    25    1
     9    29     5    1
    10    29    25    2
    11     4    21    1
    12     5    34    2
    13    25     1    1
    14    23    24    2
    15    23    20    1
    16    38    35    1
    17    21    20   ar
    18    21    17   ar
    19    34    35   ar
    20    34    33   ar
    21    20    19   ar
    22    35    36   ar
    23    17     1    1
    24    17    18   ar
    25     1    33    1
    26     1     6    1
    27    33    37   ar
    28    19    18   ar
    29    19    22    1
    30    36    37   ar
    31    36    39    1
    32    18     3    1
    33    37     2    2
    34    39    40    1
    35     6    10    1
    36     6     7    2
    37    40    41    1
    38     3    10    2
    39     2     7    1
    40    10     9    1
    41     7     8    1
    42    43    41   ar
    43    41    42   ar
    44     9     8    2
    45     9    11    1
    46     8    12    1
    47    12    13    1
    48    15    14   ar
    49    13    14    1
    50    14    16   ar
