@<TRIPOS>MOLECULE
1x54_4AD_A_1.pdb
 31 33 0 0 0
SMALL
GASTEIGER

@<TRIPOS>ATOM
      1  O2P       -1.4200    8.7700   41.9400 O.3   2001  4AD2001    -0.4273
      2  P         -2.7910    9.3050   41.6800 P.3   2001  4AD2001     0.2723
      3  O1P       -3.0030   10.7830   41.5020 O.2   2001  4AD2001    -0.5082
      4  O3P       -3.6610    8.7890   42.9430 O.3   2001  4AD2001    -0.4091
      5  C         -5.0610    9.0020   43.1560 C.2   2001  4AD2001     0.3390
      6  O         -5.7540    9.7200   42.4280 O.2   2001  4AD2001    -0.2482
      7  CA        -5.5850    8.2780   44.3480 C.3   2001  4AD2001     0.1994
      8  N         -6.7220    8.9920   44.8970 N.3   2001  4AD2001    -0.1204
      9  CB        -5.9580    6.8900   43.8250 C.3   2001  4AD2001     0.1189
     10  CG        -6.5170    6.0440   44.9410 C.2   2001  4AD2001     0.2628
     11  OD1       -5.8280    5.7770   45.9180 O.2   2001  4AD2001    -0.2716
     12  ND2       -7.7720    5.6120   44.7840 N.am  2001  4AD2001    -0.0877
     13  O5'       -3.4880    8.5790   40.4250 O.3   2001  4AD2001    -0.3024
     14  C5'       -3.6060    7.1510   40.3880 C.3   2001  4AD2001     0.1823
     15  C4'       -3.0980    6.6980   39.0260 C.3   2001  4AD2001     0.1822
     16  C3'       -1.6330    7.0330   38.7400 C.3   2001  4AD2001     0.2184
     17  O3'       -0.7690    6.0260   39.2840 O.3   2001  4AD2001    -0.2174
     18  C2'       -1.5940    7.0350   37.2290 C.3   2001  4AD2001     0.2570
     19  O2'       -1.5150    5.6740   36.7700 O.3   2001  4AD2001    -0.2130
     20  C1'       -2.9610    7.5720   36.8560 C.3   2001  4AD2001     0.3186
     21  O4'       -3.8140    7.3670   37.9810 O.3   2001  4AD2001    -0.3135
     22  N9        -2.9370    9.0040   36.4540 N.pl3 2001  4AD2001    -0.1439
     23  C4        -2.9830    9.5040   35.2300 C.2   2001  4AD2001     0.3518
     24  N3        -3.0560    8.9000   34.0270 N.2   2001  4AD2001    -0.0055
     25  C2        -3.1030    9.6680   32.9280 C.3   2001  4AD2001     0.5254
     26  N1        -3.0660   11.0100   33.0290 N.2   2001  4AD2001     0.0021
     27  C6        -2.9740   11.6670   34.2160 C.2   2001  4AD2001     0.4393
     28  N6        -2.9500   13.0240   34.2400 N.pl3 2001  4AD2001     0.2180
     29  C5        -2.9290   10.9060   35.3870 C.2   2001  4AD2001     0.2526
     30  N7        -2.8460   11.2410   36.7150 N.2   2001  4AD2001    -0.2095
     31  C8        -2.8440   10.0030   37.5020 C.3   2001  4AD2001     0.3377
@<TRIPOS>BOND
     1    25    26    1
     2    25    24    1
     3    26    27    2
     4    24    23    2
     5    27    28    1
     6    27    29    1
     7    23    29    1
     8    23    22    1
     9    29    30    2
    10    22    20    1
    11    22    31    1
    12    30    31    1
    13    19    18    1
    14    20    18    1
    15    20    21    1
    16    18    16    1
    17    21    15    1
    18    16    15    1
    19    16    17    1
    20    15    14    1
    21    14    13    1
    22    13     2    1
    23     3     2    2
    24     2     1    1
    25     2     4    1
    26     6     5    2
    27     4     5    1
    28     5     7    1
    29     9     7    1
    30     9    10    1
    31     7     8    1
    32    12    10   am
    33    10    11    2
