@<TRIPOS>MOLECULE
1x55_NSS_A_1.pdb
 31 33 0 0 0
SMALL
GASTEIGER

@<TRIPOS>ATOM
      1  OAX       -3.0090   10.8110   41.4840 O.3   3002  NSS3002    -0.0508
      2  SBE       -2.9200    9.3950   41.6360 S.3   3002  NSS3002     0.0852
      3  OAY       -1.6060    8.8410   41.7460 O.3   3002  NSS3002    -0.0508
      4  NAT       -3.7820    8.8660   42.8570 N.am  3002  NSS3002    -0.0576
      5  C         -5.0860    9.0400   43.0810 C.2   3002  NSS3002     0.2803
      6  O         -5.8200    9.6880   42.3640 O.2   3002  NSS3002    -0.2701
      7  CA        -5.6500    8.3320   44.2880 C.3   3002  NSS3002     0.1801
      8  N         -6.8220    9.0600   44.7600 N.3   3002  NSS3002    -0.1225
      9  CB        -6.0570    6.9280   43.8120 C.3   3002  NSS3002     0.1169
     10  CG        -6.6340    6.0470   44.9020 C.2   3002  NSS3002     0.2627
     11  OD1       -5.9890    5.7040   45.8870 O.2   3002  NSS3002    -0.2716
     12  ND2       -7.9070    5.6660   44.7180 N.am  3002  NSS3002    -0.0877
     13  O5'       -3.6500    8.7110   40.3380 O.3   3002  NSS3002    -0.2230
     14  C5'       -3.6780    7.2670   40.3430 C.3   3002  NSS3002     0.2064
     15  C4'       -3.1820    6.7670   39.0010 C.3   3002  NSS3002     0.1842
     16  C3'       -1.7040    7.1200   38.7410 C.3   3002  NSS3002     0.2185
     17  O3'       -0.8440    6.1220   39.3240 O.3   3002  NSS3002    -0.2174
     18  C2'       -1.6500    7.1340   37.2300 C.3   3002  NSS3002     0.2570
     19  O2'       -1.6150    5.7710   36.7310 O.3   3002  NSS3002    -0.2130
     20  C1'       -3.0180    7.6740   36.8550 C.3   3002  NSS3002     0.3186
     21  O4'       -3.9190    7.4000   37.9390 O.3   3002  NSS3002    -0.3135
     22  N9        -3.0240    9.1310   36.4690 N.pl3 3002  NSS3002    -0.1439
     23  C4        -3.1280    9.6220   35.2450 C.2   3002  NSS3002     0.3518
     24  N3        -3.2390    9.0560   34.0270 N.2   3002  NSS3002    -0.0055
     25  C2        -3.3340    9.8410   32.9350 C.3   3002  NSS3002     0.5254
     26  N1        -3.3150   11.1700   33.0360 N.2   3002  NSS3002     0.0021
     27  C6        -3.2050   11.7940   34.2350 C.2   3002  NSS3002     0.4393
     28  N6        -3.2190   13.1560   34.2780 N.pl3 3002  NSS3002     0.2180
     29  C5        -3.0970   11.0170   35.3950 C.2   3002  NSS3002     0.2526
     30  N7        -3.0050   11.3580   36.7160 N.2   3002  NSS3002    -0.2095
     31  C8        -2.9420   10.1410   37.5160 C.3   3002  NSS3002     0.3377
@<TRIPOS>BOND
     1    25    26    1
     2    25    24    1
     3    26    27    2
     4    24    23    2
     5    27    28    1
     6    27    29    1
     7    23    29    1
     8    23    22    1
     9    29    30    2
    10    22    20    1
    11    22    31    1
    12    30    31    1
    13    19    18    1
    14    20    18    1
    15    20    21    1
    16    18    16    1
    17    21    15    1
    18    16    15    1
    19    16    17    1
    20    15    14    1
    21    13    14    1
    22    13     2    1
    23     1     2    1
    24     2     3    1
    25     2     4    1
    26     6     5    2
    27     4     5   am
    28     5     7    1
    29     9     7    1
    30     9    10    1
    31     7     8    1
    32    12    10   am
    33    10    11    2
