@<TRIPOS>MOLECULE
1x6n_AO3_A_1.pdb
 43 46 0 0 0
SMALL
GASTEIGER

@<TRIPOS>ATOM
      1  C1        -2.6470   34.4650   66.2050 C.3   564  AO3564      0.2586
      2  C2        -2.5600   34.0000   64.7330 C.3   564  AO3564      0.1842
      3  C3        -1.3390   33.2040   64.3920 C.3   564  AO3564      0.2094
      4  C4        -0.1080   33.9700   64.9390 C.3   564  AO3564      0.2136
      5  C5        -0.2510   34.3530   66.4230 C.3   564  AO3564      0.1834
      6  C6         0.8920   35.1140   67.1460 C.3   564  AO3564      0.2142
      7  C7        -4.6100   33.5180   63.5160 C.2   564  AO3564      0.2420
      8  C8        -5.7710   32.6360   63.2030 C.3   564  AO3564      0.0964
      9  N2        -3.6990   33.1550   64.4170 N.am  564  AO3564     -0.1992
     10  O3        -1.4000   31.9110   64.9770 O.3   564  AO3564     -0.2183
     11  O4         1.0250   33.1390   64.7910 O.3   564  AO3564     -0.2176
     12  O5        -1.4470   35.1850   66.5930 O.3   564  AO3564     -0.3262
     13  O6         0.5650   35.3720   68.5190 O.3   564  AO3564     -0.2176
     14  O7        -4.4940   34.5720   62.9120 O.2   564  AO3564     -0.2733
     15  C11       -6.4050   36.0090   69.5500 C.3   564  AO3564      0.2585
     16  C12       -4.9930   35.5440   70.0050 C.3   564  AO3564      0.1841
     17  C13       -3.9340   35.8150   68.9020 C.3   564  AO3564      0.2062
     18  C14       -4.4920   35.0870   67.5940 C.3   564  AO3564      0.1795
     19  C15       -5.9090   35.5800   67.2710 C.3   564  AO3564      0.1803
     20  C16       -6.6590   35.0070   66.0510 C.3   564  AO3564      0.2141
     21  C17       -4.4410   35.7360   72.4060 C.2   564  AO3564      0.2420
     22  C18       -4.3810   36.7090   73.5760 C.3   564  AO3564      0.0964
     23  N12       -4.6610   36.3000   71.2190 N.am  564  AO3564     -0.1992
     24  O13       -3.7320   37.2140   68.6310 O.3   564  AO3564     -0.2184
     25  O14       -3.6610   35.3640   66.4300 O.3   564  AO3564     -0.3264
     26  O15       -6.7830   35.3330   68.3770 O.3   564  AO3564     -0.3263
     27  O16       -7.9830   35.6010   65.9030 O.3   564  AO3564     -0.2176
     28  O17       -4.2990   34.5030   72.5570 O.2   564  AO3564     -0.2733
     29  C21      -10.5980   36.2210   71.9670 C.3   564  AO3564      0.1986
     30  C22      -10.8250   36.3520   70.4740 C.3   564  AO3564      0.1802
     31  C23       -9.5600   35.7120   69.9480 C.3   564  AO3564      0.2050
     32  C24       -8.5280   36.3350   70.7620 C.3   564  AO3564      0.1561
     33  C25       -9.0820   36.0970   72.1730 C.3   564  AO3564      0.1050
     34  C26       -8.5760   37.0370   73.2730 C.3   564  AO3564      0.1882
     35  C27      -12.1380   34.6840   71.2670 C.2   564  AO3564      0.2833
     36  C28      -13.5060   32.8290   70.4860 C.3   564  AO3564      0.1166
     37  C29      -13.4680   33.3720   72.8430 C.3   564  AO3564      0.1166
     38  N22      -11.8560   35.3980   70.1040 N.2   564  AO3564     -0.2198
     39  N27      -13.0060   33.6560   71.5190 N.pl3 564  AO3564     -0.2607
     40  O23       -9.6590   35.9190   68.5330 O.3   564  AO3564     -0.2183
     41  O24       -7.2970   35.6800   70.5600 O.3   564  AO3564     -0.3288
     42  O26       -8.3460   38.4020   72.6270 O.3   564  AO3564     -0.2202
     43  O27      -11.4150   35.1080   72.3420 O.2   564  AO3564     -0.4514
@<TRIPOS>BOND
     1    14     7    2
     2     8     7    1
     3     7     9   am
     4     3     2    1
     5     3     4    1
     6     3    10    1
     7     9     2    1
     8     2     1    1
     9    11     4    1
    10     4     5    1
    11    27    20    1
    12    20    19    1
    13     1    25    1
    14     1    12    1
    15     5    12    1
    16     5     6    1
    17    25    18    1
    18     6    13    1
    19    19    18    1
    20    19    26    1
    21    18    17    1
    22    26    15    1
    23    40    31    1
    24    24    17    1
    25    17    16    1
    26    15    16    1
    27    15    41    1
    28    31    30    1
    29    31    32    1
    30    16    23    1
    31    38    30    1
    32    38    35    2
    33    30    29    1
    34    36    39    1
    35    41    32    1
    36    32    33    1
    37    23    21   am
    38    35    39    1
    39    35    43    1
    40    39    37    1
    41    29    33    1
    42    29    43    1
    43    33    34    1
    44    21    28    2
    45    21    22    1
    46    42    34    1
