@<TRIPOS>MOLECULE
1x6u_DO8_A_1.pdb
 20 20 0 0 0
SMALL
GASTEIGER

@<TRIPOS>ATOM
      1  C1         7.1600  -12.3990   42.0860 C.2   2634  DO82634     0.4179
      2  O1A        6.2080  -12.8690   42.7410 O.co2 2634  DO82634    -0.2401
      3  O1B        8.2210  -12.0410   42.7120 O.co2 2634  DO82634    -0.2401
      4  C2         7.0020  -12.2480   40.5790 C.3   2634  DO82634     0.3156
      5  C3         5.9940  -13.3600   40.0880 C.3   2634  DO82634     0.1064
      6  C4         5.5880  -13.0450   38.6500 C.3   2634  DO82634     0.1902
      7  O4         4.6350  -14.0970   38.3050 O.3   2634  DO82634    -0.2201
      8  C5         4.9280  -11.6690   38.5650 C.3   2634  DO82634     0.2118
      9  O5         3.7310  -11.6210   39.3890 O.3   2634  DO82634    -0.2177
     10  C6         6.0020  -10.5650   38.9960 C.3   2634  DO82634     0.1837
     11  O6         6.5500  -10.8280   40.3720 O.3   2634  DO82634    -0.3212
     12  C7         5.4810   -9.0040   39.1090 C.3   2634  DO82634     0.2116
     13  O7         5.0100   -7.9130   39.9760 O.3   2634  DO82634    -0.2177
     14  C8         4.9200   -8.8600   37.6280 C.3   2634  DO82634     0.1891
     15  P1         5.0230   -6.0150   38.1070 P.3   2634  DO82634     0.5327
     16  O2P        3.6990   -6.2530   39.1620 O.3   2634  DO82634    -0.1145
     17  O3P        6.4510   -5.7360   38.9410 O.3   2634  DO82634    -0.1145
     18  O          5.2480   -7.4650   37.1590 O.3   2634  DO82634    -0.2674
     19  O1P        4.6130   -4.6690   37.1830 O.2   2634  DO82634    -0.2224
     20  O2         8.3360  -12.4810   39.8950 O.3   2634  DO82634    -0.1830
@<TRIPOS>BOND
     1    18    14    1
     2    18    15    1
     3    19    15    2
     4    14    12    1
     5    15    17    1
     6    15    16    1
     7     7     6    1
     8     8     6    1
     9     8    10    1
    10     8     9    1
    11     6     5    1
    12    10    12    1
    13    10    11    1
    14    12    13    1
    15    20     4    1
    16     5     4    1
    17    11     4    1
    18     4     1    1
    19     1     3   ar
    20     1     2   ar
