@<TRIPOS>MOLECULE
1x6v_ADP_B_1.pdb
 27 29 0 0 0
SMALL
GASTEIGER

@<TRIPOS>ATOM
      1  PB        12.7380   40.5660   72.1860 P.3   800  ADP800      0.5373
      2  O1B       11.5090   41.3230   71.7160 O.3   800  ADP800     -0.1143
      3  O2B       14.0880   40.7210   71.5010 O.2   800  ADP800     -0.2221
      4  O3B       13.0300   40.9180   73.7040 O.3   800  ADP800     -0.1143
      5  PA        13.1480   37.7360   71.6600 P.3   800  ADP800      0.2231
      6  O1A       13.2970   37.6760   70.1950 O.2   800  ADP800     -0.5169
      7  O2A       14.5200   37.6350   72.3750 O.3   800  ADP800     -0.4370
      8  O3A       12.3000   39.0060   72.1860 O.3   800  ADP800     -0.2261
      9  O5'       12.2050   36.4860   72.0800 O.3   800  ADP800     -0.3111
     10  C5'       11.0300   36.2080   71.3830 C.3   800  ADP800      0.1813
     11  C4'       10.5260   34.8150   71.7400 C.3   800  ADP800      0.1821
     12  O4'        9.3030   34.6120   71.1090 O.3   800  ADP800     -0.3135
     13  C3'       11.5070   33.7780   71.2240 C.3   800  ADP800      0.2184
     14  O3'       11.6340   32.7260   72.1630 O.3   800  ADP800     -0.2174
     15  C2'       10.8810   33.3580   69.9200 C.3   800  ADP800      0.2570
     16  O2'       11.2810   32.0610   69.5660 O.3   800  ADP800     -0.2130
     17  C1'        9.4120   33.5010   70.2300 C.3   800  ADP800      0.3186
     18  N9         8.5930   33.6320   69.0150 N.pl3 800  ADP800     -0.1439
     19  C8         7.4860   32.8690   68.6760 C.3   800  ADP800      0.3377
     20  N7         6.9970   33.2960   67.4960 N.2   800  ADP800     -0.2095
     21  C5         7.8140   34.2980   67.0370 C.2   800  ADP800      0.2526
     22  C6         7.7980   35.0590   65.8890 C.2   800  ADP800      0.4393
     23  N6         6.8180   34.9230   65.0130 N.pl3 800  ADP800      0.2180
     24  N1         8.7740   36.0050   65.7020 N.2   800  ADP800      0.0021
     25  C2         9.7180   36.2080   66.6620 C.3   800  ADP800      0.5254
     26  N3         9.7360   35.4410   67.8080 N.2   800  ADP800     -0.0055
     27  C4         8.8010   34.5200   67.9760 C.2   800  ADP800      0.3518
@<TRIPOS>BOND
     1    23    22    1
     2    24    22    2
     3    24    25    1
     4    22    21    1
     5    25    26    1
     6    21    20    2
     7    21    27    1
     8    20    19    1
     9    26    27    2
    10    27    18    1
    11    19    18    1
    12    18    17    1
    13    16    15    1
    14    15    17    1
    15    15    13    1
    16     6     5    2
    17    17    12    1
    18    12    11    1
    19    13    11    1
    20    13    14    1
    21    10    11    1
    22    10     9    1
    23     3     1    2
    24     5     9    1
    25     5     8    1
    26     5     7    1
    27     2     1    1
    28     8     1    1
    29     1     4    1
