@<TRIPOS>MOLECULE
1x70_715_A_1.pdb
 28 30 0 0 0
SMALL
GASTEIGER

@<TRIPOS>ATOM
      1  C1        34.5880   50.5400   36.7400 C.ar  801  715801      0.0612
      2  C2        35.9160   51.0580   36.8040 C.ar  801  715801      0.1386
      3  C3        37.0810   50.2570   36.5150 C.ar  801  715801      0.0091
      4  C4        36.8900   48.8840   36.1400 C.ar  801  715801      0.0300
      5  C5        35.5560   48.3630   36.0770 C.ar  801  715801      0.1672
      6  C6        34.4320   49.1800   36.3660 C.ar  801  715801      0.1696
      7  F9        35.3810   47.1130   35.7320 F     801  715801     -0.2018
      8  F10       36.0680   52.3270   37.1540 F     801  715801     -0.2044
      9  C11       38.4290   50.9030   36.6040 C.3   801  715801      0.0482
     10  C12       39.0930   51.0760   35.2230 C.3   801  715801      0.1053
     11  C15       40.3800   51.8310   35.4450 C.3   801  715801      0.1046
     12  C16       41.5760   51.0710   36.1670 C.2   801  715801      0.2275
     13  N19       42.7630   51.8390   36.4340 N.am  801  715801     -0.2705
     14  N20       38.2030   51.8460   34.3530 N.3   801  715801     -0.1320
     15  O22       41.4170   49.8850   36.5130 O.2   801  715801     -0.2748
     16  C25       42.9990   52.7410   35.2820 C.3   801  715801      0.1183
     17  C26       44.1670   52.4110   34.3740 C.3   801  715801      0.1301
     18  N27       45.3490   51.8910   35.1230 N.ar  801  715801     -0.2924
     19  C28       45.3110   51.1800   36.2900 C.ar  801  715801      0.1635
     20  C29       43.9160   50.8910   36.8830 C.3   801  715801      0.1596
     21  C39       46.6690   51.9620   34.8650 C.ar  801  715801      0.2383
     22  N40       47.3490   51.3310   35.8410 N.ar  801  715801     -0.1249
     23  N41       46.5370   50.8670   36.6880 N.ar  801  715801     -0.1316
     24  C42       47.3330   52.6430   33.6640 C.3   801  715801      0.4524
     25  F43       48.6230   52.4720   33.7700 F     801  715801     -0.1632
     26  F44       47.0130   53.9300   33.7260 F     801  715801     -0.1632
     27  F45       46.8880   52.0850   32.5320 F     801  715801     -0.1632
     28  F46       33.2290   48.6840   36.2980 F     801  715801     -0.2017
@<TRIPOS>BOND
     1    27    24    1
     2    24    26    1
     3    24    25    1
     4    24    21    1
     5    14    10    1
     6    17    18    1
     7    17    16    1
     8    21    18   ar
     9    21    22   ar
    10    18    19   ar
    11    10    11    1
    12    10     9    1
    13    16    13    1
    14    11    12    1
    15     7     5    1
    16    22    23   ar
    17     5     4   ar
    18     5     6   ar
    19     4     3   ar
    20    12    13   am
    21    12    15    2
    22    19    23   ar
    23    19    20    1
    24    28     6    1
    25     6     1   ar
    26    13    20    1
    27     3     9    1
    28     3     2   ar
    29     1     2   ar
    30     2     8    1
