@<TRIPOS>MOLECULE
1x71_DB1_A_1.pdb
 11 11 0 0 0
SMALL
GASTEIGER

@<TRIPOS>ATOM
      1  O1        28.4570   78.8540   64.4700 O.3   201  DB1201     -0.2830
      2  O4        26.6520   77.3470   63.3850 O.3   201  DB1201     -0.2831
      3  O7        29.0970   82.8110   63.1930 O.2   201  DB1201     -0.2666
      4  N1        29.6990   81.1540   64.6500 N.am  201  DB1201     -0.0836
      5  C1        27.7420   79.4360   63.4700 C.ar  201  DB1201      0.2386
      6  C4        26.7190   78.5880   62.8560 C.ar  201  DB1201      0.2344
      7  C7        25.9270   79.1120   61.8230 C.ar  201  DB1201      0.0454
      8  C10       26.1300   80.4410   61.3700 C.ar  201  DB1201      0.0036
      9  C13       27.0950   81.2500   61.9290 C.ar  201  DB1201      0.0081
     10  C16       27.9170   80.7610   62.9910 C.ar  201  DB1201      0.0988
     11  C19       28.9430   81.6600   63.6040 C.2   201  DB1201      0.2874
@<TRIPOS>BOND
     1     8     7   ar
     2     8     9   ar
     3     7     6   ar
     4     9    10   ar
     5     6     2    1
     6     6     5   ar
     7    10     5   ar
     8    10    11    1
     9     3    11    2
    10     5     1    1
    11    11     4   am
