@<TRIPOS>MOLECULE
1x76_697_A_1.pdb
 19 21 0 0 0
SMALL
GASTEIGER

@<TRIPOS>ATOM
      1  C1        25.8800   35.9290   41.5540 C.ar  201  697201      0.1957
      2  C2        27.1560   35.5320   42.0840 C.ar  201  697201      0.0421
      3  C3        28.3240   35.6420   41.2630 C.ar  201  697201      0.0063
      4  C4        28.1970   36.1480   39.9180 C.ar  201  697201      0.0348
      5  C5        26.9120   36.5400   39.4040 C.ar  201  697201      0.0063
      6  C6        25.7500   36.4300   40.2220 C.ar  201  697201      0.0421
      7  O11       24.7570   35.8290   42.3360 O.3   201  697201     -0.2866
      8  C12       29.3860   36.3070   39.0130 C.ar  201  697201      0.1453
      9  C13       30.5520   35.5080   39.0090 C.ar  201  697201      0.0406
     10  C14       31.3230   36.1100   37.9800 C.ar  201  697201      0.0415
     11  C15       30.5610   37.2230   37.4440 C.ar  201  697201      0.1550
     12  O16       29.3870   37.3000   38.1050 O.2   201  697201     -0.4528
     13  C17       32.6150   35.8450   37.4170 C.ar  201  697201      0.0452
     14  C18       33.1160   36.6750   36.3540 C.ar  201  697201      0.1966
     15  C19       32.3420   37.7650   35.8480 C.ar  201  697201      0.0554
     16  C20       31.0610   38.0210   36.4110 C.ar  201  697201      0.1060
     17  O23       34.3510   36.4240   35.8170 O.3   201  697201     -0.2865
     18  C7        30.2680   39.1090   35.9240 C.1   201  697201      0.1036
     19  N27       29.6050   39.9850   35.5670 N.1   201  697201     -0.1907
@<TRIPOS>BOND
     1    19    18    3
     2    17    14    1
     3    15    14   ar
     4    15    16   ar
     5    18    16    1
     6    14    13   ar
     7    16    11   ar
     8    13    10   ar
     9    11    10   ar
    10    11    12   ar
    11    10     9   ar
    12    12     8   ar
    13     9     8   ar
    14     8     4    1
    15     5     4   ar
    16     5     6   ar
    17     4     3   ar
    18     6     1   ar
    19     3     2   ar
    20     1     2   ar
    21     1     7    1
