@<TRIPOS>MOLECULE
1x77_FMN_A_1.pdb
 31 33 0 0 0
SMALL
GASTEIGER

@<TRIPOS>ATOM
      1  N1        17.8110   33.0640   -1.6390 N.2   200  FMN200     -0.2887
      2  C2        18.8080   33.0170   -2.5960 C.1   200  FMN200      0.3669
      3  O2        18.5880   32.8250   -3.7730 O.2   200  FMN200     -0.1744
      4  N3        20.1180   33.2020   -2.1320 N.2   200  FMN200     -0.2300
      5  C4        20.5310   33.4370   -0.7880 C.1   200  FMN200      0.2513
      6  O4        21.7150   33.5820   -0.5370 O.2   200  FMN200     -0.2057
      7  C4A       19.4890   33.4750    0.1510 C.2   200  FMN200      0.2703
      8  N5        19.6430   33.6950    1.4900 N.2   200  FMN200     -0.3882
      9  C5A       18.7160   33.7660    2.5160 C.2   200  FMN200      0.1277
     10  C6        19.1450   34.0280    3.8920 C.3   200  FMN200      0.0820
     11  C7        18.1130   34.1120    4.9400 C.2   200  FMN200     -0.0408
     12  C7M       18.5970   34.3940    6.3610 C.3   200  FMN200      0.0265
     13  C8        16.6810   33.9330    4.5810 C.2   200  FMN200     -0.0280
     14  C8M       15.5020   34.0050    5.5920 C.3   200  FMN200      0.0304
     15  C9        16.3340   33.6740    3.2020 C.2   200  FMN200      0.0123
     16  C9A       17.3490   33.5950    2.1480 C.2   200  FMN200      0.0793
     17  N10       17.1210   33.3540    0.7520 N.pl3 200  FMN200     -0.2545
     18  C10       18.1210   33.2900   -0.3090 C.2   200  FMN200      0.2449
     19  C1'       15.6530   33.1640    0.3190 C.3   200  FMN200      0.1336
     20  C2'       15.0130   31.7700    0.5740 C.3   200  FMN200      0.2048
     21  O2'       15.7350   30.7120   -0.0650 O.3   200  FMN200     -0.2185
     22  C3'       13.5500   31.8000    0.0670 C.3   200  FMN200      0.2165
     23  O3'       12.8130   32.8560    0.6900 O.3   200  FMN200     -0.2175
     24  C4'       12.8260   30.4200    0.2630 C.3   200  FMN200      0.2147
     25  O4'       11.6190   30.4100   -0.5200 O.3   200  FMN200     -0.2176
     26  C5'       12.3220   30.1220    1.6350 C.3   200  FMN200      0.1892
     27  O5'       11.6740   28.8660    1.6150 O.3   200  FMN200     -0.2674
     28  P         11.0170   28.2440    2.8810 P.3   200  FMN200      0.5327
     29  O1P       12.0710   28.1970    3.9030 O.3   200  FMN200     -0.1145
     30  O2P        9.9320   29.1700    3.2080 O.3   200  FMN200     -0.1145
     31  O3P       10.4670   26.9640    2.4400 O.2   200  FMN200     -0.2224
@<TRIPOS>BOND
     1     3     2    2
     2     2     4    2
     3     2     1    2
     4     4     5    2
     5     1    18    2
     6     5     6    2
     7     5     7    1
     8    25    24    1
     9    18     7    1
    10    18    17    1
    11    21    20    1
    12    22    24    1
    13    22    20    1
    14    22    23    1
    15     7     8    2
    16    24    26    1
    17    19    20    1
    18    19    17    1
    19    17    16    1
    20     8     9    2
    21    27    26    1
    22    27    28    1
    23    16     9    1
    24    16    15    2
    25    31    28    2
    26     9    10    1
    27    28    30    1
    28    28    29    1
    29    15    13    1
    30    10    11    1
    31    13    11    2
    32    13    14    1
    33    11    12    1
