@<TRIPOS>MOLECULE
1x78_244_A_1.pdb
 20 22 0 0 0
SMALL
GASTEIGER

@<TRIPOS>ATOM
      1  C1        32.2650   36.7640   35.7030 C.ar  201  244201      0.0418
      2  C2        30.9230   36.9990   36.1130 C.ar  201  244201      0.0307
      3  C3        30.4370   36.4310   37.3150 C.ar  201  244201      0.1425
      4  C4        31.2870   35.6010   38.1510 C.ar  201  244201      0.0405
      5  C5        32.6300   35.3740   37.7260 C.ar  201  244201      0.0451
      6  C6        33.1120   35.9530   36.5100 C.ar  201  244201      0.1957
      7  O9        29.2090   36.5180   37.9020 O.2   201  244201     -0.4538
      8  C10       29.2700   35.7920   39.0470 C.ar  201  244201      0.1453
      9  C11       30.5270   35.1870   39.2750 C.ar  201  244201      0.0406
     10  O12       34.3970   35.7390   36.1000 O.3   201  244201     -0.2866
     11  C13       30.0230   37.8700   35.2370 C.3   201  244201      0.1348
     12  C14       29.4930   39.0590   35.9520 C.1   201  244201      0.0781
     13  N17       29.0470   39.9600   36.5260 N.1   201  244201     -0.1955
     14  C18       28.0680   35.7120   39.9480 C.ar  201  244201      0.0348
     15  C19       26.7950   36.1430   39.4230 C.ar  201  244201      0.0063
     16  C20       25.6260   36.1150   40.2410 C.ar  201  244201      0.0421
     17  C21       25.7220   35.6590   41.5840 C.ar  201  244201      0.1957
     18  C22       26.9810   35.2230   42.1290 C.ar  201  244201      0.0421
     19  C23       28.1560   35.2500   41.3130 C.ar  201  244201      0.0063
     20  O28       24.5830   35.6430   42.3610 O.3   201  244201     -0.2866
@<TRIPOS>BOND
     1    11    12    1
     2    11     2    1
     3     1     2   ar
     4     1     6   ar
     5    12    13    3
     6    10     6    1
     7     2     3   ar
     8     6     5   ar
     9     3     7   ar
    10     3     4   ar
    11     5     4   ar
    12     7     8   ar
    13     4     9   ar
    14     8     9   ar
    15     8    14    1
    16    15    14   ar
    17    15    16   ar
    18    14    19   ar
    19    16    17   ar
    20    19    18   ar
    21    17    18   ar
    22    17    20    1
