@<TRIPOS>MOLECULE
1x7a_187_C_1.pdb
 37 41 0 0 0
SMALL
GASTEIGER

@<TRIPOS>ATOM
      1  C1        68.2180   21.8850   55.0540 C.ar  298  187298      0.0081
      2  C2        69.5750   22.0490   55.2950 C.ar  298  187298      0.0018
      3  C3        70.4960   21.3420   54.4830 C.ar  298  187298      0.0192
      4  C4        70.1080   20.4600   53.4330 C.ar  298  187298      0.0832
      5  C5        68.7010   20.2670   53.2810 C.ar  298  187298      0.0271
      6  C6        67.7790   20.9860   54.0740 C.ar  298  187298      0.0990
      7  C20       66.3170   20.7180   53.9460 C.2   298  187298      0.4767
      8  N3        65.9870   19.6300   53.2470 N.pl3 298  187298      0.2047
      9  N4        65.3980   21.5270   54.5370 N.pl3 298  187298      0.2047
     10  N1        71.0810   19.9440   52.5050 N.ar  298  187298     -0.2252
     11  N6        71.2840   20.3780   51.2430 N.ar  298  187298     -0.1610
     12  N5        72.6570   17.0990   53.9260 N.am  298  187298     -0.1719
     13  C7        72.5350   16.3800   55.1190 C.ar  298  187298      0.1012
     14  C44       72.0670   15.0700   55.0340 C.ar  298  187298      0.1566
     15  C14       72.0870   14.2370   56.1910 C.ar  298  187298      0.0458
     16  C16       72.5610   14.7690   57.4250 C.ar  298  187298      0.0555
     17  N7        72.2500   14.1690   58.5750 N.pl3 298  187298     -0.2647
     18  C18       73.0410   16.1010   57.5090 C.ar  298  187298      0.0164
     19  C22       73.0080   16.9030   56.3550 C.ar  298  187298      0.0202
     20  C9        72.8870   14.1850   59.7860 C.2   298  187298      0.0665
     21  C15       71.0500   13.5970   58.7040 C.3   298  187298      0.2240
     22  C23       71.9570   13.4970   60.7320 C.2   298  187298      0.0910
     23  N2        70.8650   13.2190   59.9900 N.2   298  187298     -0.2465
     24  C13       71.9350   18.9050   52.6960 C.ar  298  187298      0.1394
     25  C12       72.6850   18.6660   51.5070 C.ar  298  187298      0.0487
     26  C8        72.1190   18.2610   53.8770 C.2   298  187298      0.2869
     27  C10       72.2150   19.6670   50.5860 C.ar  298  187298      0.1741
     28  O3        71.7160   18.8010   54.9010 O.2   298  187298     -0.2663
     29  C11       72.5540   19.8830   49.1190 C.3   298  187298      0.4366
     30  F1        71.8410   20.7270   48.4680 F     298  187298     -0.1643
     31  F3        72.5910   18.8010   48.4440 F     298  187298     -0.1643
     32  F2        73.6910   20.3970   49.1050 F     298  187298     -0.1643
     33  C17       72.3030   13.1760   62.0600 C.2   298  187298      0.0158
     34  C21       73.5740   13.5360   62.4820 C.2   298  187298     -0.0198
     35  C25       74.4560   14.2390   61.5940 C.3   298  187298      0.0534
     36  C27       74.1330   14.5870   60.2480 C.2   298  187298     -0.0051
     37  F4        71.6510   14.6950   53.8540 F     298  187298     -0.2028
@<TRIPOS>BOND
     1    31    29    1
     2    30    29    1
     3    32    29    1
     4    29    27    1
     5    27    11   ar
     6    27    25   ar
     7    11    10   ar
     8    25    24   ar
     9    10    24   ar
    10    10     4    1
    11    24    26    1
    12     8     7    2
    13     5     4   ar
    14     5     6   ar
    15     4     3   ar
    16    37    14    1
    17    26    12   am
    18    26    28    2
    19    12    13    1
    20     7     6    1
    21     7     9    1
    22     6     1   ar
    23     3     2   ar
    24    14    13   ar
    25    14    15   ar
    26     1     2   ar
    27    13    19   ar
    28    15    16   ar
    29    19    18   ar
    30    16    18   ar
    31    16    17    1
    32    17    21    1
    33    17    20    1
    34    21    23    1
    35    20    36    2
    36    20    22    1
    37    23    22    2
    38    36    35    1
    39    22    33    1
    40    35    34    1
    41    33    34    2
