@<TRIPOS>MOLECULE
1x7b_041_A_1.pdb
 20 22 0 0 0
SMALL
GASTEIGER

@<TRIPOS>ATOM
      1  C1        32.6400   37.6170   35.8010 C.3   201  041201      0.0986
      2  C2        31.3210   37.9160   36.2740 C.2   201  041201      0.0228
      3  C3        30.8000   37.1700   37.3600 C.2   201  041201      0.1741
      4  C4        31.5580   36.1150   38.0040 C.2   201  041201      0.1718
      5  C5        32.8680   35.8300   37.5210 C.2   201  041201      0.0731
      6  C6        33.4090   36.5770   36.4230 C.2   201  041201      0.1803
      7  O9        29.6100   37.2450   37.9950 O.2   201  041201     -0.4250
      8  C10       29.5810   36.3170   38.9840 C.2   201  041201      0.2821
      9  N11       30.7540   35.6090   39.0150 N.2   201  041201     -0.3642
     10  C12       28.4060   36.1630   39.8870 C.ar  201  041201      0.0689
     11  C13       28.5480   35.5620   41.1890 C.ar  201  041201      0.0092
     12  C14       27.4280   35.4370   42.0620 C.ar  201  041201      0.0446
     13  C15       26.1530   35.9250   41.6190 C.ar  201  041201      0.2229
     14  C16       26.0230   36.5210   40.3230 C.ar  201  041201      0.1790
     15  C17       27.1300   36.6450   39.4540 C.ar  201  041201      0.0387
     16  O21       34.6790   36.3130   35.9550 O.2   201  041201     -0.2909
     17  F22       24.8090   36.9640   39.9610 F     201  041201     -0.2008
     18  O23       25.0730   35.8110   42.4620 O.3   201  041201     -0.2842
     19  C24       30.5070   38.9990   35.6340 C.2   201  041201     -0.0007
     20  C25       29.6480   39.8330   36.2750 C.2   201  041201     -0.0002
@<TRIPOS>BOND
     1    19     2    1
     2    19    20    2
     3     1     2    1
     4     1     6    1
     5    16     6    1
     6     2     3    2
     7     6     5    2
     8     3     7    1
     9     3     4    1
    10     5     4    1
    11     7     8    1
    12     4     9    2
    13     8     9    2
    14     8    10    1
    15    15    10   ar
    16    15    14   ar
    17    10    11   ar
    18    17    14    1
    19    14    13   ar
    20    11    12   ar
    21    13    12   ar
    22    13    18    1
