@<TRIPOS>MOLECULE
1x7d_NAD_A_1.pdb
 44 48 0 0 0
SMALL
GASTEIGER

@<TRIPOS>ATOM
      1  PA        40.7660   42.9410   16.2940 P.3   1302  NAD1302     0.2189
      2  O1A       40.5100   44.1240   15.4340 O.2   1302  NAD1302    -0.5170
      3  O2A       40.9510   41.5930   15.6690 O.3   1302  NAD1302    -0.4371
      4  O5B       42.0080   43.3020   17.1990 O.3   1302  NAD1302    -0.3112
      5  C5B       42.5630   42.3480   18.1530 C.3   1302  NAD1302     0.1813
      6  C4B       44.0680   42.5270   18.1620 C.3   1302  NAD1302     0.1821
      7  O4B       44.6520   41.6280   19.0790 O.3   1302  NAD1302    -0.3135
      8  C3B       44.8010   42.2460   16.7920 C.3   1302  NAD1302     0.2184
      9  O3B       45.4150   43.4660   16.2740 O.3   1302  NAD1302    -0.2174
     10  C2B       45.7990   41.1460   17.0890 C.3   1302  NAD1302     0.2570
     11  O2B       46.9810   41.1250   16.3580 O.3   1302  NAD1302    -0.2130
     12  C1B       45.9520   41.3370   18.5990 C.3   1302  NAD1302     0.3186
     13  N9A       46.3820   40.1210   19.2690 N.pl3 1302  NAD1302    -0.1439
     14  C8A       46.0090   38.7820   19.1540 C.3   1302  NAD1302     0.3377
     15  N7A       46.6660   37.9810   19.9740 N.2   1302  NAD1302    -0.2095
     16  C5A       47.5100   38.7430   20.6800 C.2   1302  NAD1302     0.2526
     17  C6A       48.4950   38.4470   21.7290 C.2   1302  NAD1302     0.4393
     18  N6A       48.7040   37.2260   22.1810 N.pl3 1302  NAD1302     0.2180
     19  N1A       49.1830   39.5570   22.2080 N.2   1302  NAD1302     0.0021
     20  C2A       49.0160   40.8240   21.7900 C.3   1302  NAD1302     0.5254
     21  N3A       48.0920   41.1620   20.7920 N.2   1302  NAD1302    -0.0055
     22  C4A       47.3620   40.0890   20.2620 C.2   1302  NAD1302     0.3518
     23  O3        39.5750   42.7860   17.3310 O.3   1302  NAD1302    -0.2703
     24  PN        38.7510   43.8760   18.2200 P.3   1302  NAD1302     0.2189
     25  O1N       37.5390   44.2670   17.4850 O.2   1302  NAD1302    -0.5170
     26  O2N       39.7410   44.9200   18.6090 O.3   1302  NAD1302    -0.4371
     27  O5D       38.2890   42.9650   19.4690 O.3   1302  NAD1302    -0.3112
     28  C5D       39.2810   42.4390   20.4000 C.3   1302  NAD1302     0.1813
     29  C4D       38.6160   41.4890   21.3240 C.3   1302  NAD1302     0.1799
     30  O4D       37.5130   42.1910   22.0530 O.3   1302  NAD1302    -0.3327
     31  C3D       37.9280   40.2760   20.5990 C.3   1302  NAD1302     0.2158
     32  O3D       38.3620   39.0260   21.1490 O.3   1302  NAD1302    -0.2175
     33  C2D       36.4290   40.4900   20.8390 C.3   1302  NAD1302     0.2309
     34  O2D       35.6860   39.3060   20.8810 O.3   1302  NAD1302    -0.2158
     35  C1D       36.3870   41.2910   22.1870 C.3   1302  NAD1302     0.2261
     36  N1N       35.0790   42.0100   22.3340 N.pl3 1302  NAD1302    -0.2831
     37  C2N       34.6250   42.2000   23.6990 C.2   1302  NAD1302     0.0633
     38  C3N       33.7520   43.1570   24.0460 C.2   1302  NAD1302     0.0490
     39  C7N       33.2830   43.3190   25.4760 C.2   1302  NAD1302     0.2814
     40  O7N       32.2310   43.9700   25.6870 O.2   1302  NAD1302    -0.2670
     41  N7N       33.9860   42.7580   26.4750 N.am  1302  NAD1302    -0.0839
     42  C4N       33.1970   44.1150   22.9960 C.3   1302  NAD1302     0.0341
     43  C5N       34.2490   44.3340   21.9400 C.3   1302  NAD1302     0.0264
     44  C6N       34.8820   43.1640   21.4560 C.3   1302  NAD1302     0.0934
@<TRIPOS>BOND
     1     2     1    2
     2     3     1    1
     3     9     8    1
     4     1     4    1
     5     1    23    1
     6    11    10    1
     7     8    10    1
     8     8     6    1
     9    10    12    1
    10     4     5    1
    11    23    24    1
    12    25    24    2
    13     5     6    1
    14     6     7    1
    15    24    26    1
    16    24    27    1
    17    12     7    1
    18    12    13    1
    19    14    13    1
    20    14    15    1
    21    13    22    1
    22    27    28    1
    23    15    16    2
    24    22    16    1
    25    22    21    2
    26    28    29    1
    27    31    33    1
    28    31    32    1
    29    31    29    1
    30    16    17    1
    31    21    20    1
    32    33    34    1
    33    33    35    1
    34    29    30    1
    35    44    43    1
    36    44    36    1
    37    17    18    1
    38    17    19    2
    39    20    19    1
    40    43    42    1
    41    30    35    1
    42    35    36    1
    43    36    37    1
    44    42    38    1
    45    37    38    2
    46    38    39    1
    47    39    40    2
    48    39    41   am
