@<TRIPOS>MOLECULE
1x7e_244_A_1.pdb
 20 22 0 0 0
SMALL
GASTEIGER

@<TRIPOS>ATOM
      1  C1        23.7510   19.5780   26.0370 C.ar  201  244201      0.0418
      2  C2        24.1800   18.8920   24.8340 C.ar  201  244201      0.0307
      3  C3        25.4350   19.2420   24.2230 C.ar  201  244201      0.1425
      4  C4        26.2970   20.2860   24.7920 C.ar  201  244201      0.0405
      5  C5        25.8530   20.9610   25.9920 C.ar  201  244201      0.0451
      6  C6        24.5880   20.6100   26.6130 C.ar  201  244201      0.1957
      7  O9        26.0430   18.7450   23.1120 O.2   201  244201     -0.4538
      8  C10       27.2080   19.4080   22.9630 C.ar  201  244201      0.1453
      9  C11       27.4370   20.3890   23.9720 C.ar  201  244201      0.0406
     10  O12       24.1640   21.2530   27.7500 O.3   201  244201     -0.2866
     11  C13       23.2770   17.8010   24.2280 C.3   201  244201      0.1348
     12  C14       23.9710   16.5070   23.9890 C.1   201  244201      0.0781
     13  N17       24.5630   15.5320   23.8230 N.1   201  244201     -0.1955
     14  C18       28.1190   19.0820   21.7990 C.ar  201  244201      0.0348
     15  C19       27.5770   18.2830   20.7020 C.ar  201  244201      0.0063
     16  C20       28.3860   17.9570   19.5580 C.ar  201  244201      0.0421
     17  C21       29.7410   18.4300   19.5040 C.ar  201  244201      0.1957
     18  C22       30.3120   19.2210   20.5820 C.ar  201  244201      0.0421
     19  C23       29.5070   19.5480   21.7270 C.ar  201  244201      0.0063
     20  O28       30.4990   18.1240   18.4110 O.3   201  244201     -0.2866
@<TRIPOS>BOND
     1    20    17    1
     2    17    16   ar
     3    17    18   ar
     4    16    15   ar
     5    18    19   ar
     6    15    14   ar
     7    19    14   ar
     8    14     8    1
     9     8     7   ar
    10     8     9   ar
    11     7     3   ar
    12    13    12    3
    13     9     4   ar
    14    12    11    1
    15     3     4   ar
    16     3     2   ar
    17    11     2    1
    18     4     5   ar
    19     2     1   ar
    20     5     6   ar
    21     1     6   ar
    22     6    10    1
