@<TRIPOS>MOLECULE
1x7j_GEN_A_1.pdb
 20 22 0 0 0
SMALL
GASTEIGER

@<TRIPOS>ATOM
      1  C1        33.3210   35.5550   37.7830 C.ar  201  GEN201      0.0798
      2  C2        33.6440   36.3730   36.6620 C.ar  201  GEN201      0.2020
      3  O2        34.9220   36.1980   36.1290 O.3   201  GEN201     -0.2864
      4  C3        32.7590   37.3330   36.0770 C.ar  201  GEN201      0.0843
      5  C4        31.4620   37.5170   36.6180 C.ar  201  GEN201      0.2049
      6  O4        30.5830   38.4340   36.0840 O.3   201  GEN201     -0.2862
      7  C5        31.0970   36.6900   37.7710 C.ar  201  GEN201      0.1126
      8  C6        29.7400   36.8470   38.3760 C.ar  201  GEN201      0.2047
      9  O6        28.8970   37.6430   37.9550 O.2   201  GEN201     -0.2862
     10  C7        29.4790   35.9370   39.5690 C.ar  201  GEN201      0.0767
     11  C8        30.4490   35.0340   40.0410 C.ar  201  GEN201      0.1826
     12  O9        31.7310   34.9080   39.4430 O.2   201  GEN201     -0.4500
     13  C10       32.0060   35.7180   38.3560 C.ar  201  GEN201      0.1548
     14  C11       28.1390   35.9190   40.3680 C.ar  201  GEN201      0.0064
     15  C12       26.8930   36.0980   39.6630 C.ar  201  GEN201      0.0035
     16  C13       25.7190   36.0710   40.4700 C.ar  201  GEN201      0.0420
     17  C14       25.8250   35.8770   41.8570 C.ar  201  GEN201      0.1957
     18  O14       24.6180   35.8640   42.5510 O.3   201  GEN201     -0.2866
     19  C15       27.0460   35.6940   42.5990 C.ar  201  GEN201      0.0420
     20  C16       28.2590   35.7200   41.7980 C.ar  201  GEN201      0.0035
@<TRIPOS>BOND
     1     4     5   ar
     2     4     2   ar
     3     6     5    1
     4     3     2    1
     5     5     7   ar
     6     2     1   ar
     7     7    13   ar
     8     7     8   ar
     9     1    13   ar
    10     9     8    2
    11    13    12   ar
    12     8    10   ar
    13    12    11   ar
    14    10    11   ar
    15    10    14    1
    16    15    14   ar
    17    15    16   ar
    18    14    20   ar
    19    16    17   ar
    20    20    19   ar
    21    17    18    1
    22    17    19   ar
