@<TRIPOS>MOLECULE
1x7n_PA5_A_1.pdb
 15 14 0 0 0
SMALL
GASTEIGER

@<TRIPOS>ATOM
      1  O1A        3.6740   -3.8390    8.9910 O.co2 301  PA5301     -0.2427
      2  C1         4.6330   -3.4320    9.6600 C.2   301  PA5301      0.3973
      3  O1         5.6920   -4.0550    9.7680 O.co2 301  PA5301     -0.2427
      4  C2         4.4930   -2.1300   10.3760 C.3   301  PA5301      0.2865
      5  O2         3.1030   -1.7700   10.4130 O.3   301  PA5301     -0.2080
      6  C3         5.1250   -2.2410   11.7740 C.3   301  PA5301      0.2259
      7  O3         4.4760   -3.2770   12.5050 O.3   301  PA5301     -0.2169
      8  C4         5.0280   -0.9060   12.5440 C.3   301  PA5301      0.2152
      9  O4         5.7670    0.1090   11.8490 O.3   301  PA5301     -0.2176
     10  C5         5.5420   -1.0320   13.9810 C.3   301  PA5301      0.1892
     11  O5         6.8610   -1.5960   14.0200 O.3   301  PA5301     -0.2674
     12  P          7.1920   -2.9330   14.8660 P.3   301  PA5301      0.5327
     13  O1P        6.0800   -3.8630   14.3920 O.2   301  PA5301     -0.2224
     14  O2P        8.5600   -3.3390   14.4050 O.3   301  PA5301     -0.1145
     15  O3P        7.1280   -2.5650   16.3340 O.3   301  PA5301     -0.1145
@<TRIPOS>BOND
     1     1     2   ar
     2     2     3   ar
     3     2     4    1
     4     4     5    1
     5     4     6    1
     6     6     7    1
     7     6     8    1
     8     9     8    1
     9     8    10    1
    10    10    11    1
    11    11    12    1
    12    13    12    2
    13    14    12    1
    14    12    15    1
