@<TRIPOS>MOLECULE
1x7p_SAM_A_1.pdb
 27 29 0 0 0
SMALL
GASTEIGER

@<TRIPOS>ATOM
      1  N         45.7320   14.0090   73.2210 N.3   301  SAM301     -0.1208
      2  CA        46.3890   12.7580   73.6340 C.3   301  SAM301      0.1952
      3  C         46.1010   11.7150   72.5580 C.2   301  SAM301      0.3819
      4  O         46.6800   11.8390   71.4610 O.co2 301  SAM301     -0.2441
      5  OXT       45.3050   10.7800   72.7900 O.co2 301  SAM301     -0.2441
      6  CB        45.9870   12.2080   75.0230 C.3   301  SAM301      0.0414
      7  CG        46.0450   13.1910   76.1950 C.3   301  SAM301      0.0503
      8  SD        46.7070   12.5540   77.7780 S.3   301  SAM301     -0.1761
      9  CE        46.2630   10.8080   77.8390 C.3   301  SAM301      0.0590
     10  C5'       45.6420   13.3420   79.0140 C.3   301  SAM301      0.0806
     11  C4'       46.1510   14.7060   79.4770 C.3   301  SAM301      0.1622
     12  O4'       47.2230   14.5530   80.3790 O.3   301  SAM301     -0.3153
     13  C3'       46.7160   15.6300   78.4070 C.3   301  SAM301      0.2168
     14  O3'       45.7380   16.3850   77.7750 O.3   301  SAM301     -0.2175
     15  C2'       47.6390   16.5110   79.1890 C.3   301  SAM301      0.2569
     16  O2'       46.9360   17.5160   79.8590 O.3   301  SAM301     -0.2130
     17  C1'       48.1970   15.5480   80.1950 C.3   301  SAM301      0.3185
     18  N9        49.4550   14.9560   79.7070 N.pl3 301  SAM301     -0.1439
     19  C8        49.7020   13.6460   79.4020 C.3   301  SAM301      0.3377
     20  N7        50.9920   13.4960   79.0240 N.2   301  SAM301     -0.2095
     21  C5        51.5920   14.7030   79.1010 C.2   301  SAM301      0.2526
     22  C6        52.8930   15.1220   78.8310 C.2   301  SAM301      0.4393
     23  N6        53.8220   14.2920   78.3740 N.pl3 301  SAM301      0.2180
     24  N1        53.1870   16.4460   78.9770 N.2   301  SAM301      0.0021
     25  C2        52.2190   17.3410   79.4110 C.3   301  SAM301      0.5254
     26  N3        50.9310   16.9390   79.6770 N.2   301  SAM301     -0.0055
     27  C4        50.6270   15.6300   79.5190 C.2   301  SAM301      0.3518
@<TRIPOS>BOND
     1     4     3   ar
     2     3     5   ar
     3     3     2    1
     4     1     2    1
     5     2     6    1
     6     6     7    1
     7     7     8    1
     8    14    13    1
     9     8     9    1
    10     8    10    1
    11    23    22    1
    12    13    15    1
    13    13    11    1
    14    22    24    2
    15    22    21    1
    16    24    25    1
    17    10    11    1
    18    20    21    2
    19    20    19    1
    20    21    27    1
    21    15    16    1
    22    15    17    1
    23    19    18    1
    24    25    26    1
    25    11    12    1
    26    27    26    2
    27    27    18    1
    28    18    17    1
    29    17    12    1
