@<TRIPOS>MOLECULE
1x7r_GEN_A_1.pdb
 20 22 0 0 0
SMALL
GASTEIGER

@<TRIPOS>ATOM
      1  C1        17.1540   31.9200   25.8150 C.ar  201  GEN201      0.0798
      2  C2        17.7070   33.1970   26.1030 C.ar  201  GEN201      0.2020
      3  O2        18.2780   33.3320   27.3670 O.3   201  GEN201     -0.2864
      4  C3        17.7040   34.3040   25.1930 C.ar  201  GEN201      0.0843
      5  C4        17.1140   34.1500   23.8990 C.ar  201  GEN201      0.2049
      6  O4        17.0820   35.1890   22.9880 O.3   201  GEN201     -0.2862
      7  C5        16.5400   32.8450   23.5790 C.ar  201  GEN201      0.1126
      8  C6        15.9120   32.6250   22.2390 C.ar  201  GEN201      0.2047
      9  O6        15.8430   33.4840   21.3710 O.2   201  GEN201     -0.2862
     10  C7        15.3580   31.2140   22.0270 C.ar  201  GEN201      0.0767
     11  C8        15.4410   30.2340   23.0300 C.ar  201  GEN201      0.1826
     12  O9        16.0360   30.4740   24.2960 O.2   201  GEN201     -0.4500
     13  C10       16.5550   31.7350   24.5220 C.ar  201  GEN201      0.1548
     14  C11       14.6820   30.7120   20.7190 C.ar  201  GEN201      0.0064
     15  C12       15.2530   31.1030   19.4560 C.ar  201  GEN201      0.0035
     16  C13       14.6080   30.5730   18.2940 C.ar  201  GEN201      0.0420
     17  C14       13.5010   29.7340   18.4320 C.ar  201  GEN201      0.1957
     18  O14       12.9460   29.2580   17.2410 O.3   201  GEN201     -0.2866
     19  C15       12.8950   29.3240   19.6740 C.ar  201  GEN201      0.0420
     20  C16       13.5350   29.8510   20.8720 C.ar  201  GEN201      0.0035
@<TRIPOS>BOND
     1    18    17    1
     2    16    17   ar
     3    16    15   ar
     4    17    19   ar
     5    15    14   ar
     6    19    20   ar
     7    14    20   ar
     8    14    10    1
     9     9     8    2
    10    10     8   ar
    11    10    11   ar
    12     8     7   ar
    13     6     5    1
    14    11    12   ar
    15     7     5   ar
    16     7    13   ar
    17     5     4   ar
    18    12    13   ar
    19    13     1   ar
    20     4     2   ar
    21     1     2   ar
    22     2     3    1
