@<TRIPOS>MOLECULE
1x7u_HEM_A_1.pdb
 43 50 0 0 0
SMALL
GASTEIGER

@<TRIPOS>ATOM
      1  CHA      -10.3200  -61.2140  -39.6380 C.2   1500  HEM1500     0.0000
      2  CHB       -9.7430  -65.1810  -36.8760 C.2   1500  HEM1500     0.0000
      3  CHC      -14.5220  -65.8650  -36.7240 C.2   1500  HEM1500     0.0000
      4  CHD      -15.1290  -61.9990  -39.5790 C.2   1500  HEM1500     0.0000
      5  C1A       -9.7700  -62.1650  -38.8140 C.2   1500  HEM1500     0.0000
      6  C2A       -8.3810  -62.2330  -38.4240 C.2   1500  HEM1500     0.0000
      7  C3A       -8.2230  -63.3370  -37.6860 C.2   1500  HEM1500     0.0000
      8  C4A       -9.5050  -64.0090  -37.5670 C.2   1500  HEM1500     0.0000
      9  CMA       -6.9170  -63.8470  -37.0420 C.3   1500  HEM1500     0.0000
     10  CAA       -7.2850  -61.2330  -38.8470 C.3   1500  HEM1500     0.0000
     11  CBA       -7.3810  -59.9010  -38.1120 C.3   1500  HEM1500     0.0000
     12  CGA       -6.3510  -58.9870  -38.7710 C.2   1500  HEM1500     0.0000
     13  O1A       -5.1370  -59.3480  -38.7540 O.co2 1500  HEM1500     0.0000
     14  O2A       -6.7210  -57.9140  -39.3220 O.co2 1500  HEM1500     0.0000
     15  C1B      -10.9650  -65.7680  -36.6180 C.ar  1500  HEM1500     0.0000
     16  C2B      -11.2200  -67.0250  -35.9250 C.ar  1500  HEM1500     0.0000
     17  C3B      -12.5530  -67.2020  -35.8800 C.ar  1500  HEM1500     0.0000
     18  C4B      -13.1700  -66.0700  -36.5520 C.ar  1500  HEM1500     0.0000
     19  CMB      -10.1270  -67.9510  -35.3300 C.3   1500  HEM1500     0.0000
     20  CAB      -13.3340  -68.3680  -35.2370 C.2   1500  HEM1500     0.0000
     21  CBB      -12.7740  -69.5820  -35.1840 C.2   1500  HEM1500     0.0000
     22  C1C      -15.1140  -64.8350  -37.4270 C.2   1500  HEM1500     0.0000
     23  C2C      -16.5320  -64.5450  -37.5090 C.2   1500  HEM1500     0.0000
     24  C3C      -16.6960  -63.4590  -38.2950 C.2   1500  HEM1500     0.0000
     25  C4C      -15.3840  -63.0370  -38.7190 C.2   1500  HEM1500     0.0000
     26  CMC      -17.6120  -65.3540  -36.7660 C.3   1500  HEM1500     0.0000
     27  CAC      -17.9910  -62.7270  -38.7150 C.2   1500  HEM1500     0.0000
     28  CBC      -19.1010  -63.3650  -39.1300 C.2   1500  HEM1500     0.0000
     29  C1D      -13.9030  -61.5420  -39.9770 C.ar  1500  HEM1500     0.0000
     30  C2D      -13.6800  -60.5930  -41.0420 C.ar  1500  HEM1500     0.0000
     31  C3D      -12.1820  -60.3610  -41.0800 C.ar  1500  HEM1500     0.0000
     32  C4D      -11.6460  -61.1590  -40.0050 C.ar  1500  HEM1500     0.0000
     33  CMD      -14.7220  -59.9830  -41.9890 C.3   1500  HEM1500     0.0000
     34  CAD      -11.4170  -59.4340  -42.0520 C.3   1500  HEM1500     0.0000
     35  CBD      -11.2100  -58.1100  -41.3290 C.3   1500  HEM1500     0.0000
     36  CGD      -10.6720  -57.0760  -42.2960 C.2   1500  HEM1500     0.0000
     37  O1D       -9.9250  -56.1490  -41.8520 O.co2 1500  HEM1500     0.0000
     38  O2D      -10.9940  -57.1790  -43.5020 O.co2 1500  HEM1500     0.0000
     39  NA       -10.4290  -63.2590  -38.2720 N.2   1500  HEM1500     0.0000
     40  NB       -12.1730  -65.2380  -36.9900 N.ar  1500  HEM1500     0.0000
     41  NC       -14.4640  -63.8940  -38.1730 N.2   1500  HEM1500     0.0000
     42  ND       -12.6810  -61.8610  -39.3880 N.ar  1500  HEM1500     0.0000
     43 FE        -12.4480  -63.7270  -38.4580 Fe    1500  HEM1500     0.0000
@<TRIPOS>BOND
     1    38    36   ar
     2    36    37   ar
     3    36    35    1
     4    34    35    1
     5    34    31    1
     6    33    30    1
     7    31    30   ar
     8    31    32   ar
     9    30    29   ar
    10    32     1    2
    11    32    42   ar
    12    29     4    2
    13    29    42   ar
    14     1     5    1
    15     4    25    1
    16    42    43    1
    17    14    12   ar
    18    28    27    2
    19    10     6    1
    20    10    11    1
    21     5     6    1
    22     5    39    2
    23    12    13   ar
    24    12    11    1
    25    25    24    1
    26    25    41    2
    27    27    24    1
    28    43    39    1
    29    43    41    1
    30    43    40    1
    31     6     7    2
    32    24    23    2
    33    39     8    1
    34    41    22    1
    35     7     8    1
    36     7     9    1
    37     8     2    2
    38    23    22    1
    39    23    26    1
    40    22     3    2
    41    40    15   ar
    42    40    18   ar
    43     2    15    1
    44     3    18    1
    45    15    16   ar
    46    18    17   ar
    47    16    17   ar
    48    16    19    1
    49    17    20    1
    50    20    21    2
