@<TRIPOS>MOLECULE
1x7x_TDP_A_1.pdb
 26 27 0 0 0
SMALL
GASTEIGER

@<TRIPOS>ATOM
      1  N1'       77.2640    0.6780   11.2300 N.2   801  TDP801     -0.1861
      2  C2'       77.4960    1.8590   11.7950 C.1   801  TDP801      0.0663
      3  C2A       77.5810    2.0920   13.3050 C.3   801  TDP801      0.1291
      4  N3'       77.6360    2.9790   10.9630 N.2   801  TDP801     -0.3368
      5  C4'       77.5400    2.8780    9.5790 C.2   801  TDP801      0.2292
      6  N4'       77.7200    4.0170    8.8930 N.pl3 801  TDP801     -0.0925
      7  C5'       77.2760    1.5990    9.0140 C.2   801  TDP801      0.0654
      8  C6'       77.1460    0.5330    9.9040 C.2   801  TDP801      0.1115
      9  C35       77.1480    1.2900    7.4930 C.3   801  TDP801      0.1237
     10  N3        75.9080    1.9190    7.0070 N.pl3 801  TDP801     -0.2970
     11  C2        76.0080    3.2690    6.3890 C.3   801  TDP801      0.1543
     12  S1        74.2700    3.6250    5.9430 S.3   801  TDP801     -0.0951
     13  C5        73.6390    2.1340    6.5500 C.2   801  TDP801      0.0164
     14  C4        74.6590    1.3490    7.0680 C.2   801  TDP801      0.0279
     15  C4A       74.3750   -0.0830    7.6560 C.3   801  TDP801      0.0473
     16  C5A       72.1380    1.8970    6.4480 C.3   801  TDP801      0.0661
     17  C5B       71.3940    2.9680    7.2850 C.3   801  TDP801      0.1544
     18  O5G       69.9820    2.7220    7.1430 O.3   801  TDP801     -0.3134
     19  P1        68.8910    3.7340    7.7240 P.3   801  TDP801      0.2230
     20  O11       69.0180    5.0330    6.7060 O.3   801  TDP801     -0.2261
     21  O12       69.3370    4.1180    9.0740 O.3   801  TDP801     -0.4370
     22  O13       67.6210    3.0380    7.4700 O.2   801  TDP801     -0.5169
     23  P2        68.7310    5.1380    5.1540 P.3   801  TDP801      0.5373
     24  O21       70.0540    4.8060    4.4020 O.2   801  TDP801     -0.2221
     25  O22       67.6320    4.1750    4.6710 O.3   801  TDP801     -0.1143
     26  O23       68.2840    6.5200    4.8620 O.3   801  TDP801     -0.1143
@<TRIPOS>BOND
     1    24    23    2
     2    25    23    1
     3    26    23    1
     4    23    20    1
     5    12    11    1
     6    12    13    1
     7    11    10    1
     8    16    13    1
     9    16    17    1
    10    13    14    2
    11    20    19    1
    12    10    14    1
    13    10     9    1
    14    14    15    1
    15    18    17    1
    16    18    19    1
    17    22    19    2
    18     9     7    1
    19    19    21    1
    20     6     5    1
    21     7     5    1
    22     7     8    2
    23     5     4    2
    24     8     1    1
    25     4     2    2
    26     1     2    2
    27     2     3    1
