@<TRIPOS>MOLECULE
1x7y_TDP_A_1.pdb
 26 27 0 0 0
SMALL
GASTEIGER

@<TRIPOS>ATOM
      1  N1'       77.2730    0.5350   11.2960 N.2   901  TDP901     -0.1861
      2  C2'       77.5130    1.7170   11.8360 C.1   901  TDP901      0.0663
      3  C2A       77.6540    1.8480   13.3100 C.3   901  TDP901      0.1291
      4  N3'       77.6170    2.8640   11.0820 N.2   901  TDP901     -0.3368
      5  C4'       77.4860    2.7640    9.7080 C.2   901  TDP901      0.2292
      6  N4'       77.6480    3.8970    9.0270 N.pl3 901  TDP901     -0.0925
      7  C5'       77.2320    1.4710    9.1210 C.2   901  TDP901      0.0654
      8  C6'       77.1170    0.3690    9.9600 C.2   901  TDP901      0.1115
      9  C35       77.0830    1.2170    7.6190 C.3   901  TDP901      0.1237
     10  N3        75.8630    1.8840    7.0750 N.pl3 901  TDP901     -0.2970
     11  C2        76.0000    3.2150    6.4280 C.3   901  TDP901      0.1543
     12  S1        74.2640    3.5540    5.9690 S.3   901  TDP901     -0.0951
     13  C5        73.5830    2.0320    6.5570 C.2   901  TDP901      0.0164
     14  C4        74.6090    1.2580    7.0900 C.2   901  TDP901      0.0279
     15  C4A       74.4030   -0.1420    7.6920 C.3   901  TDP901      0.0473
     16  C5A       72.0950    1.7730    6.4270 C.3   901  TDP901      0.0661
     17  C5B       71.3810    2.8180    7.2610 C.3   901  TDP901      0.1544
     18  O5G       69.9810    2.6290    7.1370 O.3   901  TDP901     -0.3134
     19  P1        68.8950    3.6610    7.6510 P.3   901  TDP901      0.2230
     20  O11       69.0110    4.9660    6.6760 O.3   901  TDP901     -0.2261
     21  O12       69.2990    4.1390    9.0150 O.3   901  TDP901     -0.4370
     22  O13       67.5580    2.9850    7.5380 O.2   901  TDP901     -0.5169
     23  P2        68.7140    5.0610    5.0760 P.3   901  TDP901      0.5373
     24  O21       70.0550    4.7170    4.3980 O.2   901  TDP901     -0.2221
     25  O22       67.6020    4.0760    4.7290 O.3   901  TDP901     -0.1143
     26  O23       68.2820    6.4620    4.8460 O.3   901  TDP901     -0.1143
@<TRIPOS>BOND
     1    24    23    2
     2    25    23    1
     3    26    23    1
     4    23    20    1
     5    12    11    1
     6    12    13    1
     7    16    13    1
     8    16    17    1
     9    11    10    1
    10    13    14    2
    11    20    19    1
    12    10    14    1
    13    10     9    1
    14    14    15    1
    15    18    17    1
    16    18    19    1
    17    22    19    2
    18     9     7    1
    19    19    21    1
    20     6     5    1
    21     7     5    1
    22     7     8    2
    23     5     4    2
    24     8     1    1
    25     4     2    2
    26     1     2    2
    27     2     3    1
