@<TRIPOS>MOLECULE
1x7z_TDP_A_1.pdb
 26 27 0 0 0
SMALL
GASTEIGER

@<TRIPOS>ATOM
      1  N1'       77.2570    0.5430   11.3950 N.2   801  TDP801     -0.1861
      2  C2'       77.4630    1.7140   11.9840 C.1   801  TDP801      0.0663
      3  C2A       77.5940    1.8270   13.5190 C.3   801  TDP801      0.1291
      4  N3'       77.5350    2.8510   11.1960 N.2   801  TDP801     -0.3368
      5  C4'       77.4960    2.7260    9.7760 C.2   801  TDP801      0.2292
      6  N4'       77.6700    3.8180    9.0470 N.pl3 801  TDP801     -0.0925
      7  C5'       77.2420    1.4460    9.1800 C.2   801  TDP801      0.0654
      8  C6'       77.1190    0.3540   10.0500 C.2   801  TDP801      0.1115
      9  C35       77.1490    1.1690    7.6570 C.3   801  TDP801      0.1237
     10  N3        75.9150    1.7640    7.1470 N.pl3 801  TDP801     -0.2970
     11  C2        76.0570    3.0990    6.5760 C.3   801  TDP801      0.1543
     12  S1        74.3450    3.5830    6.1500 S.3   801  TDP801     -0.0951
     13  C5        73.6570    2.0260    6.6640 C.2   801  TDP801      0.0164
     14  C4        74.6680    1.2000    7.1890 C.2   801  TDP801      0.0279
     15  C4A       74.4180   -0.2480    7.7300 C.3   801  TDP801      0.0473
     16  C5A       72.1720    1.7680    6.5480 C.3   801  TDP801      0.0661
     17  C5B       71.4260    2.8320    7.4000 C.3   801  TDP801      0.1544
     18  O5G       70.0260    2.6170    7.1660 O.3   801  TDP801     -0.3134
     19  P1        68.9320    3.6240    7.7320 P.3   801  TDP801      0.2230
     20  O11       69.0660    4.8900    6.7520 O.3   801  TDP801     -0.2261
     21  O12       69.3060    4.0480    9.0890 O.3   801  TDP801     -0.4370
     22  O13       67.5970    2.9700    7.5390 O.2   801  TDP801     -0.5169
     23  P2        68.8410    5.0930    5.1730 P.3   801  TDP801      0.5373
     24  O21       70.2030    4.8260    4.5010 O.2   801  TDP801     -0.2221
     25  O22       67.7510    4.0530    4.7390 O.3   801  TDP801     -0.1143
     26  O23       68.3180    6.4880    4.9460 O.3   801  TDP801     -0.1143
@<TRIPOS>BOND
     1    24    23    2
     2    25    23    1
     3    26    23    1
     4    23    20    1
     5    12    11    1
     6    12    13    1
     7    16    13    1
     8    16    17    1
     9    11    10    1
    10    13    14    2
    11    20    19    1
    12    10    14    1
    13    10     9    1
    14    18    17    1
    15    18    19    1
    16    14    15    1
    17    22    19    2
    18     9     7    1
    19    19    21    1
    20     6     5    1
    21     7     5    1
    22     7     8    2
    23     5     4    2
    24     8     1    1
    25     4     2    2
    26     1     2    2
    27     2     3    1
