@<TRIPOS>MOLECULE
1x80_TDP_A_1.pdb
 26 27 0 0 0
SMALL
GASTEIGER

@<TRIPOS>ATOM
      1  N1'       76.9770    0.4860   11.1160 N.2   801  TDP801     -0.1861
      2  C2'       77.2490    1.7170   11.6550 C.1   801  TDP801      0.0663
      3  C2A       77.4270    1.9740   13.1500 C.3   801  TDP801      0.1291
      4  N3'       77.2630    2.7760   10.8070 N.2   801  TDP801     -0.3368
      5  C4'       77.1220    2.6430    9.4500 C.2   801  TDP801      0.2292
      6  N4'       77.2950    3.7410    8.7140 N.pl3 801  TDP801     -0.0925
      7  C5'       76.8600    1.3500    8.8940 C.2   801  TDP801      0.0654
      8  C6'       76.7580    0.3040    9.8050 C.2   801  TDP801      0.1115
      9  C35       76.6910    1.0800    7.3730 C.3   801  TDP801      0.1237
     10  N3        75.4640    1.7110    6.8820 N.pl3 801  TDP801     -0.2970
     11  C2        75.6030    3.0380    6.2350 C.3   801  TDP801      0.1543
     12  S1        73.8680    3.3950    5.7810 S.3   801  TDP801     -0.0951
     13  C5        73.1820    1.9160    6.4130 C.2   801  TDP801      0.0164
     14  C4        74.2180    1.1410    6.9060 C.2   801  TDP801      0.0279
     15  C4A       73.9780   -0.2680    7.5250 C.3   801  TDP801      0.0473
     16  C5A       71.6820    1.6700    6.3180 C.3   801  TDP801      0.0661
     17  C5B       70.9520    2.7240    7.2590 C.3   801  TDP801      0.1544
     18  O5G       69.5640    2.5760    7.0290 O.3   801  TDP801     -0.3134
     19  P1        68.4980    3.5230    7.5570 P.3   801  TDP801      0.2230
     20  O11       68.6660    4.7810    6.5210 O.3   801  TDP801     -0.2261
     21  O12       68.9890    3.9880    8.8700 O.3   801  TDP801     -0.4370
     22  O13       67.1770    2.9400    7.3430 O.2   801  TDP801     -0.5169
     23  P2        68.3230    4.7920    5.0270 P.3   801  TDP801      0.5373
     24  O21       69.5710    4.4970    4.2950 O.2   801  TDP801     -0.2221
     25  O22       67.0990    3.7250    4.7260 O.3   801  TDP801     -0.1143
     26  O23       67.9390    6.1910    4.6980 O.3   801  TDP801     -0.1143
@<TRIPOS>BOND
     1    24    23    2
     2    26    23    1
     3    25    23    1
     4    23    20    1
     5    12    11    1
     6    12    13    1
     7    11    10    1
     8    16    13    1
     9    16    17    1
    10    13    14    2
    11    20    19    1
    12    10    14    1
    13    10     9    1
    14    14    15    1
    15    18    17    1
    16    18    19    1
    17    22    19    2
    18     9     7    1
    19    19    21    1
    20     6     5    1
    21     7     5    1
    22     7     8    2
    23     5     4    2
    24     8     1    1
    25     4     2    2
    26     1     2    2
    27     2     3    1
