@<TRIPOS>MOLECULE
1x81_JAN_B_1.pdb
 34 38 0 0 0
SMALL
GASTEIGER

@<TRIPOS>ATOM
      1  C1        51.5410   44.5160   -0.5580 C.3     1  JAN1        0.1318
      2  N1        51.3260   45.2670   -1.7800 N.ar    1  JAN1       -0.3087
      3  C2        51.6250   44.8100   -3.0300 C.ar    1  JAN1        0.1784
      4  N2        51.3400   45.6300   -4.0050 N.ar    1  JAN1       -0.2226
      5  C3        50.8100   46.7230   -3.3830 C.ar    1  JAN1        0.1154
      6  C4        50.7670   46.5350   -2.0130 C.ar    1  JAN1        0.0813
      7  C5        50.2870   47.4180   -0.8210 C.3     1  JAN1        0.1489
      8  C6        51.5020   47.7410    0.1710 C.ar    1  JAN1        0.0025
      9  C7        52.8180   48.1590   -0.3160 C.ar    1  JAN1       -0.0014
     10  C8        53.8970   48.4250    0.5960 C.ar    1  JAN1        0.0111
     11  C9        53.6760   48.3460    1.9980 C.ar    1  JAN1        0.0577
     12 CL1        54.9500   48.6960    3.0650 Cl      1  JAN1       -0.0822
     13  C10       52.3950   47.9350    2.5030 C.ar    1  JAN1        0.0111
     14  C11       51.3390   47.6640    1.6120 C.ar    1  JAN1       -0.0014
     15  N3        49.2200   46.6040   -0.1510 N.3     1  JAN1       -0.1193
     16  C12       49.7090   48.7410   -1.4140 C.ar    1  JAN1        0.0026
     17  C13       50.3200   49.9780   -1.1790 C.ar    1  JAN1       -0.0008
     18  C14       49.8670   51.2050   -1.6710 C.ar    1  JAN1        0.0158
     19  C15       48.4970   48.7410   -2.1990 C.ar    1  JAN1       -0.0008
     20  C16       47.9540   49.9320   -2.7740 C.ar    1  JAN1        0.0170
     21  C17       48.5400   51.1900   -2.5180 C.ar    1  JAN1        0.0625
     22  N4        48.0720   52.4010   -3.0620 N.ar    1  JAN1       -0.2935
     23  C18       46.8360   52.3850   -3.8840 C.3     1  JAN1        0.1335
     24  C19       48.7240   53.6590   -2.7900 C.ar    1  JAN1        0.2610
     25  O1        48.2980   54.7250   -3.2510 O.2     1  JAN1       -0.2670
     26  C20       49.8960   53.6500   -2.0050 C.ar    1  JAN1        0.0608
     27  C21       50.4750   52.4610   -1.4430 C.ar    1  JAN1        0.0061
     28  C22       51.7150   52.6450   -0.6430 C.ar    1  JAN1        0.0010
     29  C23       52.8940   51.9350   -0.9720 C.ar    1  JAN1        0.0114
     30  C24       54.1110   52.1220   -0.2140 C.ar    1  JAN1        0.0577
     31 CL2        55.5220   51.2860   -0.6240 Cl      1  JAN1       -0.0822
     32  C25       54.1170   53.0090    0.9320 C.ar    1  JAN1        0.0114
     33  C26       52.9040   53.7230    1.2670 C.ar    1  JAN1        0.0009
     34  C27       51.7070   53.5280    0.4820 C.ar    1  JAN1        0.0001
@<TRIPOS>BOND
     1     4     5   ar
     2     4     3   ar
     3    23    22    1
     4     5     6   ar
     5    25    24    2
     6    22    24   ar
     7    22    21   ar
     8     3     2   ar
     9    24    26   ar
    10    20    21   ar
    11    20    19   ar
    12    21    18   ar
    13    19    16   ar
    14     6     2   ar
    15     6     7    1
    16    26    27   ar
    17     2     1    1
    18    18    27   ar
    19    18    17   ar
    20    27    28    1
    21    16    17   ar
    22    16     7    1
    23    29    28   ar
    24    29    30   ar
    25     7    15    1
    26     7     8    1
    27    28    34   ar
    28    31    30    1
    29     9     8   ar
    30     9    10   ar
    31    30    32   ar
    32     8    14   ar
    33    34    33   ar
    34    10    11   ar
    35    32    33   ar
    36    14    13   ar
    37    11    13   ar
    38    11    12    1
