@<TRIPOS>MOLECULE
1x82_PA5_A_1.pdb
 15 14 0 0 0
SMALL
GASTEIGER

@<TRIPOS>ATOM
      1  O1A        3.9090   13.6980    8.7200 O.co2 301  PA5301     -0.2427
      2  C1         4.6550   13.9050    9.6810 C.2   301  PA5301      0.3973
      3  O1         5.5870   13.1270    9.9470 O.co2 301  PA5301     -0.2427
      4  C2         4.4320   15.1340   10.5420 C.3   301  PA5301      0.2865
      5  O2         3.0400   15.4510   10.6800 O.3   301  PA5301     -0.2080
      6  C3         5.0820   14.9700   11.9280 C.3   301  PA5301      0.2259
      7  O3         4.4480   13.9440   12.6780 O.3   301  PA5301     -0.2169
      8  C4         5.0310   16.2710   12.7370 C.3   301  PA5301      0.2152
      9  O4         5.7070   17.2900   12.0310 O.3   301  PA5301     -0.2176
     10  C5         5.6700   16.1490   14.1330 C.3   301  PA5301      0.1892
     11  O5         6.9550   15.5010   14.1210 O.3   301  PA5301     -0.2674
     12  P          7.2180   14.0960   14.9070 P.3   301  PA5301      0.5327
     13  O1P        6.0610   13.2240   14.5110 O.3   301  PA5301     -0.1145
     14  O2P        8.5180   13.5580   14.3210 O.2   301  PA5301     -0.2224
     15  O3P        7.2830   14.4220   16.3840 O.3   301  PA5301     -0.1145
@<TRIPOS>BOND
     1     1     2   ar
     2     2     3   ar
     3     2     4    1
     4     4     5    1
     5     4     6    1
     6     6     7    1
     7     6     8    1
     8     9     8    1
     9     8    10    1
    10    11    10    1
    11    11    12    1
    12    14    12    2
    13    13    12    1
    14    12    15    1
