@<TRIPOS>MOLECULE
1x83_SBH_A_1.pdb
 15 14 0 0 0
SMALL
GASTEIGER

@<TRIPOS>ATOM
      1  O1        11.2580    2.5840    9.9640 O.2   301  SBH301     -0.2221
      2  O2         9.0580    2.1070   10.6260 O.3   301  SBH301     -0.1143
      3  O3        10.9050    1.8800   12.1600 O.3   301  SBH301     -0.1143
      4  P1        10.3910    2.6850   11.0070 P.3   301  SBH301      0.5373
      5  O4        10.1140    4.1270   11.4520 O.3   301  SBH301     -0.2261
      6  O5        11.5830    6.0060   11.4280 O.2   301  SBH301     -0.5169
      7  O6        11.8080    4.3540   13.1330 O.3   301  SBH301     -0.4370
      8  P2        10.9140    5.1650   12.2300 P.3   301  SBH301      0.2230
      9  O7         9.9720    5.8630   13.2030 O.3   301  SBH301     -0.3137
     10  C1         9.1560    6.9360   12.7370 C.3   301  SBH301      0.1517
     11  C2         8.4080    7.6870   13.8530 C.3   301  SBH301      0.0629
     12  C3         9.3560    8.6740   14.5880 C.3   301  SBH301      0.1292
     13  C4         8.4700    9.8530   15.0930 C.3   301  SBH301      0.0330
     14  C5         9.8570    8.0220   15.9240 C.3   301  SBH301      0.0330
     15  O8        10.5250    9.1750   13.5970 O.3   301  SBH301     -0.2256
@<TRIPOS>BOND
     1     1     4    2
     2     2     4    1
     3     4     5    1
     4     4     3    1
     5     6     8    2
     6     5     8    1
     7     8     7    1
     8     8     9    1
     9    10     9    1
    10    10    11    1
    11    15    12    1
    12    11    12    1
    13    12    13    1
    14    12    14    1
