@<TRIPOS>MOLECULE
1x84_SBH_A_1.pdb
 16 14 0 0 0
SMALL
GASTEIGER

@<TRIPOS>ATOM
      1  O1        11.1870    2.7090   10.1590 O.2   301  SBH301     -0.2221
      2  O2         8.9560    2.1700   10.7230 O.3   301  SBH301     -0.1143
      3  O3        10.8100    1.8880   12.2770 O.3   301  SBH301     -0.1143
      4  P1        10.2780    2.7510   11.1840 P.3   301  SBH301      0.5373
      5  O4         9.9930    4.1620   11.6860 O.3   301  SBH301     -0.2261
      6  O5        11.4940    5.9920   11.5520 O.2   301  SBH301     -0.5169
      7  O6        11.7660    4.4390   13.3750 O.3   301  SBH301     -0.4370
      8  P2        10.8680    5.1790   12.4180 P.3   301  SBH301      0.2230
      9  O7         9.8920    5.9270   13.3500 O.3   301  SBH301     -0.3137
     10  C1         8.8710    6.6240   12.6400 C.3   301  SBH301      0.1517
     11  C2         7.9640    7.4820   13.5420 C.3   301  SBH301      0.0629
     12  C3         8.7260    8.7940   13.9030 C.3   301  SBH301      0.1292
     13  C4         9.8970    9.0900   12.8380 C.3   301  SBH301      0.0330
     14  C5         7.6470    9.9170   14.0130 C.3   301  SBH301      0.0330
     15  O8         9.2740    8.6740   15.3520 O.3   301  SBH301     -0.2256
     16 BR1        12.5680    9.8470   12.4940 Br    301  SBH301      0.0000
@<TRIPOS>BOND
     1     1     4    2
     2     2     4    1
     3     4     5    1
     4     4     3    1
     5     6     8    2
     6     5     8    1
     7     8     9    1
     8     8     7    1
     9    10     9    1
    10    10    11    1
    11    13    12    1
    12    11    12    1
    13    12    14    1
    14    12    15    1
