@<TRIPOS>MOLECULE
1x87_NAD_A_1.pdb
 44 48 0 0 0
SMALL
GASTEIGER

@<TRIPOS>ATOM
      1  PA         7.0920  -20.6930   54.9470 P.3   600  NAD600      0.2189
      2  O1A        8.2630  -21.2720   55.6600 O.3   600  NAD600     -0.4371
      3  O2A        7.3070  -19.1820   54.7150 O.2   600  NAD600     -0.5170
      4  O5B        5.8030  -20.6850   55.8980 O.3   600  NAD600     -0.3112
      5  C5B        5.2830  -21.8130   56.5490 C.3   600  NAD600      0.1813
      6  C4B        4.4920  -21.3310   57.7480 C.3   600  NAD600      0.1821
      7  O4B        4.0410  -22.4520   58.4360 O.3   600  NAD600     -0.3135
      8  C3B        5.3120  -20.5150   58.7500 C.3   600  NAD600      0.2184
      9  O3B        4.8140  -19.2010   58.8190 O.3   600  NAD600     -0.2174
     10  C2B        5.2010  -21.2780   60.0570 C.3   600  NAD600      0.2570
     11  O2B        5.1120  -20.4770   61.2100 O.3   600  NAD600     -0.2130
     12  C1B        3.9400  -22.0750   59.8060 C.3   600  NAD600      0.3186
     13  N9A        3.8140  -23.2950   60.6290 N.pl3 600  NAD600     -0.1439
     14  C8A        4.7650  -24.2760   60.8680 C.3   600  NAD600      0.3377
     15  N7A        4.1950  -25.2210   61.6330 N.2   600  NAD600     -0.2095
     16  C5A        2.9120  -24.8750   61.8580 C.2   600  NAD600      0.2526
     17  C6A        1.8930  -25.4740   62.5830 C.2   600  NAD600      0.4393
     18  N6A        2.0970  -26.6230   63.2150 N.pl3 600  NAD600      0.2180
     19  N1A        0.6680  -24.8740   62.6270 N.2   600  NAD600      0.0021
     20  C2A        0.4520  -23.6740   61.9960 C.3   600  NAD600      0.5254
     21  N3A        1.4600  -23.0730   61.2850 N.2   600  NAD600     -0.0055
     22  C4A        2.6590  -23.6730   61.2240 C.2   600  NAD600      0.3518
     23  O3         6.6530  -21.5820   53.6540 O.3   600  NAD600     -0.2703
     24  PN         5.8300  -20.9870   52.3710 P.3   600  NAD600      0.2189
     25  O1N        4.7070  -20.1570   52.8530 O.3   600  NAD600     -0.4371
     26  O2N        6.8160  -20.4010   51.4540 O.2   600  NAD600     -0.5170
     27  O5D        5.2440  -22.3120   51.7320 O.3   600  NAD600     -0.3112
     28  C5D        4.5110  -23.2000   52.5450 C.3   600  NAD600      0.1813
     29  C4D        4.4300  -24.5780   51.9100 C.3   600  NAD600      0.1799
     30  O4D        3.4500  -24.5660   50.8980 O.3   600  NAD600     -0.3327
     31  C3D        5.7440  -25.0140   51.2720 C.3   600  NAD600      0.2158
     32  O3D        5.9590  -26.3900   51.4840 O.3   600  NAD600     -0.2175
     33  C2D        5.5130  -24.7540   49.8120 C.3   600  NAD600      0.2309
     34  O2D        6.3240  -25.6140   49.0480 O.3   600  NAD600     -0.2158
     35  C1D        4.0050  -24.9930   49.6840 C.3   600  NAD600      0.2263
     36  N1N        3.4280  -24.2410   48.5700 N.pl3 600  NAD600     -0.2787
     37  C2N        3.5790  -24.7440   47.3250 C.3   600  NAD600      0.1244
     38  C3N        3.0560  -24.0570   46.2340 C.2   600  NAD600      0.0544
     39  C7N        3.2270  -24.6010   44.8510 C.2   600  NAD600      0.2818
     40  O7N        2.7110  -23.9050   43.7360 O.2   600  NAD600     -0.2670
     41  N7N        3.8570  -25.7410   44.6780 N.am  600  NAD600     -0.0839
     42  C4N        2.3640  -22.8620   46.4070 C.2   600  NAD600      0.0033
     43  C5N        2.2220  -22.3640   47.6800 C.2   600  NAD600      0.0157
     44  C6N        2.7660  -23.0620   48.7620 C.2   600  NAD600      0.0633
@<TRIPOS>BOND
     1    40    39    2
     2    41    39   am
     3    39    38    1
     4    38    42    2
     5    38    37    1
     6    42    43    1
     7    37    36    1
     8    43    44    2
     9    36    44    1
    10    36    35    1
    11    34    33    1
    12    35    33    1
    13    35    30    1
    14    33    31    1
    15    30    29    1
    16    31    32    1
    17    31    29    1
    18    26    24    2
    19    27    24    1
    20    27    28    1
    21    29    28    1
    22    24    25    1
    23    24    23    1
    24    23     1    1
    25     3     1    2
    26     1     2    1
    27     1     4    1
    28     4     5    1
    29     5     6    1
    30     6     7    1
    31     6     8    1
    32     7    12    1
    33     8     9    1
    34     8    10    1
    35    12    10    1
    36    12    13    1
    37    10    11    1
    38    13    14    1
    39    13    22    1
    40    14    15    1
    41    22    21    2
    42    22    16    1
    43    21    20    1
    44    15    16    2
    45    16    17    1
    46    20    19    1
    47    17    19    2
    48    17    18    1
