@<TRIPOS>MOLECULE
1x88_ADP_A_1.pdb
 27 29 0 0 0
SMALL
GASTEIGER

@<TRIPOS>ATOM
      1  PB        44.8270   32.5060   99.1110 P.3   601  ADP601      0.5373
      2  O1B       45.5530   31.8680   97.9670 O.2   601  ADP601     -0.2221
      3  O2B       44.2630   33.9750   98.7920 O.3   601  ADP601     -0.1143
      4  O3B       43.7430   31.6600   99.6300 O.3   601  ADP601     -0.1143
      5  PA        46.3390   31.7940  101.3840 P.3   601  ADP601      0.2231
      6  O1A       45.5680   32.1380  102.5760 O.3   601  ADP601     -0.4370
      7  O2A       46.1950   30.3720  101.0830 O.2   601  ADP601     -0.5169
      8  O3A       45.8850   32.7150  100.2110 O.3   601  ADP601     -0.2261
      9  O5'       47.9190   32.0240  101.4030 O.3   601  ADP601     -0.3111
     10  C5'       48.5810   33.2330  101.6150 C.3   601  ADP601      0.1813
     11  C4'       49.8270   32.9010  102.4370 C.3   601  ADP601      0.1821
     12  O4'       49.9860   34.0300  103.2580 O.3   601  ADP601     -0.3135
     13  C3'       49.6540   31.7110  103.3850 C.3   601  ADP601      0.2184
     14  O3'       50.8770   30.9640  103.5440 O.3   601  ADP601     -0.2174
     15  C2'       49.2580   32.3050  104.7170 C.3   601  ADP601      0.2570
     16  O2'       49.6750   31.5310  105.8490 O.3   601  ADP601     -0.2130
     17  C1'       49.8470   33.7060  104.6460 C.3   601  ADP601      0.3186
     18  N9        48.9360   34.7320  105.2200 N.pl3 601  ADP601     -0.1439
     19  C8        47.8750   35.2670  104.5810 C.3   601  ADP601      0.3377
     20  N7        47.2880   36.1540  105.3680 N.2   601  ADP601     -0.2095
     21  C5        47.9480   36.1980  106.4950 C.2   601  ADP601      0.2526
     22  C6        47.8270   36.9140  107.6790 C.2   601  ADP601      0.4393
     23  N6        46.8380   37.8060  107.8190 N.pl3 601  ADP601      0.2180
     24  N1        48.7180   36.7070  108.6980 N.2   601  ADP601      0.0021
     25  C2        49.7310   35.8190  108.5930 C.3   601  ADP601      0.5254
     26  N3        49.8640   35.1220  107.4490 N.2   601  ADP601     -0.0055
     27  C4        49.0140   35.2760  106.4010 C.2   601  ADP601      0.3518
@<TRIPOS>BOND
     1     2     1    2
     2     3     1    1
     3     1     4    1
     4     1     8    1
     5     8     5    1
     6     7     5    2
     7     5     9    1
     8     5     6    1
     9     9    10    1
    10    10    11    1
    11    11    12    1
    12    11    13    1
    13    12    17    1
    14    13    14    1
    15    13    15    1
    16    19    18    1
    17    19    20    1
    18    17    15    1
    19    17    18    1
    20    15    16    1
    21    18    27    1
    22    20    21    2
    23    27    21    1
    24    27    26    2
    25    21    22    1
    26    26    25    1
    27    22    23    1
    28    22    24    2
    29    25    24    1
