@<TRIPOS>MOLECULE
1x88_NAT_A_1.pdb
 20 21 0 0 0
SMALL
GASTEIGER

@<TRIPOS>ATOM
      1  C1        40.1510   25.2440  112.1810 C.ar  801  NAT801      0.0025
      2  C2        41.1920   25.7750  111.4240 C.ar  801  NAT801      0.0305
      3  C3        42.2060   26.4950  112.0470 C.ar  801  NAT801      0.0443
      4  C4        42.1800   26.6850  113.4270 C.ar  801  NAT801      0.1958
      5  C5        41.1380   26.1540  114.1830 C.ar  801  NAT801      0.0420
      6  C6        40.1240   25.4330  113.5600 C.ar  801  NAT801      0.0034
      7  C7        41.2250   25.5820  109.9050 C.2   801  NAT801      0.1387
      8  N8        39.9650   26.0920  109.3430 N.2   801  NAT801     -0.3378
      9  C9        39.0100   25.2590  108.7490 C.1   801  NAT801      0.1785
     10  N10       39.2360   23.8840  108.6290 N.2   801  NAT801     -0.3422
     11  C11       40.4380   23.3080  109.0580 C.2   801  NAT801      0.1171
     12  C12       41.4500   24.0980  109.5960 C.3   801  NAT801      0.2004
     13  O13       43.1690   27.3920  114.0340 O.3   801  NAT801     -0.2866
     14  C14       42.8340   23.5120  109.8820 C.2   801  NAT801      0.3298
     15  O15       42.9940   22.1610  109.8430 O.3   801  NAT801     -0.4479
     16  C16       44.3380   21.7440  110.1230 C.3   801  NAT801      0.2086
     17  C17       44.4130   20.2290  109.9290 C.3   801  NAT801      0.0513
     18  C18       40.5880   21.7920  108.9150 C.3   801  NAT801      0.0635
     19  O19       43.7770   24.2620  110.1300 O.2   801  NAT801     -0.2492
     20  S20       37.5430   25.9170  108.1450 S.2   801  NAT801      0.0574
@<TRIPOS>BOND
     1    20     9    2
     2    10     9    2
     3    10    11    2
     4     9     8    2
     5    18    11    1
     6    11    12    1
     7     8     7    2
     8    12    14    1
     9    12     7    1
    10    15    14    1
    11    15    16    1
    12    14    19    2
    13     7     2    1
    14    17    16    1
    15     2     3   ar
    16     2     1   ar
    17     3     4   ar
    18     1     6   ar
    19     4    13    1
    20     4     5   ar
    21     6     5   ar
