@<TRIPOS>MOLECULE
1x8b_824_A_1.pdb
 25 29 0 0 0
SMALL
GASTEIGER

@<TRIPOS>ATOM
      1  O3         8.1890   55.6520   21.9340 O.3   901  824901     -0.2866
      2  C19        7.0210   55.2620   22.4050 C.ar  901  824901      0.1959
      3  C20        6.0450   54.8660   21.4330 C.ar  901  824901      0.0447
      4  C18        4.7660   54.3890   21.7500 C.ar  901  824901      0.0353
      5  C16        4.4030   54.3550   23.1030 C.ar  901  824901      0.1317
      6  C15        5.3970   54.7470   24.0960 C.ar  901  824901      0.0360
      7  C17        6.7120   55.1830   23.7850 C.ar  901  824901      0.0447
      8  C13        4.6770   54.5540   25.3490 C.ar  901  824901      0.0448
      9  C14        3.3430   54.0300   25.0930 C.ar  901  824901      0.1322
     10  N2         3.2710   53.9340   23.7350 N.2   901  824901     -0.4019
     11  C4         5.0330   54.7570   26.7210 C.ar  901  824901      0.1098
     12  C5         6.2490   55.1870   27.3920 C.1   901  824901      0.2158
     13  O1         7.2990   55.6250   26.8410 O.2   901  824901     -0.2086
     14  C3         4.0930   54.4410   27.7600 C.ar  901  824901      0.1075
     15  C6         4.8590   54.7810   28.9710 C.1   901  824901      0.2158
     16  O2         4.3970   54.6230   30.1430 O.2   901  824901     -0.2086
     17  N1         6.1320   55.1840   28.7310 N.2   901  824901     -0.2576
     18  C2         2.7320   53.9900   27.4820 C.ar  901  824901      0.0152
     19  C1         2.3990   53.7790   26.1090 C.ar  901  824901      0.0328
     20  C7         1.7480   53.6900   28.5320 C.ar  901  824901      0.0008
     21  C8         1.4460   54.6840   29.4920 C.ar  901  824901      0.0000
     22  C9         0.4900   54.4330   30.5090 C.ar  901  824901      0.0000
     23  C10       -0.2190   53.2380   30.4250 C.ar  901  824901      0.0000
     24  C11        0.0330   52.3000   29.4530 C.ar  901  824901      0.0000
     25  C12        1.0200   52.5030   28.4650 C.ar  901  824901      0.0000
@<TRIPOS>BOND
     1     3     4   ar
     2     3     2   ar
     3     4     5   ar
     4     1     2    1
     5     2     7   ar
     6     5    10    2
     7     5     6   ar
     8    10     9    2
     9     7     6   ar
    10     6     8    2
    11     9     8   ar
    12     9    19   ar
    13     8    11   ar
    14    19    18   ar
    15    11    12    1
    16    11    14   ar
    17    13    12    2
    18    12    17    2
    19    18    14   ar
    20    18    20    1
    21    14    15    1
    22    25    20   ar
    23    25    24   ar
    24    20    21   ar
    25    17    15    2
    26    15    16    2
    27    24    23   ar
    28    21    22   ar
    29    23    22   ar
