@<TRIPOS>MOLECULE
1x8d_RNS_A_1.pdb
 11 11 0 0 0
SMALL
GASTEIGER

@<TRIPOS>ATOM
      1  C1        11.2370   31.7770   10.2980 C.3   1105  RNS1105     0.3023
      2  C2        12.1450   31.8480    9.0710 C.3   1105  RNS1105     0.2434
      3  C3        11.3990   31.2440    7.8730 C.3   1105  RNS1105     0.2198
      4  C4        10.0740   31.9830    7.6650 C.3   1105  RNS1105     0.2118
      5  C5         9.2610   31.9360    8.9670 C.3   1105  RNS1105     0.1509
      6  C6         7.9470   32.6880    8.8920 C.3   1105  RNS1105     0.0350
      7  O1        11.8730   32.3340   11.3890 O.3   1105  RNS1105    -0.1869
      8  O2        12.4920   33.2080    8.8100 O.3   1105  RNS1105    -0.2148
      9  O3        12.1910   31.3340    6.6960 O.3   1105  RNS1105    -0.2174
     10  O4         9.3550   31.3560    6.6090 O.3   1105  RNS1105    -0.2177
     11  O5        10.0260   32.5060   10.0530 O.3   1105  RNS1105    -0.3264
@<TRIPOS>BOND
     1    10     4    1
     2     9     3    1
     3     4     3    1
     4     4     5    1
     5     3     2    1
     6     8     2    1
     7     6     5    1
     8     5    11    1
     9     2     1    1
    10    11     1    1
    11     1     7    1
