@<TRIPOS>MOLECULE
1x8i_BMH_A_1.pdb
 25 28 0 0 0
SMALL
GASTEIGER

@<TRIPOS>ATOM
      1  O71       13.6770   48.6440   70.4120 O.co2   2  BMH2       -0.2455
      2  C7        14.8300   49.0200   70.5890 C.2     2  BMH2        0.3681
      3  O72       15.1040   50.3040   70.5470 O.co2   2  BMH2       -0.2455
      4  C6        15.9360   48.0350   70.8940 C.3     2  BMH2        0.1465
      5  C61       17.3240   48.6480   71.1510 C.3     2  BMH2        0.1293
      6  O62       18.3830   47.6730   71.1840 O.3     2  BMH2       -0.3355
      7  C62       17.4570   49.3700   72.4840 C.3     2  BMH2        0.0327
      8  C5        16.0160   46.9370   69.8230 C.3     2  BMH2        0.0896
      9  N4        17.0380   46.0210   70.3500 N.3     2  BMH2       -0.1858
     10  C3        18.3130   46.6410   70.1470 C.3     2  BMH2        0.2565
     11  C31       19.4670   45.6930   70.3050 C.2     2  BMH2        0.4050
     12  O31       20.6870   46.2310   70.3150 O.co2   2  BMH2       -0.2414
     13  O32       19.3130   44.4630   70.4670 O.co2   2  BMH2       -0.2414
     14  C1        16.6500   47.3230   68.4820 C.3     2  BMH2        0.0310
     15  C11       16.1190   48.5890   67.7960 C.3     2  BMH2        0.0025
     16  C2        18.1670   47.2910   68.7460 C.3     2  BMH2        0.1004
     17  S21       18.8830   46.3510   67.3440 S.3     2  BMH2       -0.1342
     18  C22       20.5510   46.9810   67.1480 C.3     2  BMH2        0.0868
     19  C23       20.5290   48.4300   66.7080 C.3     2  BMH2        0.1067
     20  N24       21.1450   48.4430   65.3860 N.3     2  BMH2       -0.1792
     21  C25       20.4620   49.0330   64.2370 C.3     2  BMH2        0.2194
     22  N28       21.5110   47.1420   64.9690 N.pl3   2  BMH2       -0.2306
     23  C27       21.1600   46.1640   66.0080 C.3     2  BMH2        0.1226
     24  C29       21.0550   47.0360   63.5860 C.2     2  BMH2        0.1749
     25  N26       20.5000   48.1940   63.1790 N.2     2  BMH2       -0.2329
@<TRIPOS>BOND
     1    25    24    2
     2    25    21    1
     3    24    22    1
     4    21    20    1
     5    22    20    1
     6    22    23    1
     7    20    19    1
     8    23    18    1
     9    19    18    1
    10    18    17    1
    11    17    16    1
    12    15    14    1
    13    14    16    1
    14    14     8    1
    15    16    10    1
    16     8     9    1
    17     8     4    1
    18    10    11    1
    19    10     9    1
    20    10     6    1
    21    11    12   ar
    22    11    13   ar
    23     1     2   ar
    24     3     2   ar
    25     2     4    1
    26     4     5    1
    27     5     6    1
    28     5     7    1
