@<TRIPOS>MOLECULE
1x8j_AE2_A_1.pdb
 21 24 0 0 0
SMALL
GASTEIGER

@<TRIPOS>ATOM
      1  C1        22.9800   -7.5390   41.0900 C.3   400  AE2400      0.0026
      2  C2        24.3850   -8.1060   40.7770 C.3   400  AE2400      0.0329
      3  C3        25.0090   -8.7760   42.0230 C.3   400  AE2400      0.1520
      4  O3        25.3520   -7.7130   42.9430 O.3   400  AE2400     -0.2232
      5  C4        24.0890   -9.7800   42.6710 C.3   400  AE2400      0.0329
      6  C5        22.6790   -9.2060   42.9830 C.3   400  AE2400      0.0025
      7  C6        21.7460  -10.2660   43.6460 C.3   400  AE2400      0.0001
      8  C7        20.3830   -9.6810   43.9470 C.3   400  AE2400      0.0000
      9  C8        19.6740   -9.0990   42.6990 C.3   400  AE2400      0.0004
     10  C9        20.5900   -8.0130   42.0410 C.3   400  AE2400      0.0000
     11  C10       22.0060   -8.6220   41.6670 C.3   400  AE2400      0.0002
     12  C11       19.8580   -7.4110   40.7930 C.3   400  AE2400      0.0004
     13  C12       18.4480   -6.8110   41.1350 C.3   400  AE2400      0.0069
     14  C13       17.5610   -7.8710   41.8020 C.3   400  AE2400      0.0515
     15  C14       18.3140   -8.4700   43.0420 C.3   400  AE2400      0.0070
     16  C15       17.1990   -9.3050   43.7140 C.3   400  AE2400      0.0082
     17  C16       16.0410   -8.3040   43.7020 C.3   400  AE2400      0.0645
     18  C17       16.2940   -7.3780   42.5030 C.2   400  AE2400      0.1498
     19  O17       15.6040   -6.4500   42.2020 O.2   400  AE2400     -0.2961
     20  C18       17.0970   -8.9470   40.7530 C.3   400  AE2400      0.0073
     21  C19       21.8310   -9.7350   40.5690 C.3   400  AE2400      0.0000
@<TRIPOS>BOND
     1    21    11    1
     2    20    14    1
     3     2     1    1
     4     2     3    1
     5    12    13    1
     6    12    10    1
     7     1    11    1
     8    13    14    1
     9    11    10    1
    10    11     6    1
    11    14    18    1
    12    14    15    1
    13     3     5    1
    14     3     4    1
    15    10     9    1
    16    19    18    2
    17    18    17    1
    18     5     6    1
    19     9    15    1
    20     9     8    1
    21     6     7    1
    22    15    16    1
    23     7     8    1
    24    17    16    1
