@<TRIPOS>MOLECULE
1x8j_A3P_A_1.pdb
 27 29 0 0 0
SMALL
GASTEIGER

@<TRIPOS>ATOM
      1  P1        12.6060    7.8070   38.2430 P.3   601  A3P601      0.5327
      2  O1P       13.8790    7.0920   38.0050 O.3   601  A3P601     -0.1145
      3  O2P       12.6450    8.5670   39.4930 O.3   601  A3P601     -0.1145
      4  O3P       12.3030    8.7060   37.1170 O.2   601  A3P601     -0.2224
      5  P2         9.6350    0.8790   38.6740 P.3   601  A3P601      0.5327
      6  O4P        9.0840    0.7150   40.0230 O.3   601  A3P601     -0.1145
      7  O5P        8.7200    0.3220   37.6840 O.2   601  A3P601     -0.2224
      8  O6P       10.9820    0.2510   38.5710 O.3   601  A3P601     -0.1145
      9  O5'        9.7930    2.4160   38.3710 O.3   601  A3P601     -0.2675
     10  C5'       10.6350    3.2540   39.1260 C.3   601  A3P601      0.1859
     11  C4'       10.2990    4.7170   38.8260 C.3   601  A3P601      0.1796
     12  O4'        9.0810    5.0700   39.5630 O.3   601  A3P601     -0.3136
     13  C3'       11.3640    5.6840   39.3110 C.3   601  A3P601      0.1928
     14  O3'       11.4350    6.7570   38.3400 O.3   601  A3P601     -0.2673
     15  C2'       10.8440    6.0230   40.7150 C.3   601  A3P601      0.2543
     16  O2'       11.4170    7.1230   41.4250 O.3   601  A3P601     -0.2131
     17  C1'        9.3560    6.1510   40.4440 C.3   601  A3P601      0.3185
     18  N9         8.5480    6.0320   41.6680 N.pl3 601  A3P601     -0.1439
     19  C8         8.5900    5.0700   42.6670 C.3   601  A3P601      0.3377
     20  N7         7.7310    5.2460   43.6400 N.2   601  A3P601     -0.2095
     21  C5         7.0640    6.4100   43.2720 C.2   601  A3P601      0.2526
     22  C6         5.9910    7.1900   43.8710 C.2   601  A3P601      0.4393
     23  N6         5.3940    6.8710   45.0350 N.pl3 601  A3P601      0.2180
     24  N1         5.5570    8.3350   43.1940 N.2   601  A3P601      0.0021
     25  C2         6.1320    8.7010   42.0080 C.3   601  A3P601      0.5254
     26  N3         7.1400    8.0510   41.3590 N.2   601  A3P601     -0.0055
     27  C4         7.5610    6.9120   42.0390 C.2   601  A3P601      0.3518
@<TRIPOS>BOND
     1     4     1    2
     2     7     5    2
     3     2     1    1
     4     1    14    1
     5     1     3    1
     6    14    13    1
     7     9     5    1
     8     9    10    1
     9     8     5    1
    10     5     6    1
    11    11    10    1
    12    11    13    1
    13    11    12    1
    14    13    15    1
    15    12    17    1
    16    17    15    1
    17    17    18    1
    18    15    16    1
    19    26    25    1
    20    26    27    2
    21    18    27    1
    22    18    19    1
    23    25    24    1
    24    27    21    1
    25    19    20    1
    26    24    22    2
    27    21    20    2
    28    21    22    1
    29    22    23    1
