@<TRIPOS>MOLECULE
1x8k_ANR_A_1.pdb
 20 20 0 0 0
SMALL
GASTEIGER

@<TRIPOS>ATOM
      1  C15       13.0830   -3.0060   38.8210 C.2   1102  ANR1102    -0.0003
      2  C14       14.3540   -3.2390   39.2740 C.2   1102  ANR1102    -0.0043
      3  C13       14.8830   -3.7590   40.4610 C.2   1102  ANR1102    -0.0219
      4  C20       14.0840   -3.8350   41.7990 C.3   1102  ANR1102     0.0310
      5  C12       16.1900   -4.2350   40.4350 C.2   1102  ANR1102    -0.0046
      6  C11       16.9760   -4.8130   41.4260 C.2   1102  ANR1102    -0.0046
      7  C10       17.5070   -6.0740   41.3060 C.2   1102  ANR1102    -0.0221
      8  C9        18.2860   -6.9110   42.0760 C.3   1102  ANR1102     0.0437
      9  C19       17.6590   -7.8290   43.1710 C.3   1102  ANR1102     0.0094
     10  C8        19.6430   -6.9130   41.8150 C.2   1102  ANR1102    -0.0263
     11  C7        20.6130   -7.6720   42.3980 C.2   1102  ANR1102    -0.0263
     12  C6        21.9680   -8.0660   42.3040 C.3   1102  ANR1102     0.0436
     13  C1        23.1570   -7.5850   41.2570 C.3   1102  ANR1102     0.0258
     14  C17       23.4800   -6.0620   41.3960 C.3   1102  ANR1102     0.0050
     15  C18       22.9560   -8.0300   39.7970 C.3   1102  ANR1102     0.0050
     16  C2        24.5980   -8.1830   41.4030 C.2   1102  ANR1102    -0.0262
     17  C3        24.8260   -9.1910   42.5350 C.2   1102  ANR1102    -0.0052
     18  C4        23.5800   -9.4840   43.3810 C.2   1102  ANR1102    -0.0085
     19  C5        22.3120   -8.9910   43.2840 C.2   1102  ANR1102    -0.0399
     20  C16       21.3910   -9.5970   44.3880 C.3   1102  ANR1102     0.0267
@<TRIPOS>BOND
     1     1     2    2
     2     2     3    1
     3    15    13    1
     4     5     3    2
     5     5     6    1
     6     3     4    1
     7    13    14    1
     8    13    16    1
     9    13    12    1
    10     7     6    2
    11     7     8    1
    12    16    17    2
    13    10     8    1
    14    10    11    2
    15     8     9    1
    16    12    11    1
    17    12    19    1
    18    17    18    1
    19    19    18    2
    20    19    20    1
