@<TRIPOS>MOLECULE
1x8k_A3P_B_1.pdb
 27 29 0 0 0
SMALL
GASTEIGER

@<TRIPOS>ATOM
      1  P1        12.6920    8.4890   38.4320 P.3   1101  A3P1101     0.5327
      2  O1P       12.2910    9.1070   37.1100 O.2   1101  A3P1101    -0.2224
      3  O2P       12.5670    9.4400   39.6020 O.3   1101  A3P1101    -0.1145
      4  O3P       14.0050    7.7550   38.3390 O.3   1101  A3P1101    -0.1145
      5  P2         9.6790    1.6270   38.7070 P.3   1101  A3P1101     0.5327
      6  O4P       11.1650    1.3540   38.6150 O.3   1101  A3P1101    -0.1145
      7  O5P        9.0670    1.2890   40.0460 O.3   1101  A3P1101    -0.1145
      8  O6P        8.8700    1.1110   37.5320 O.2   1101  A3P1101    -0.2224
      9  O5'        9.5980    3.2450   38.6260 O.3   1101  A3P1101    -0.2675
     10  C5'       10.6360    4.0340   39.1850 C.3   1101  A3P1101     0.1859
     11  C4'       10.4030    5.5120   38.9240 C.3   1101  A3P1101     0.1796
     12  O4'        9.2030    5.8930   39.5890 O.3   1101  A3P1101    -0.3136
     13  C3'       11.5500    6.2700   39.5550 C.3   1101  A3P1101     0.1928
     14  O3'       11.5710    7.3560   38.6230 O.3   1101  A3P1101    -0.2673
     15  C2'       11.0130    6.9030   40.8110 C.3   1101  A3P1101     0.2543
     16  O2'       11.6430    8.0860   41.2910 O.3   1101  A3P1101    -0.2131
     17  C1'        9.4990    6.8320   40.6430 C.3   1101  A3P1101     0.3185
     18  N9         8.6690    6.7510   41.8480 N.pl3 1101  A3P1101    -0.1439
     19  C8         8.7340    5.8330   42.8300 C.3   1101  A3P1101     0.3377
     20  N7         7.7850    6.0690   43.7790 N.2   1101  A3P1101    -0.2095
     21  C5         7.1110    7.1640   43.3640 C.2   1101  A3P1101     0.2526
     22  C6         6.0390    7.9230   43.8430 C.2   1101  A3P1101     0.4393
     23  N6         5.4720    7.5610   45.0180 N.pl3 1101  A3P1101     0.2180
     24  N1         5.5890    8.9980   43.1310 N.2   1101  A3P1101     0.0021
     25  C2         6.1590    9.3670   41.9500 C.3   1101  A3P1101     0.5254
     26  N3         7.2040    8.6820   41.4190 N.2   1101  A3P1101    -0.0055
     27  C4         7.6760    7.5460   42.1700 C.2   1101  A3P1101     0.3518
@<TRIPOS>BOND
     1     2     1    2
     2     8     5    2
     3     4     1    1
     4     1    14    1
     5     1     3    1
     6     6     5    1
     7    14    13    1
     8     9     5    1
     9     9    10    1
    10     5     7    1
    11    11    10    1
    12    11    13    1
    13    11    12    1
    14    13    15    1
    15    12    17    1
    16    17    15    1
    17    17    18    1
    18    15    16    1
    19    26    25    1
    20    26    27    2
    21    18    27    1
    22    18    19    1
    23    25    24    1
    24    27    21    1
    25    19    20    1
    26    24    22    2
    27    21    20    2
    28    21    22    1
    29    22    23    1
