@<TRIPOS>MOLECULE
1x8l_A3P_B_1.pdb
 27 29 0 0 0
SMALL
GASTEIGER

@<TRIPOS>ATOM
      1  P1        12.4670    7.3250   38.3070 P.3   1101  A3P1101     0.5327
      2  O1P       13.7920    6.5710   38.1190 O.3   1101  A3P1101    -0.1145
      3  O2P       12.5900    8.1240   39.6560 O.3   1101  A3P1101    -0.1145
      4  O3P       12.2810    8.1830   36.9880 O.2   1101  A3P1101    -0.2224
      5  P2         9.2560    0.5310   38.7560 P.3   1101  A3P1101     0.5327
      6  O4P        8.6040    0.3090   40.1520 O.3   1101  A3P1101    -0.1145
      7  O5P        8.4620   -0.1750   37.6240 O.2   1101  A3P1101    -0.2224
      8  O6P       10.7330    0.0200   38.8050 O.3   1101  A3P1101    -0.1145
      9  O5'        9.2160    2.1190   38.5010 O.3   1101  A3P1101    -0.2675
     10  C5'       10.3070    2.9200   38.9210 C.3   1101  A3P1101     0.1859
     11  C4'       10.0400    4.4120   38.7520 C.3   1101  A3P1101     0.1796
     12  O4'        8.8670    4.7800   39.4560 O.3   1101  A3P1101    -0.3136
     13  C3'       11.1960    5.1410   39.3840 C.3   1101  A3P1101     0.1928
     14  O3'       11.2140    6.3360   38.5600 O.3   1101  A3P1101    -0.2673
     15  C2'       10.7290    5.6560   40.6970 C.3   1101  A3P1101     0.2543
     16  O2'       11.4010    6.7480   41.2870 O.3   1101  A3P1101    -0.2131
     17  C1'        9.2310    5.6950   40.4960 C.3   1101  A3P1101     0.3185
     18  N9         8.4100    5.6730   41.6890 N.pl3 1101  A3P1101    -0.1439
     19  C8         8.3870    4.7200   42.6460 C.3   1101  A3P1101     0.3377
     20  N7         7.4630    5.0270   43.5920 N.2   1101  A3P1101    -0.2095
     21  C5         6.9110    6.1780   43.2460 C.2   1101  A3P1101     0.2526
     22  C6         5.8840    7.0980   43.7610 C.2   1101  A3P1101     0.4393
     23  N6         5.3110    6.7480   44.9080 N.pl3 1101  A3P1101     0.2180
     24  N1         5.5640    8.2090   43.0560 N.2   1101  A3P1101     0.0021
     25  C2         6.1550    8.5610   41.8930 C.3   1101  A3P1101     0.5254
     26  N3         7.1110    7.8010   41.3330 N.2   1101  A3P1101    -0.0055
     27  C4         7.5070    6.5790   42.0060 C.2   1101  A3P1101     0.3518
@<TRIPOS>BOND
     1     4     1    2
     2     7     5    2
     3     2     1    1
     4     1    14    1
     5     1     3    1
     6     9     5    1
     7     9    10    1
     8    14    13    1
     9    11    10    1
    10    11    13    1
    11    11    12    1
    12     5     8    1
    13     5     6    1
    14    13    15    1
    15    12    17    1
    16    17    15    1
    17    17    18    1
    18    15    16    1
    19    26    25    1
    20    26    27    2
    21    18    27    1
    22    18    19    1
    23    25    24    1
    24    27    21    1
    25    19    20    1
    26    24    22    2
    27    21    20    2
    28    21    22    1
    29    22    23    1
