@<TRIPOS>MOLECULE
1x8l_OXR_A_1.pdb
 22 22 0 0 0
SMALL
GASTEIGER

@<TRIPOS>ATOM
      1  O2        24.9080   -8.6040   40.6980 O.2   1102  OXR1102    -0.2869
      2  C4        24.1270   -9.3240   41.2940 C.2   1102  OXR1102     0.1911
      3  C3        24.7130  -10.5410   41.9320 C.2   1102  OXR1102     0.0374
      4  C2        23.7300  -11.4300   42.6680 C.2   1102  OXR1102    -0.0194
      5  C1        22.2390  -11.0620   42.7120 C.3   1102  OXR1102     0.0373
      6  C17       21.8440  -10.8980   44.1820 C.3   1102  OXR1102     0.0087
      7  C16       21.4340  -12.1860   42.0310 C.3   1102  OXR1102     0.0087
      8  C5        22.7050   -9.0000   41.3530 C.2   1102  OXR1102     0.0134
      9  C18       22.3230   -7.7350   40.6470 C.3   1102  OXR1102     0.0341
     10  C6        21.8140   -9.7890   41.9980 C.2   1102  OXR1102    -0.0199
     11  C7        20.3400   -9.5520   42.1280 C.2   1102  OXR1102    -0.0045
     12  C8        19.5850   -8.6470   41.5130 C.2   1102  OXR1102    -0.0046
     13  C9        18.1210   -8.5300   41.7560 C.2   1102  OXR1102    -0.0219
     14  C19       17.3320   -9.3820   42.7260 C.3   1102  OXR1102     0.0310
     15  C10       17.5260   -7.5490   41.0660 C.2   1102  OXR1102    -0.0043
     16  C11       16.1270   -7.2070   41.1830 C.2   1102  OXR1102    -0.0007
     17  C12       15.7470   -6.1100   40.5310 C.2   1102  OXR1102    -0.0045
     18  C13       14.3620   -5.6290   40.5620 C.2   1102  OXR1102    -0.0236
     19  C20       13.3670   -6.1880   41.5490 C.3   1102  OXR1102     0.0308
     20  C14       14.0110   -4.6650   39.7020 C.2   1102  OXR1102     0.0048
     21  C15       12.5940   -4.0990   39.6280 C.3   1102  OXR1102     0.2080
     22  O1        11.6650   -4.9770   38.9950 O.3   1102  OXR1102    -0.2152
@<TRIPOS>BOND
     1    22    21    1
     2    21    20    1
     3    20    18    2
     4    17    18    1
     5    17    16    2
     6    18    19    1
     7     9     8    1
     8     1     2    2
     9    15    16    1
    10    15    13    2
    11     2     8    1
    12     2     3    1
    13     8    10    2
    14    12    13    1
    15    12    11    2
    16    13    14    1
    17     3     4    2
    18    10    11    1
    19    10     5    1
    20     7     5    1
    21     4     5    1
    22     5     6    1
