@<TRIPOS>MOLECULE
1x8n_HEM_A_1.pdb
 43 50 0 0 0
SMALL
GASTEIGER

@<TRIPOS>ATOM
      1 FE         10.8730   20.2140   36.4100 Fe    185  HEM185      0.0000
      2  CHA       11.3830   23.2860   34.9900 C.2   185  HEM185      0.0000
      3  CHB        7.5470   20.6160   36.0270 C.2   185  HEM185      0.0000
      4  CHC       10.3520   17.5880   38.4470 C.2   185  HEM185      0.0000
      5  CHD       14.2030   19.6840   36.4840 C.2   185  HEM185      0.0000
      6  NA         9.7050   21.6140   35.6870 N.ar  185  HEM185      0.0000
      7  C1A       10.0810   22.8720   35.1790 C.ar  185  HEM185      0.0000
      8  C2A        8.9400   23.6630   34.8730 C.ar  185  HEM185      0.0000
      9  C3A        7.8530   22.9490   35.1490 C.ar  185  HEM185      0.0000
     10  C4A        8.3130   21.6260   35.6220 C.ar  185  HEM185      0.0000
     11  CMA        6.3710   23.3090   34.9280 C.3   185  HEM185      0.0000
     12  CAA        8.9650   25.0880   34.2960 C.3   185  HEM185      0.0000
     13  CBA        8.7030   26.0860   35.3990 C.3   185  HEM185      0.0000
     14  CGA        8.7280   27.5490   34.9560 C.2   185  HEM185      0.0000
     15  O1A        9.4550   27.9210   34.0130 O.co2 185  HEM185      0.0000
     16  O2A        7.8940   28.3040   35.4930 O.co2 185  HEM185      0.0000
     17  NB         9.2660   19.2460   37.0870 N.2   185  HEM185      0.0000
     18  C1B        7.9740   19.5090   36.7850 C.2   185  HEM185      0.0000
     19  C2B        7.1140   18.5130   37.3290 C.2   185  HEM185      0.0000
     20  C3B        7.9450   17.6760   38.1520 C.2   185  HEM185      0.0000
     21  C4B        9.2350   18.1590   37.9730 C.2   185  HEM185      0.0000
     22  CMB        5.6240   18.4680   37.1550 C.3   185  HEM185      0.0000
     23  CAB        7.4670   16.5870   38.9440 C.2   185  HEM185      0.0000
     24  CBB        7.7390   16.2670   40.1810 C.2   185  HEM185      0.0000
     25  NC        12.0760   18.9010   37.3070 N.ar  185  HEM185      0.0000
     26  C1C       11.7270   17.8410   38.1000 C.ar  185  HEM185      0.0000
     27  C2C       12.8410   17.0940   38.5310 C.ar  185  HEM185      0.0000
     28  C3C       13.9410   17.6030   37.8830 C.ar  185  HEM185      0.0000
     29  C4C       13.4180   18.7560   37.1890 C.ar  185  HEM185      0.0000
     30  CMC       12.7780   15.8820   39.4660 C.3   185  HEM185      0.0000
     31  CAC       15.1630   17.0070   37.8790 C.2   185  HEM185      0.0000
     32  CBC       16.3260   17.4540   37.7090 C.2   185  HEM185      0.0000
     33  ND        12.4240   21.2290   35.8170 N.2   185  HEM185      0.0000
     34  C1D       13.7630   20.8670   35.8700 C.2   185  HEM185      0.0000
     35  C2D       14.6590   21.8620   35.2820 C.2   185  HEM185      0.0000
     36  C3D       13.8610   22.8690   34.9010 C.2   185  HEM185      0.0000
     37  C4D       12.4950   22.5130   35.2160 C.2   185  HEM185      0.0000
     38  CMD       16.1840   21.7990   35.3230 C.3   185  HEM185      0.0000
     39  CAD       14.2470   24.1800   34.2520 C.3   185  HEM185      0.0000
     40  CBD       14.0480   24.0950   32.7720 C.3   185  HEM185      0.0000
     41  CGD       14.4190   25.3040   32.0490 C.2   185  HEM185      0.0000
     42  O1D       13.7390   26.3240   32.1810 O.co2 185  HEM185      0.0000
     43  O2D       15.2350   25.1550   31.1410 O.co2 185  HEM185      0.0000
@<TRIPOS>BOND
     1    43    41   ar
     2    41    42   ar
     3    41    40    1
     4    40    39    1
     5    15    14   ar
     6    39    36    1
     7    12     8    1
     8    12    13    1
     9     8     9   ar
    10     8     7   ar
    11    36    37    1
    12    36    35    2
    13    11     9    1
    14    14    13    1
    15    14    16   ar
    16     2     7    2
    17     2    37    1
    18     9    10   ar
    19     7     6   ar
    20    37    33    2
    21    35    38    1
    22    35    34    1
    23    10     6   ar
    24    10     3    2
    25     6     1    1
    26    33    34    1
    27    33     1    1
    28    34     5    2
    29     3    18    1
    30     1    17    1
    31     1    25    1
    32     5    29    1
    33    18    17    2
    34    18    19    1
    35    17    21    1
    36    22    19    1
    37    29    25   ar
    38    29    28   ar
    39    25    26   ar
    40    19    20    2
    41    32    31    2
    42    31    28    1
    43    28    27   ar
    44    21    20    1
    45    21     4    2
    46    26     4    1
    47    26    27   ar
    48    20    23    1
    49    27    30    1
    50    23    24    2
