@<TRIPOS>MOLECULE
1x8o_HEM_A_1.pdb
 43 50 0 0 0
SMALL
GASTEIGER

@<TRIPOS>ATOM
      1 FE         10.5640   20.2790   36.6000 Fe    185  HEM185      0.0000
      2  CHA       11.1430   23.2940   35.1810 C.2   185  HEM185      0.0000
      3  CHB        7.2440   20.7070   36.2060 C.2   185  HEM185      0.0000
      4  CHC        9.9990   17.6680   38.6600 C.2   185  HEM185      0.0000
      5  CHD       13.8960   19.6460   36.6490 C.2   185  HEM185      0.0000
      6  NA         9.4310   21.7010   35.8560 N.ar  185  HEM185      0.0000
      7  C1A        9.8110   22.9550   35.3720 C.ar  185  HEM185      0.0000
      8  C2A        8.6740   23.7630   35.0150 C.ar  185  HEM185      0.0000
      9  C3A        7.5910   22.9990   35.2710 C.ar  185  HEM185      0.0000
     10  C4A        8.0300   21.7320   35.7770 C.ar  185  HEM185      0.0000
     11  CMA        6.1270   23.4070   35.1160 C.3   185  HEM185      0.0000
     12  CAA        8.7120   25.1550   34.4520 C.3   185  HEM185      0.0000
     13  CBA        8.5610   26.1860   35.5390 C.3   185  HEM185      0.0000
     14  CGA        8.4970   27.6090   35.0570 C.2   185  HEM185      0.0000
     15  O1A        9.2560   28.0070   34.1510 O.co2 185  HEM185      0.0000
     16  O2A        7.6730   28.3560   35.5850 O.co2 185  HEM185      0.0000
     17  NB         8.9470   19.3330   37.2810 N.2   185  HEM185      0.0000
     18  C1B        7.6580   19.5910   36.9220 C.2   185  HEM185      0.0000
     19  C2B        6.7490   18.6120   37.5080 C.2   185  HEM185      0.0000
     20  C3B        7.5520   17.7860   38.3040 C.2   185  HEM185      0.0000
     21  C4B        8.8890   18.2580   38.1330 C.2   185  HEM185      0.0000
     22  CMB        5.2740   18.5320   37.2810 C.3   185  HEM185      0.0000
     23  CAB        7.1460   16.6680   39.1000 C.2   185  HEM185      0.0000
     24  CBB        7.4490   16.4080   40.3280 C.2   185  HEM185      0.0000
     25  NC        11.7490   18.9410   37.5000 N.ar  185  HEM185      0.0000
     26  C1C       11.3450   17.9190   38.3210 C.ar  185  HEM185      0.0000
     27  C2C       12.4910   17.1430   38.7750 C.ar  185  HEM185      0.0000
     28  C3C       13.5860   17.6460   38.1150 C.ar  185  HEM185      0.0000
     29  C4C       13.1010   18.7940   37.3560 C.ar  185  HEM185      0.0000
     30  CMC       12.4160   15.9730   39.7310 C.3   185  HEM185      0.0000
     31  CAC       14.8550   17.1240   38.0960 C.2   185  HEM185      0.0000
     32  CBC       16.0250   17.5750   38.0000 C.2   185  HEM185      0.0000
     33  ND        12.1760   21.2710   35.9970 N.2   185  HEM185      0.0000
     34  C1D       13.4890   20.8340   36.0590 C.2   185  HEM185      0.0000
     35  C2D       14.3640   21.8050   35.4580 C.2   185  HEM185      0.0000
     36  C3D       13.5800   22.8570   35.0660 C.2   185  HEM185      0.0000
     37  C4D       12.2160   22.5030   35.4080 C.2   185  HEM185      0.0000
     38  CMD       15.8660   21.6770   35.3770 C.3   185  HEM185      0.0000
     39  CAD       13.9870   24.1290   34.3650 C.3   185  HEM185      0.0000
     40  CBD       13.6670   24.1020   32.8820 C.3   185  HEM185      0.0000
     41  CGD       14.0410   25.1760   31.9670 C.2   185  HEM185      0.0000
     42  O1D       13.5340   25.3530   30.9030 O.co2 185  HEM185      0.0000
     43  O2D       14.8530   25.9510   32.4960 O.co2 185  HEM185      0.0000
@<TRIPOS>BOND
     1    42    41   ar
     2    41    43   ar
     3    41    40    1
     4    40    39    1
     5    15    14   ar
     6    39    36    1
     7    12     8    1
     8    12    13    1
     9     8     9   ar
    10     8     7   ar
    11    14    13    1
    12    14    16   ar
    13    36    37    1
    14    36    35    2
    15    11     9    1
    16     2     7    2
    17     2    37    1
    18     9    10   ar
    19     7     6   ar
    20    38    35    1
    21    37    33    2
    22    35    34    1
    23    10     6   ar
    24    10     3    2
    25     6     1    1
    26    33    34    1
    27    33     1    1
    28    34     5    2
    29     3    18    1
    30     1    17    1
    31     1    25    1
    32     5    29    1
    33    18    17    2
    34    18    19    1
    35    17    21    1
    36    22    19    1
    37    29    25   ar
    38    29    28   ar
    39    25    26   ar
    40    19    20    2
    41    32    31    2
    42    31    28    1
    43    28    27   ar
    44    21    20    1
    45    21     4    2
    46    20    23    1
    47    26     4    1
    48    26    27   ar
    49    27    30    1
    50    23    24    2
