@<TRIPOS>MOLECULE
1x8p_HEM_A_1.pdb
 43 50 0 0 0
SMALL
GASTEIGER

@<TRIPOS>ATOM
      1 FE         10.9820   20.2050   36.4620 Fe    185  HEM185      0.0000
      2  CHA       11.4550   23.1860   34.9450 C.2   185  HEM185      0.0000
      3  CHB        7.6840   20.5460   36.0410 C.2   185  HEM185      0.0000
      4  CHC       10.5080   17.4610   38.4280 C.2   185  HEM185      0.0000
      5  CHD       14.2910   19.6710   36.5120 C.2   185  HEM185      0.0000
      6  NA         9.7840   21.5450   35.6370 N.ar  185  HEM185      0.0000
      7  C1A       10.1580   22.8010   35.1330 C.ar  185  HEM185      0.0000
      8  C2A        9.0650   23.5900   34.7860 C.ar  185  HEM185      0.0000
      9  C3A        7.9930   22.8450   35.0650 C.ar  185  HEM185      0.0000
     10  C4A        8.4270   21.5590   35.5960 C.ar  185  HEM185      0.0000
     11  CMA        6.5300   23.2410   34.8800 C.3   185  HEM185      0.0000
     12  CAA        9.0660   24.9970   34.2380 C.3   185  HEM185      0.0000
     13  CBA        8.7510   26.0050   35.3140 C.3   185  HEM185      0.0000
     14  CGA        8.7440   27.4730   34.8740 C.2   185  HEM185      0.0000
     15  O1A        9.4340   27.8380   33.8880 O.co2 185  HEM185      0.0000
     16  O2A        8.0610   28.2380   35.4870 O.co2 185  HEM185      0.0000
     17  NB         9.3840   19.1970   37.0630 N.2   185  HEM185      0.0000
     18  C1B        8.1030   19.4070   36.7590 C.2   185  HEM185      0.0000
     19  C2B        7.2080   18.4460   37.3570 C.2   185  HEM185      0.0000
     20  C3B        8.0680   17.5530   38.0800 C.2   185  HEM185      0.0000
     21  C4B        9.3680   18.0450   37.8890 C.2   185  HEM185      0.0000
     22  CMB        5.7490   18.3650   37.1680 C.3   185  HEM185      0.0000
     23  CAB        7.5880   16.4880   38.9050 C.2   185  HEM185      0.0000
     24  CBB        7.8260   16.4170   40.1970 C.2   185  HEM185      0.0000
     25  NC        12.1880   18.8580   37.2760 N.ar  185  HEM185      0.0000
     26  C1C       11.7980   17.8200   38.1000 C.ar  185  HEM185      0.0000
     27  C2C       12.9620   17.0670   38.5590 C.ar  185  HEM185      0.0000
     28  C3C       14.0850   17.6190   37.9290 C.ar  185  HEM185      0.0000
     29  C4C       13.5170   18.7840   37.1590 C.ar  185  HEM185      0.0000
     30  CMC       12.9260   15.8720   39.4950 C.3   185  HEM185      0.0000
     31  CAC       15.3380   17.1360   37.9130 C.2   185  HEM185      0.0000
     32  CBC       16.5380   17.5500   37.7010 C.2   185  HEM185      0.0000
     33  ND        12.5640   21.2080   35.7960 N.2   185  HEM185      0.0000
     34  C1D       13.8420   20.8120   35.8810 C.2   185  HEM185      0.0000
     35  C2D       14.7580   21.8480   35.2990 C.2   185  HEM185      0.0000
     36  C3D       13.9270   22.8400   34.8640 C.2   185  HEM185      0.0000
     37  C4D       12.5610   22.4350   35.1990 C.2   185  HEM185      0.0000
     38  CMD       16.2660   21.7200   35.2470 C.3   185  HEM185      0.0000
     39  CAD       14.3160   24.0850   34.1190 C.3   185  HEM185      0.0000
     40  CBD       13.9200   24.0240   32.6770 C.3   185  HEM185      0.0000
     41  CGD       14.4640   25.1390   31.8880 C.2   185  HEM185      0.0000
     42  O1D       15.4470   24.9400   31.1180 O.co2 185  HEM185      0.0000
     43  O2D       13.8530   26.2170   31.8730 O.co2 185  HEM185      0.0000
@<TRIPOS>BOND
     1    42    41   ar
     2    43    41   ar
     3    41    40    1
     4    40    39    1
     5    15    14   ar
     6    39    36    1
     7    12     8    1
     8    12    13    1
     9     8     9   ar
    10     8     7   ar
    11    36    37    1
    12    36    35    2
    13    14    13    1
    14    14    16   ar
    15    11     9    1
    16     2     7    2
    17     2    37    1
    18     9    10   ar
    19     7     6   ar
    20    37    33    2
    21    38    35    1
    22    35    34    1
    23    10     6   ar
    24    10     3    2
    25     6     1    1
    26    33    34    1
    27    33     1    1
    28    34     5    2
    29     3    18    1
    30     1    17    1
    31     1    25    1
    32     5    29    1
    33    18    17    2
    34    18    19    1
    35    17    21    1
    36    29    25   ar
    37    29    28   ar
    38    22    19    1
    39    25    26   ar
    40    19    20    2
    41    32    31    2
    42    21    20    1
    43    21     4    2
    44    31    28    1
    45    28    27   ar
    46    20    23    1
    47    26     4    1
    48    26    27   ar
    49    27    30    1
    50    23    24    2
