@<TRIPOS>MOLECULE
1x8q_HEM_A_1.pdb
 43 50 0 0 0
SMALL
GASTEIGER

@<TRIPOS>ATOM
      1 FE         10.6530   20.2680   36.5510 Fe    185  HEM185      0.0000
      2  CHA       11.1360   23.2290   35.0070 C.2   185  HEM185      0.0000
      3  CHB        7.3220   20.6350   36.1580 C.2   185  HEM185      0.0000
      4  CHC       10.1480   17.5000   38.4560 C.2   185  HEM185      0.0000
      5  CHD       14.0070   19.7090   36.5970 C.2   185  HEM185      0.0000
      6  NA         9.4660   21.6230   35.7320 N.ar  185  HEM185      0.0000
      7  C1A        9.8690   22.8460   35.2230 C.ar  185  HEM185      0.0000
      8  C2A        8.7380   23.6500   34.9100 C.ar  185  HEM185      0.0000
      9  C3A        7.6450   22.9200   35.2090 C.ar  185  HEM185      0.0000
     10  C4A        8.1480   21.6500   35.7070 C.ar  185  HEM185      0.0000
     11  CMA        6.2010   23.3190   35.0530 C.3   185  HEM185      0.0000
     12  CAA        8.7200   25.0470   34.3550 C.3   185  HEM185      0.0000
     13  CBA        8.6030   26.0780   35.4130 C.3   185  HEM185      0.0000
     14  CGA        8.5080   27.5090   34.9550 C.2   185  HEM185      0.0000
     15  O1A        9.2200   27.9030   34.0230 O.co2 185  HEM185      0.0000
     16  O2A        7.6710   28.2420   35.4520 O.co2 185  HEM185      0.0000
     17  NB         9.0630   19.2150   37.1410 N.2   185  HEM185      0.0000
     18  C1B        7.7370   19.4970   36.8580 C.2   185  HEM185      0.0000
     19  C2B        6.8530   18.5180   37.4640 C.2   185  HEM185      0.0000
     20  C3B        7.7040   17.6340   38.1560 C.2   185  HEM185      0.0000
     21  C4B        9.0470   18.1060   37.9530 C.2   185  HEM185      0.0000
     22  CMB        5.3770   18.4990   37.3190 C.3   185  HEM185      0.0000
     23  CAB        7.2790   16.4990   38.9660 C.2   185  HEM185      0.0000
     24  CBB        7.3340   16.3260   40.2560 C.2   185  HEM185      0.0000
     25  NC        11.8420   18.8680   37.3640 N.ar  185  HEM185      0.0000
     26  C1C       11.4610   17.8310   38.1650 C.ar  185  HEM185      0.0000
     27  C2C       12.6600   17.0650   38.5920 C.ar  185  HEM185      0.0000
     28  C3C       13.7390   17.6420   38.0010 C.ar  185  HEM185      0.0000
     29  C4C       13.2230   18.8030   37.2420 C.ar  185  HEM185      0.0000
     30  CMC       12.5810   15.9180   39.5530 C.3   185  HEM185      0.0000
     31  CAC       15.0990   17.2630   38.0240 C.3   185  HEM185      0.0000
     32  CBC       15.1710   16.1130   37.4720 C.3   185  HEM185      0.0000
     33  ND        12.2550   21.2230   35.8880 N.2   185  HEM185      0.0000
     34  C1D       13.5650   20.8580   35.9970 C.2   185  HEM185      0.0000
     35  C2D       14.4450   21.8730   35.4330 C.2   185  HEM185      0.0000
     36  C3D       13.6210   22.8910   35.0000 C.2   185  HEM185      0.0000
     37  C4D       12.2810   22.4570   35.2830 C.2   185  HEM185      0.0000
     38  CMD       15.9660   21.7950   35.3790 C.3   185  HEM185      0.0000
     39  CAD       13.9990   24.1370   34.2420 C.3   185  HEM185      0.0000
     40  CBD       13.7660   24.0470   32.7630 C.3   185  HEM185      0.0000
     41  CGD       14.1350   25.2020   31.8850 C.2   185  HEM185      0.0000
     42  O1D       14.9780   24.9700   31.0680 O.co2 185  HEM185      0.0000
     43  O2D       13.5740   26.2490   31.9730 O.co2 185  HEM185      0.0000
@<TRIPOS>BOND
     1    42    41   ar
     2    41    43   ar
     3    41    40    1
     4    40    39    1
     5    15    14   ar
     6    39    36    1
     7    12     8    1
     8    12    13    1
     9     8     9   ar
    10     8     7   ar
    11    14    13    1
    12    14    16   ar
    13    36    37    1
    14    36    35    2
    15     2     7    2
    16     2    37    1
    17    11     9    1
    18     9    10   ar
    19     7     6   ar
    20    37    33    2
    21    38    35    1
    22    35    34    1
    23    10     6   ar
    24    10     3    2
    25     6     1    1
    26    33    34    1
    27    33     1    1
    28    34     5    2
    29     3    18    1
    30     1    17    1
    31     1    25    1
    32     5    29    1
    33    18    17    2
    34    18    19    1
    35    17    21    1
    36    29    25   ar
    37    29    28   ar
    38    22    19    1
    39    25    26   ar
    40    19    20    2
    41    32    31    1
    42    21    20    1
    43    21     4    2
    44    28    31    1
    45    28    27   ar
    46    20    23    1
    47    26     4    1
    48    26    27   ar
    49    27    30    1
    50    23    24    2
