@<TRIPOS>MOLECULE
1x8r_SC1_A_1.pdb
 25 25 0 0 0
SMALL
GASTEIGER

@<TRIPOS>ATOM
      1  C1        56.2860   12.1770   27.9070 C.2   601  SC1601      0.0582
      2  C2        55.1440   11.3880   28.2520 C.2   601  SC1601      0.0084
      3  C3        55.3160   10.1140   29.0520 C.3   601  SC1601      0.1808
      4  C4        56.7150   10.0620   29.8670 C.3   601  SC1601      0.2108
      5  C5        57.8740   10.2840   28.8460 C.3   601  SC1601      0.1538
      6  C6        57.6980   11.7780   28.3270 C.3   601  SC1601      0.0651
      7  C7        56.1070   13.4350   27.1360 C.2   601  SC1601      0.3837
      8  O1        55.1400    8.8710   28.0560 O.3   601  SC1601     -0.2655
      9  O2        56.7200    8.7810   30.5050 O.3   601  SC1601     -0.2175
     10  O3        59.1440   10.1660   29.4990 O.3   601  SC1601     -0.3409
     11  O4        55.2130   13.4830   26.3050 O.co2 601  SC1601     -0.2409
     12  O5        56.8630   14.3300   27.3980 O.co2 601  SC1601     -0.2409
     13  P1        53.7310    7.9660   27.8310 P.3   601  SC1601      0.5329
     14  O6        52.7100    8.9450   27.2190 O.3   601  SC1601     -0.1145
     15  O7        53.3550    7.4670   29.2770 O.3   601  SC1601     -0.1145
     16  O8        54.2470    6.9310   26.8210 O.2   601  SC1601     -0.2224
     17  C8        60.0980    9.0840   29.1230 C.3   601  SC1601      0.2304
     18  C9        59.5270    7.5800   29.0190 C.3   601  SC1601      0.0490
     19  C10       61.3260    9.1880   30.0280 C.2   601  SC1601      0.3951
     20  O9        61.7740   10.3270   30.3930 O.co2 601  SC1601     -0.2426
     21  O10       61.7160    8.0690   30.4590 O.co2 601  SC1601     -0.2426
     22  P2        60.5300    9.3660   27.2920 P.3   601  SC1601      0.1519
     23  O11       61.8580    8.6100   27.0230 O.3   601  SC1601     -0.3553
     24  O12       60.7630   10.8400   27.0870 O.3   601  SC1601     -0.3553
     25  O13       59.4030    8.7680   26.3880 O.2   601  SC1601     -0.4573
@<TRIPOS>BOND
     1    11     7   ar
     2    25    22    2
     3    16    13    2
     4    23    22    1
     5    24    22    1
     6     7    12   ar
     7     7     1    1
     8    14    13    1
     9    22    17    1
    10    13     8    1
    11    13    15    1
    12     1     2    2
    13     1     6    1
    14     8     3    1
    15     2     3    1
    16     6     5    1
    17     5    10    1
    18     5     4    1
    19    18    17    1
    20     3     4    1
    21    17    10    1
    22    17    19    1
    23     4     9    1
    24    19    20   ar
    25    19    21   ar
