@<TRIPOS>MOLECULE
1x8t_RC1_A_1.pdb
 25 25 0 0 0
SMALL
GASTEIGER

@<TRIPOS>ATOM
      1  C1        55.8030   11.9350   27.8550 C.2   501  RC1501      0.0582
      2  C2        54.6220   11.1690   28.2080 C.2   501  RC1501      0.0084
      3  C3        54.7650    9.9130   29.0750 C.3   501  RC1501      0.1808
      4  C4        56.1310    9.8630   29.9330 C.3   501  RC1501      0.2108
      5  C5        57.3210   10.0410   28.9260 C.3   501  RC1501      0.1538
      6  C6        57.1860   11.5150   28.3320 C.3   501  RC1501      0.0651
      7  C7        55.6940   13.1670   27.0270 C.2   501  RC1501      0.3837
      8  O1        54.6210    8.6340   28.1460 O.3   501  RC1501     -0.2655
      9  O2        56.0810    8.5990   30.6110 O.3   501  RC1501     -0.2175
     10  O3        58.5540    9.9620   29.5950 O.3   501  RC1501     -0.3409
     11  O4        54.8180   13.2210   26.1670 O.co2 501  RC1501     -0.2409
     12  O5        56.4840   14.0500   27.2860 O.co2 501  RC1501     -0.2409
     13  P1        53.2190    7.7330   27.9710 P.3   501  RC1501      0.5329
     14  O6        52.1840    8.6870   27.3720 O.3   501  RC1501     -0.1145
     15  O7        52.8950    7.2660   29.4410 O.3   501  RC1501     -0.1145
     16  O8        53.7400    6.6690   26.9740 O.2   501  RC1501     -0.2224
     17  C8        59.3510    8.7640   29.3120 C.3   501  RC1501      0.2304
     18  C9        58.7320    7.2620   29.1790 C.3   501  RC1501      0.0490
     19  C10       60.0790    9.3710   28.0400 C.2   501  RC1501      0.3951
     20  O9        60.2010   10.3930   27.2930 O.co2 501  RC1501     -0.2426
     21  O10       60.7090    8.2960   27.8390 O.co2 501  RC1501     -0.2426
     22  P2        60.5990    8.7680   30.6810 P.3   501  RC1501      0.1519
     23  O11       59.7550    8.2620   31.8700 O.3   501  RC1501     -0.3553
     24  O12       61.1880   10.1270   30.9690 O.3   501  RC1501     -0.3553
     25  O13       61.6650    7.6970   30.3420 O.2   501  RC1501     -0.4573
@<TRIPOS>BOND
     1    11     7   ar
     2    16    13    2
     3     7    12   ar
     4     7     1    1
     5    20    19   ar
     6    14    13    1
     7    21    19   ar
     8     1     2    2
     9     1     6    1
    10    13     8    1
    11    13    15    1
    12    19    17    1
    13     8     3    1
    14     2     3    1
    15     6     5    1
    16     5    10    1
    17     5     4    1
    18     3     4    1
    19    18    17    1
    20    17    10    1
    21    17    22    1
    22     4     9    1
    23    25    22    2
    24    22    24    1
    25    22    23    1
