@<TRIPOS>MOLECULE
1x8v_HEM_A_1.pdb
 43 50 0 0 0
SMALL
GASTEIGER

@<TRIPOS>ATOM
      1 FE        -16.7670   -6.2020   63.2240 Fe    470  HEM470      0.0000
      2  CHA      -18.3100   -6.9140   66.1720 C.2   470  HEM470      0.0000
      3  CHB      -13.9570   -7.7900   64.3340 C.2   470  HEM470      0.0000
      4  CHC      -15.2040   -5.4580   60.2910 C.2   470  HEM470      0.0000
      5  CHD      -19.5460   -4.5360   62.1620 C.2   470  HEM470      0.0000
      6  NA       -16.2360   -7.1760   64.9380 N.2   470  HEM470      0.0000
      7  C1A      -17.0310   -7.3690   66.0440 C.2   470  HEM470      0.0000
      8  C2A      -16.2890   -8.1330   67.0400 C.2   470  HEM470      0.0000
      9  C3A      -15.0730   -8.3620   66.5330 C.2   470  HEM470      0.0000
     10  C4A      -15.0170   -7.7740   65.2070 C.2   470  HEM470      0.0000
     11  CMA      -13.9160   -9.1200   67.1950 C.3   470  HEM470      0.0000
     12  CAA      -16.8460   -8.5870   68.4170 C.3   470  HEM470      0.0000
     13  CBA      -16.9230   -7.5360   69.5240 C.3   470  HEM470      0.0000
     14  CGA      -17.4030   -8.1200   70.8700 C.2   470  HEM470      0.0000
     15  O1A      -17.5080   -9.4040   70.9240 O.co2 470  HEM470      0.0000
     16  O2A      -17.6560   -7.3500   71.7940 O.co2 470  HEM470      0.0000
     17  NB       -14.9470   -6.5480   62.4490 N.ar  470  HEM470      0.0000
     18  C1B      -13.9110   -7.2380   63.0800 C.ar  470  HEM470      0.0000
     19  C2B      -12.7570   -7.2920   62.2030 C.ar  470  HEM470      0.0000
     20  C3B      -13.0980   -6.6310   61.0580 C.ar  470  HEM470      0.0000
     21  C4B      -14.4580   -6.1730   61.2140 C.ar  470  HEM470      0.0000
     22  CMB      -11.4320   -7.9770   62.5520 C.3   470  HEM470      0.0000
     23  CAB      -12.2510   -6.3710   59.7880 C.3   470  HEM470      0.0000
     24  CBB      -11.7430   -7.6240   59.0540 C.3   470  HEM470      0.0000
     25  NC       -17.2850   -5.2060   61.5620 N.2   470  HEM470      0.0000
     26  C1C      -16.4990   -5.0110   60.4520 C.2   470  HEM470      0.0000
     27  C2C      -17.2310   -4.2470   59.4360 C.2   470  HEM470      0.0000
     28  C3C      -18.4470   -3.9780   59.9510 C.2   470  HEM470      0.0000
     29  C4C      -18.4910   -4.5720   61.2790 C.2   470  HEM470      0.0000
     30  CMC      -16.6310   -3.8640   58.0540 C.3   470  HEM470      0.0000
     31  CAC      -19.6310   -3.1970   59.3330 C.3   470  HEM470      0.0000
     32  CBC      -20.1800   -3.7560   58.0120 C.3   470  HEM470      0.0000
     33  ND       -18.5500   -5.8090   64.0010 N.ar  470  HEM470      0.0000
     34  C1D      -19.6040   -5.0920   63.4170 C.ar  470  HEM470      0.0000
     35  C2D      -20.7370   -5.0350   64.3320 C.ar  470  HEM470      0.0000
     36  C3D      -20.3900   -5.7100   65.4510 C.ar  470  HEM470      0.0000
     37  C4D      -19.0340   -6.1840   65.2480 C.ar  470  HEM470      0.0000
     38  CMD      -22.0790   -4.3240   64.0360 C.3   470  HEM470      0.0000
     39  CAD      -21.2510   -5.9410   66.7100 C.3   470  HEM470      0.0000
     40  CBD      -21.7590   -7.4220   66.7370 C.3   470  HEM470      0.0000
     41  CGD      -22.6050   -7.7670   67.9460 C.2   470  HEM470      0.0000
     42  O1D      -23.5380   -8.5750   67.8240 O.co2 470  HEM470      0.0000
     43  O2D      -22.2780   -7.2140   69.0160 O.co2 470  HEM470      0.0000
@<TRIPOS>BOND
     1    32    31    1
     2    30    27    1
     3    24    23    1
     4    31    28    1
     5    27    28    2
     6    27    26    1
     7    23    20    1
     8    28    29    1
     9     4    26    2
    10     4    21    1
    11    26    25    1
    12    20    21   ar
    13    20    19   ar
    14    21    17   ar
    15    29    25    2
    16    29     5    1
    17    25     1    1
    18     5    34    2
    19    19    22    1
    20    19    18   ar
    21    17    18   ar
    22    17     1    1
    23    18     3    1
    24     1    33    1
    25     1     6    1
    26    34    33   ar
    27    34    35   ar
    28    33    37   ar
    29    38    35    1
    30    35    36   ar
    31     3    10    2
    32     6    10    1
    33     6     7    2
    34    10     9    1
    35    37    36   ar
    36    37     2    2
    37    36    39    1
    38     7     2    1
    39     7     8    1
    40     9     8    2
    41     9    11    1
    42    39    40    1
    43    40    41    1
    44     8    12    1
    45    42    41   ar
    46    41    43   ar
    47    12    13    1
    48    13    14    1
    49    14    15   ar
    50    14    16   ar
