@<TRIPOS>MOLECULE
1x8v_ESL_A_1.pdb
 21 24 0 0 0
SMALL
GASTEIGER

@<TRIPOS>ATOM
      1  C2       -16.1820   -2.5080   69.3260 C.3   471  ESL471      0.0220
      2  C3       -17.1460   -3.3600   70.1650 C.3   471  ESL471      0.0044
      3  C4       -18.4800   -3.5400   69.3820 C.3   471  ESL471      0.0029
      4  C5       -19.1080   -2.1770   69.1350 C.3   471  ESL471      0.0308
      5  C6       -19.5150   -1.5890   70.5350 C.3   471  ESL471      0.0026
      6  C7       -20.4070   -2.1390   68.2850 C.3   471  ESL471      0.1819
      7  O1       -21.5720   -2.5540   69.0260 O.3   471  ESL471     -0.2204
      8  C8       -20.4710   -0.6520   67.8200 C.3   471  ESL471      0.1821
      9  O2       -20.8160   -0.5730   66.4430 O.3   471  ESL471     -0.2204
     10  C9       -19.0550   -0.0130   68.1180 C.3   471  ESL471      0.0356
     11  C10      -18.1660   -1.2830   68.2650 C.3   471  ESL471      0.0054
     12  C12      -16.7960   -1.1140   68.9450 C.3   471  ESL471      0.0045
     13  C14      -15.7960   -0.3440   68.0290 C.3   471  ESL471      0.0050
     14  C15      -14.4260   -0.1270   68.7000 C.3   471  ESL471      0.0261
     15  C16      -14.0070   -1.1780   69.7030 C.ar  471  ESL471     -0.0230
     16  C17      -12.7500   -1.0190   70.3460 C.ar  471  ESL471      0.0375
     17  C18      -12.3020   -1.9700   71.2890 C.ar  471  ESL471      0.1954
     18  O3       -11.0980   -1.8110   71.8990 O.3   471  ESL471     -0.2866
     19  C19      -13.1050   -3.0890   71.6010 C.ar  471  ESL471      0.0417
     20  C20      -14.3550   -3.2540   70.9670 C.ar  471  ESL471     -0.0013
     21  C21      -14.8100   -2.3050   70.0220 C.ar  471  ESL471     -0.0263
@<TRIPOS>BOND
     1     9     8    1
     2     8    10    1
     3     8     6    1
     4    13    14    1
     5    13    12    1
     6    10    11    1
     7    11    12    1
     8    11     4    1
     9     6     7    1
    10     6     4    1
    11    14    15    1
    12    12     1    1
    13     4     3    1
    14     4     5    1
    15     1    21    1
    16     1     2    1
    17     3     2    1
    18    15    21   ar
    19    15    16   ar
    20    21    20   ar
    21    16    17   ar
    22    20    19   ar
    23    17    19   ar
    24    17    18    1
