@<TRIPOS>MOLECULE
1x8x_TYR_A_1.pdb
 13 13 0 0 0
SMALL
GASTEIGER

@<TRIPOS>ATOM
      1  N          7.2940   27.6690   15.0320 N.3   952  TYR952     -0.1205
      2  CA         6.8540   28.3310   16.2960 C.3   952  TYR952      0.1986
      3  C          5.3540   28.5940   16.2400 C.2   952  TYR952      0.3822
      4  O          4.7930   29.0130   17.2730 O.co2 952  TYR952     -0.2440
      5  CB         7.5920   29.6610   16.4880 C.3   952  TYR952      0.0569
      6  CG         9.0970   29.5370   16.4750 C.ar  952  TYR952     -0.0200
      7  CD1        9.7530   28.6950   17.3710 C.ar  952  TYR952     -0.0009
      8  CD2        9.8670   30.2590   15.5640 C.ar  952  TYR952     -0.0009
      9  CE1       11.1390   28.5750   17.3610 C.ar  952  TYR952      0.0417
     10  CE2       11.2520   30.1450   15.5470 C.ar  952  TYR952      0.0417
     11  CZ        11.8810   29.3030   16.4470 C.ar  952  TYR952      0.1957
     12  OH        13.2570   29.1950   16.4370 O.3   952  TYR952     -0.2866
     13  OXT        4.7690   28.3980   15.1540 O.co2 952  TYR952     -0.2440
@<TRIPOS>BOND
     1     1     2    1
     2    13     3   ar
     3    10     8   ar
     4    10    11   ar
     5     8     6   ar
     6     3     2    1
     7     3     4   ar
     8     2     5    1
     9    12    11    1
    10    11     9   ar
    11     6     5    1
    12     6     7   ar
    13     9     7   ar
