@<TRIPOS>MOLECULE
1x92_M7P_A_1.pdb
 18 18 0 0 0
SMALL
GASTEIGER

@<TRIPOS>ATOM
      1  O10       40.6270  -31.5350    0.7130 O.3   302  M7P302     -0.1145
      2  P         39.0290  -31.3980    0.7570 P.3   302  M7P302      0.5327
      3  O8        38.6040  -30.8380   -0.6890 O.2   302  M7P302     -0.2224
      4  O9        38.5830  -30.5060    1.8520 O.3   302  M7P302     -0.1145
      5  O7        38.3290  -32.8540    0.8490 O.3   302  M7P302     -0.2674
      6  C7        38.5000  -33.7560   -0.2470 C.3   302  M7P302      0.1891
      7  C6        37.7670  -35.0970   -0.1640 C.3   302  M7P302      0.2116
      8  O6        37.7900  -35.6200    1.1660 O.3   302  M7P302     -0.2177
      9  C5        36.3190  -35.0900   -0.6690 C.3   302  M7P302      0.1835
     10  O5        35.4360  -34.5940    0.3460 O.3   302  M7P302     -0.3236
     11  C1        34.0550  -34.9070    0.0820 C.3   302  M7P302      0.3024
     12  O1        33.8650  -36.3170    0.1830 O.3   302  M7P302     -0.1869
     13  C2        33.5720  -34.4610   -1.3020 C.3   302  M7P302      0.2434
     14  O2        33.3810  -33.0430   -1.2800 O.3   302  M7P302     -0.2148
     15  C3        34.5950  -34.8820   -2.3630 C.3   302  M7P302      0.2199
     16  O3        34.2210  -34.4510   -3.6750 O.3   302  M7P302     -0.2174
     17  C4        35.9960  -34.3910   -1.9910 C.3   302  M7P302      0.2144
     18  O4        36.9280  -34.7590   -3.0100 O.3   302  M7P302     -0.2176
@<TRIPOS>BOND
     1    16    15    1
     2    18    17    1
     3    15    17    1
     4    15    13    1
     5    17     9    1
     6    13    14    1
     7    13    11    1
     8     3     2    2
     9     9     7    1
    10     9    10    1
    11     6     7    1
    12     6     5    1
    13     7     8    1
    14    11    12    1
    15    11    10    1
    16     1     2    1
    17     2     5    1
    18     2     4    1
