@<TRIPOS>MOLECULE
1x96_NAP_A_1.pdb
 48 52 0 0 0
SMALL
GASTEIGER

@<TRIPOS>ATOM
      1  PA        22.8360   -4.3690   27.0680 P.3   318  NAP318      0.2189
      2  O1A       21.7680   -4.0100   28.0060 O.3   318  NAP318     -0.4371
      3  O2A       23.7700   -3.3160   26.5540 O.2   318  NAP318     -0.5170
      4  O5B       23.7930   -5.5660   27.5900 O.3   318  NAP318     -0.3112
      5  C5B       23.1630   -6.7910   28.0660 C.3   318  NAP318      0.1813
      6  C4B       24.3270   -7.7080   28.4360 C.3   318  NAP318      0.1820
      7  O4B       25.1130   -7.1160   29.4850 O.3   318  NAP318     -0.3136
      8  C3B       23.8810   -9.0820   28.8830 C.3   318  NAP318      0.2157
      9  O3B       24.8550  -10.0030   28.3680 O.3   318  NAP318     -0.2175
     10  C2B       23.9690   -8.9830   30.4160 C.3   318  NAP318      0.2314
     11  O2B       24.3040  -10.2550   31.0230 O.3   318  NAP318     -0.2630
     12  C1B       25.1540   -8.0400   30.5700 C.3   318  NAP318      0.3158
     13  N9A       25.1580   -7.2900   31.8300 N.pl3 318  NAP318     -0.1439
     14  C8A       24.0710   -6.6830   32.4010 C.3   318  NAP318      0.3377
     15  N7A       24.4100   -6.0730   33.5310 N.2   318  NAP318     -0.2095
     16  C5A       25.7180   -6.3030   33.6700 C.2   318  NAP318      0.2526
     17  C6A       26.6000   -5.9010   34.6950 C.2   318  NAP318      0.4393
     18  N6A       26.2330   -5.2350   35.8120 N.pl3 318  NAP318      0.2180
     19  N1A       27.8990   -6.3610   34.5750 N.2   318  NAP318      0.0021
     20  C2A       28.3260   -7.0760   33.5040 C.3   318  NAP318      0.5254
     21  N3A       27.5030   -7.4050   32.4930 N.2   318  NAP318     -0.0055
     22  C4A       26.2010   -7.0270   32.6000 C.2   318  NAP318      0.3518
     23  O3        22.2110   -5.0860   25.7780 O.3   318  NAP318     -0.2703
     24  PN        20.8460   -5.1890   24.9620 P.3   318  NAP318      0.2189
     25  O1N       20.0090   -6.3130   25.4690 O.3   318  NAP318     -0.4371
     26  O2N       21.2370   -5.2140   23.5310 O.2   318  NAP318     -0.5170
     27  O5D       20.1210   -3.7750   25.1680 O.3   318  NAP318     -0.3112
     28  C5D       19.2300   -3.5220   26.3050 C.3   318  NAP318      0.1813
     29  C4D       17.7850   -3.6290   25.8820 C.3   318  NAP318      0.1799
     30  O4D       17.4830   -2.6310   24.8900 O.3   318  NAP318     -0.3327
     31  C3D       17.3380   -4.9120   25.2220 C.3   318  NAP318      0.2158
     32  O3D       17.3430   -6.0590   26.0420 O.3   318  NAP318     -0.2175
     33  C2D       16.0470   -4.5180   24.5780 C.3   318  NAP318      0.2309
     34  O2D       15.0550   -4.4560   25.6320 O.3   318  NAP318     -0.2158
     35  C1D       16.3920   -3.0780   24.0970 C.3   318  NAP318      0.2263
     36  N1N       16.8090   -3.0830   22.6780 N.pl3 318  NAP318     -0.2787
     37  C2N       15.9550   -2.4930   21.7420 C.3   318  NAP318      0.1244
     38  C3N       16.3290   -2.5380   20.3950 C.2   318  NAP318      0.0544
     39  C7N       15.4400   -1.9340   19.3460 C.2   318  NAP318      0.2818
     40  O7N       15.6210   -2.2140   18.1620 O.2   318  NAP318     -0.2670
     41  N7N       14.5200   -1.0540   19.7670 N.am  318  NAP318     -0.0839
     42  C4N       17.5050   -3.2140   20.0300 C.2   318  NAP318      0.0033
     43  C5N       18.4100   -3.7340   20.9520 C.2   318  NAP318      0.0157
     44  C6N       18.0690   -3.6300   22.2730 C.2   318  NAP318      0.0633
     45  P2B       23.2410  -11.1480   31.8500 P.3   318  NAP318      0.5328
     46  O1X       21.9070  -10.9260   31.2490 O.2   318  NAP318     -0.2224
     47  O2X       23.3870  -10.6860   33.2670 O.3   318  NAP318     -0.1145
     48  O3X       23.7860  -12.5560   31.6890 O.3   318  NAP318     -0.1145
@<TRIPOS>BOND
     1    40    39    2
     2    39    41   am
     3    39    38    1
     4    42    38    2
     5    42    43    1
     6    38    37    1
     7    43    44    2
     8    37    36    1
     9    44    36    1
    10    36    35    1
    11    26    24    2
    12    35    33    1
    13    35    30    1
    14    33    31    1
    15    33    34    1
    16    30    29    1
    17    24    27    1
    18    24    25    1
    19    24    23    1
    20    27    28    1
    21    31    29    1
    22    31    32    1
    23    23     1    1
    24    29    28    1
    25     3     1    2
    26     1     4    1
    27     1     2    1
    28     4     5    1
    29     5     6    1
    30     9     8    1
    31     6     8    1
    32     6     7    1
    33     8    10    1
    34     7    12    1
    35    10    12    1
    36    10    11    1
    37    12    13    1
    38    11    45    1
    39    46    45    2
    40    48    45    1
    41    13    14    1
    42    13    22    1
    43    45    47    1
    44    14    15    1
    45    21    22    2
    46    21    20    1
    47    22    16    1
    48    20    19    1
    49    15    16    2
    50    16    17    1
    51    19    17    2
    52    17    18    1
