@<TRIPOS>MOLECULE
1x96_CIT_A_1.pdb
 13 12 0 0 0
SMALL
GASTEIGER

@<TRIPOS>ATOM
      1  C1        15.9040   -5.6600   18.5320 C.2   319  CIT319      0.3680
      2  O1        15.1340   -5.1490   19.3330 O.co2 319  CIT319     -0.2455
      3  O2        17.0230   -6.1440   18.8910 O.co2 319  CIT319     -0.2455
      4  C2        15.6530   -5.4430   17.0410 C.3   319  CIT319      0.1560
      5  C3        16.1230   -6.5880   16.1540 C.3   319  CIT319      0.2402
      6  O7        15.6550   -6.4290   14.8230 O.3   319  CIT319     -0.2129
      7  C4        15.6100   -7.9050   16.7960 C.3   319  CIT319      0.1560
      8  C5        15.6240   -9.0700   15.8430 C.2   319  CIT319      0.3680
      9  O3        16.5270   -9.0250   14.9570 O.co2 319  CIT319     -0.2455
     10  O4        15.1840  -10.2180   16.2310 O.co2 319  CIT319     -0.2455
     11  C6        17.6590   -6.5610   16.1420 C.2   319  CIT319      0.3927
     12  O5        18.2270   -6.0800   15.1680 O.co2 319  CIT319     -0.2429
     13  O6        18.2790   -6.9600   17.1640 O.co2 319  CIT319     -0.2429
@<TRIPOS>BOND
     1     6     5    1
     2     9     8   ar
     3    12    11   ar
     4     8    10   ar
     5     8     7    1
     6    11     5    1
     7    11    13   ar
     8     5     7    1
     9     5     4    1
    10     4     1    1
    11     1     3   ar
    12     1     2   ar
