@<TRIPOS>MOLECULE
1x97_FIR_A_1.pdb
 20 22 0 0 0
SMALL
GASTEIGER

@<TRIPOS>ATOM
      1  O3I       15.9170   -5.5970   20.5150 O.2   1320  FIR1320    -0.1881
      2  O6I       15.0060   -5.6980   16.0430 O.2   1320  FIR1320    -0.2111
      3  N1I       17.0280   -6.4610   18.6820 N.2   1320  FIR1320    -0.1582
      4  C2I       16.1030   -5.8580   19.3020 C.1   1320  FIR1320     0.3075
      5  N4        15.0860   -5.4170   18.4080 N.2   1320  FIR1320    -0.2446
      6  O10       17.7570   -7.7480   14.8310 O.3   1320  FIR1320    -0.4699
      7  C16       16.3830   -9.6740   15.1150 C.ar  1320  FIR1320     0.0390
      8  C11       16.8790   -8.4650   15.6030 C.ar  1320  FIR1320     0.1380
      9  C12       16.4340   -8.0500   16.8510 C.ar  1320  FIR1320     0.0506
     10  C13       15.5570   -8.8120   17.6200 C.ar  1320  FIR1320     0.0313
     11  C14       15.1510  -10.0120   17.1140 C.ar  1320  FIR1320     0.1401
     12  C15       15.5540  -10.4530   15.8910 C.ar  1320  FIR1320     0.0327
     13  C9        18.5430   -6.7430   15.4620 C.3   1320  FIR1320     0.2477
     14  C5        15.4180   -5.8040   17.1750 C.1   1320  FIR1320     0.2166
     15  F17       14.3200  -10.7780   17.8800 F     1320  FIR1320    -0.2042
     16  O20       19.4080   -5.2070   13.6430 O.2   1320  FIR1320    -0.2677
     17  N21       20.7740   -5.9770   15.1320 N.am  1320  FIR1320    -0.0846
     18  C19       19.5160   -5.9340   14.6490 C.2   1320  FIR1320     0.3010
     19  C7I       16.7500   -6.6120   17.2730 C.3   1320  FIR1320     0.2260
     20  C8I       17.5650   -5.8970   16.2240 C.3   1320  FIR1320     0.0980
@<TRIPOS>BOND
     1    16    18    2
     2    18    17   am
     3    18    13    1
     4     6    13    1
     5     6     8    1
     6     7     8   ar
     7     7    12   ar
     8    13    20    1
     9     8     9   ar
    10    12    11   ar
    11     2    14    2
    12    20    19    1
    13     9    19    1
    14     9    10   ar
    15    11    10   ar
    16    11    15    1
    17    14    19    1
    18    14     5    2
    19    19     3    1
    20     5     4    2
    21     3     4    2
    22     4     1    2
