@<TRIPOS>MOLECULE
1x97_NAP_A_1.pdb
 48 52 0 0 0
SMALL
GASTEIGER

@<TRIPOS>ATOM
      1  PA        22.6510   -4.3640   27.0140 P.3   1318  NAP1318     0.2189
      2  O1A       21.6110   -3.9700   27.9830 O.3   1318  NAP1318    -0.4371
      3  O2A       23.5740   -3.2910   26.5190 O.2   1318  NAP1318    -0.5170
      4  O5B       23.5850   -5.5280   27.5670 O.3   1318  NAP1318    -0.3112
      5  C5B       22.9930   -6.7800   28.0090 C.3   1318  NAP1318     0.1813
      6  C4B       24.1350   -7.6800   28.4080 C.3   1318  NAP1318     0.1820
      7  O4B       24.8790   -7.0730   29.4930 O.3   1318  NAP1318    -0.3136
      8  C3B       23.7300   -9.0660   28.8630 C.3   1318  NAP1318     0.2157
      9  O3B       24.6860  -10.0100   28.3160 O.3   1318  NAP1318    -0.2175
     10  C2B       23.7590   -8.9260   30.3930 C.3   1318  NAP1318     0.2314
     11  O2B       24.0950  -10.2000   30.9970 O.3   1318  NAP1318    -0.2630
     12  C1B       24.9720   -8.0250   30.5620 C.3   1318  NAP1318     0.3158
     13  N9A       24.9300   -7.3610   31.8040 N.pl3 1318  NAP1318    -0.1439
     14  C8A       23.8520   -6.6220   32.3440 C.3   1318  NAP1318     0.3377
     15  N7A       24.1990   -6.0200   33.4740 N.2   1318  NAP1318    -0.2095
     16  C5A       25.4840   -6.2730   33.6360 C.2   1318  NAP1318     0.2526
     17  C6A       26.3530   -5.8730   34.6810 C.2   1318  NAP1318     0.4393
     18  N6A       25.9150   -5.1290   35.7130 N.pl3 1318  NAP1318     0.2180
     19  N1A       27.6440   -6.2740   34.5620 N.2   1318  NAP1318     0.0021
     20  C2A       28.1050   -7.0590   33.5510 C.3   1318  NAP1318     0.5254
     21  N3A       27.2820   -7.4000   32.5390 N.2   1318  NAP1318    -0.0055
     22  C4A       25.9730   -7.0460   32.6020 C.2   1318  NAP1318     0.3518
     23  O3        22.0380   -5.0570   25.7150 O.3   1318  NAP1318    -0.2703
     24  PN        20.6850   -5.1840   24.8830 P.3   1318  NAP1318     0.2189
     25  O1N       19.8730   -6.3130   25.3820 O.3   1318  NAP1318    -0.4371
     26  O2N       21.0810   -5.1650   23.4390 O.2   1318  NAP1318    -0.5170
     27  O5D       19.9610   -3.7560   25.0730 O.3   1318  NAP1318    -0.3112
     28  C5D       19.0830   -3.5590   26.2220 C.3   1318  NAP1318     0.1813
     29  C4D       17.6250   -3.6300   25.8220 C.3   1318  NAP1318     0.1799
     30  O4D       17.3270   -2.6260   24.8190 O.3   1318  NAP1318    -0.3327
     31  C3D       17.1660   -4.9050   25.1420 C.3   1318  NAP1318     0.2158
     32  O3D       17.1690   -6.0440   25.9610 O.3   1318  NAP1318    -0.2175
     33  C2D       15.8440   -4.4570   24.5240 C.3   1318  NAP1318     0.2309
     34  O2D       14.8960   -4.4650   25.5770 O.3   1318  NAP1318    -0.2158
     35  C1D       16.2510   -3.0810   24.0030 C.3   1318  NAP1318     0.2263
     36  N1N       16.6590   -3.0720   22.5690 N.pl3 1318  NAP1318    -0.2787
     37  C2N       15.7750   -2.5340   21.6460 C.3   1318  NAP1318     0.1244
     38  C3N       16.1810   -2.4970   20.3070 C.2   1318  NAP1318     0.0544
     39  C7N       15.2750   -1.9080   19.2540 C.2   1318  NAP1318     0.2818
     40  O7N       15.4860   -2.2030   18.0840 O.2   1318  NAP1318    -0.2670
     41  N7N       14.3800   -1.0160   19.6820 N.am  1318  NAP1318    -0.0839
     42  C4N       17.3950   -3.1190   19.9800 C.2   1318  NAP1318     0.0033
     43  C5N       18.2910   -3.6930   20.8630 C.2   1318  NAP1318     0.0157
     44  C6N       17.9330   -3.6200   22.1810 C.2   1318  NAP1318     0.0633
     45  P2B       23.0420  -11.1190   31.7960 P.3   1318  NAP1318     0.5328
     46  O1X       21.7080  -10.9290   31.2200 O.2   1318  NAP1318    -0.2224
     47  O2X       23.1780  -10.6600   33.1980 O.3   1318  NAP1318    -0.1145
     48  O3X       23.6070  -12.5140   31.5660 O.3   1318  NAP1318    -0.1145
@<TRIPOS>BOND
     1    40    39    2
     2    39    41   am
     3    39    38    1
     4    42    38    2
     5    42    43    1
     6    38    37    1
     7    43    44    2
     8    37    36    1
     9    44    36    1
    10    36    35    1
    11    26    24    2
    12    35    33    1
    13    35    30    1
    14    33    31    1
    15    33    34    1
    16    30    29    1
    17    24    27    1
    18    24    25    1
    19    24    23    1
    20    27    28    1
    21    31    29    1
    22    31    32    1
    23    23     1    1
    24    29    28    1
    25     3     1    2
    26     1     4    1
    27     1     2    1
    28     4     5    1
    29     5     6    1
    30     9     8    1
    31     6     8    1
    32     6     7    1
    33     8    10    1
    34     7    12    1
    35    10    12    1
    36    10    11    1
    37    12    13    1
    38    11    45    1
    39    46    45    2
    40    48    45    1
    41    45    47    1
    42    13    14    1
    43    13    22    1
    44    14    15    1
    45    21    22    2
    46    21    20    1
    47    22    16    1
    48    15    16    2
    49    20    19    1
    50    16    17    1
    51    19    17    2
    52    17    18    1
