@<TRIPOS>MOLECULE
1x98_FIS_A_1.pdb
 20 22 0 0 0
SMALL
GASTEIGER

@<TRIPOS>ATOM
      1  O3I       17.2340  -16.4210   22.1620 O.2   1320  FIS1320    -0.1881
      2  O6I       21.1460  -14.2930   21.3390 O.2   1320  FIS1320    -0.2111
      3  N1I       18.2210  -15.7470   20.2370 N.2   1320  FIS1320    -0.1582
      4  C2I       18.1270  -15.8500   21.5620 C.1   1320  FIS1320     0.3075
      5  N4        19.2820  -15.3000   22.1270 N.2   1320  FIS1320    -0.2446
      6  F17       22.6420  -18.2630   18.5940 F     1320  FIS1320    -0.2042
      7  C16       20.9970  -15.9200   16.5470 C.ar  1320  FIS1320     0.0390
      8  C11       20.2320  -15.2410   17.4990 C.ar  1320  FIS1320     0.1380
      9  C12       20.2000  -15.6510   18.8180 C.ar  1320  FIS1320     0.0506
     10  C13       21.0250  -16.7220   19.2020 C.ar  1320  FIS1320     0.0313
     11  C14       21.8400  -17.2990   18.2600 C.ar  1320  FIS1320     0.1401
     12  C15       21.8630  -16.8930   16.9530 C.ar  1320  FIS1320     0.0327
     13  O10       19.5260  -14.1860   17.0030 O.3   1320  FIS1320    -0.4699
     14  C5        20.0710  -14.8110   21.1190 C.1   1320  FIS1320     0.2166
     15  N21       18.8480  -11.8120   16.3340 N.am  1320  FIS1320    -0.0846
     16  O20       17.2840  -11.6920   17.9520 O.2   1320  FIS1320    -0.2677
     17  C19       18.1930  -12.3470   17.3510 C.2   1320  FIS1320     0.3010
     18  C7I       19.3610  -14.9370   19.8720 C.3   1320  FIS1320     0.2260
     19  C8I       19.0060  -13.5340   19.3060 C.3   1320  FIS1320     0.0980
     20  C9        18.5090  -13.7220   17.8890 C.3   1320  FIS1320     0.2477
@<TRIPOS>BOND
     1    15    17   am
     2     7    12   ar
     3     7     8   ar
     4    12    11   ar
     5    13     8    1
     6    13    20    1
     7    17    20    1
     8    17    16    2
     9     8     9   ar
    10    20    19    1
    11    11     6    1
    12    11    10   ar
    13     9    10   ar
    14     9    18    1
    15    19    18    1
    16    18     3    1
    17    18    14    1
    18     3     4    2
    19    14     2    2
    20    14     5    2
    21     4     5    2
    22     4     1    2
