@<TRIPOS>MOLECULE
1x98_CIT_A_1.pdb
 13 12 0 0 0
SMALL
GASTEIGER

@<TRIPOS>ATOM
      1  C1        16.0260   -5.7360   18.6170 C.2   1319  CIT1319     0.3680
      2  O1        17.1910   -6.1020   19.0610 O.co2 1319  CIT1319    -0.2455
      3  O2        15.2760   -5.2070   19.4150 O.co2 1319  CIT1319    -0.2455
      4  C2        15.9590   -5.4500   17.1540 C.3   1319  CIT1319     0.1560
      5  C3        16.3550   -6.6370   16.2890 C.3   1319  CIT1319     0.2402
      6  O7        15.8760   -6.4650   14.9710 O.3   1319  CIT1319    -0.2129
      7  C4        15.8850   -7.9550   16.9430 C.3   1319  CIT1319     0.1560
      8  C5        16.1260   -9.1880   16.1370 C.2   1319  CIT1319     0.3680
      9  O3        15.2180  -10.0890   16.2010 O.co2 1319  CIT1319    -0.2455
     10  O4        17.1220   -9.3030   15.3670 O.co2 1319  CIT1319    -0.2455
     11  C6        17.8920   -6.7310   16.1560 C.2   1319  CIT1319     0.3927
     12  O5        18.3140   -6.4260   15.0260 O.co2 1319  CIT1319    -0.2429
     13  O6        18.5200   -6.5380   17.2180 O.co2 1319  CIT1319    -0.2429
@<TRIPOS>BOND
     1     6     5    1
     2    12    11   ar
     3    10     8   ar
     4     8     9   ar
     5     8     7    1
     6    11     5    1
     7    11    13   ar
     8     5     7    1
     9     5     4    1
    10     4     1    1
    11     1     2   ar
    12     1     3   ar
