@<TRIPOS>MOLECULE
1x98_NAP_A_1.pdb
 48 52 0 0 0
SMALL
GASTEIGER

@<TRIPOS>ATOM
      1  PA        22.9940   -4.4460   27.0720 P.3   1318  NAP1318     0.2189
      2  O1A       21.9170   -4.1240   27.9940 O.3   1318  NAP1318    -0.4371
      3  O2A       23.9210   -3.3940   26.5560 O.2   1318  NAP1318    -0.5170
      4  O5B       23.9520   -5.6280   27.5850 O.3   1318  NAP1318    -0.3112
      5  C5B       23.3550   -6.8650   28.0480 C.3   1318  NAP1318     0.1813
      6  C4B       24.5070   -7.7710   28.4260 C.3   1318  NAP1318     0.1820
      7  O4B       25.2700   -7.1820   29.5140 O.3   1318  NAP1318    -0.3136
      8  C3B       24.0600   -9.1520   28.9010 C.3   1318  NAP1318     0.2157
      9  O3B       25.0430  -10.0840   28.4020 O.3   1318  NAP1318    -0.2175
     10  C2B       24.1380   -9.0400   30.4190 C.3   1318  NAP1318     0.2314
     11  O2B       24.4740  -10.3020   31.0440 O.3   1318  NAP1318    -0.2630
     12  C1B       25.3270   -8.1090   30.5890 C.3   1318  NAP1318     0.3158
     13  N9A       25.3460   -7.3380   31.8240 N.pl3 1318  NAP1318    -0.1439
     14  C8A       24.2650   -6.7130   32.3650 C.3   1318  NAP1318     0.3377
     15  N7A       24.5750   -6.0620   33.4770 N.2   1318  NAP1318    -0.2095
     16  C5A       25.8650   -6.3040   33.6690 C.2   1318  NAP1318     0.2526
     17  C6A       26.7420   -5.8560   34.6780 C.2   1318  NAP1318     0.4393
     18  N6A       26.3370   -5.1670   35.7590 N.pl3 1318  NAP1318     0.2180
     19  N1A       28.0270   -6.3170   34.6200 N.2   1318  NAP1318     0.0021
     20  C2A       28.4460   -7.0610   33.5610 C.3   1318  NAP1318     0.5254
     21  N3A       27.6530   -7.4310   32.5340 N.2   1318  NAP1318    -0.0055
     22  C4A       26.3630   -7.0180   32.5930 C.2   1318  NAP1318     0.3518
     23  O3        22.3720   -5.1580   25.7750 O.3   1318  NAP1318    -0.2703
     24  PN        20.9970   -5.2900   24.9770 P.3   1318  NAP1318     0.2189
     25  O1N       20.2340   -6.4150   25.5180 O.3   1318  NAP1318    -0.4371
     26  O2N       21.3750   -5.3010   23.5440 O.2   1318  NAP1318    -0.5170
     27  O5D       20.2700   -3.8840   25.2220 O.3   1318  NAP1318    -0.3112
     28  C5D       19.3820   -3.6590   26.3560 C.3   1318  NAP1318     0.1813
     29  C4D       17.9400   -3.7120   25.9050 C.3   1318  NAP1318     0.1799
     30  O4D       17.6290   -2.7120   24.9130 O.3   1318  NAP1318    -0.3327
     31  C3D       17.4590   -4.9790   25.2610 C.3   1318  NAP1318     0.2158
     32  O3D       17.4690   -6.1110   26.1030 O.3   1318  NAP1318    -0.2175
     33  C2D       16.1640   -4.5760   24.6260 C.3   1318  NAP1318     0.2309
     34  O2D       15.2120   -4.5290   25.6840 O.3   1318  NAP1318    -0.2158
     35  C1D       16.5590   -3.1600   24.1210 C.3   1318  NAP1318     0.2263
     36  N1N       16.9870   -3.1660   22.7110 N.pl3 1318  NAP1318    -0.2787
     37  C2N       16.0710   -2.6330   21.7950 C.3   1318  NAP1318     0.1244
     38  C3N       16.4440   -2.6510   20.4440 C.2   1318  NAP1318     0.0544
     39  C7N       15.5770   -2.0320   19.3880 C.2   1318  NAP1318     0.2818
     40  O7N       15.7280   -2.2810   18.2010 O.2   1318  NAP1318    -0.2670
     41  N7N       14.7020   -1.1450   19.8350 N.am  1318  NAP1318    -0.0839
     42  C4N       17.6630   -3.2540   20.0660 C.2   1318  NAP1318     0.0033
     43  C5N       18.5650   -3.7540   20.9900 C.2   1318  NAP1318     0.0157
     44  C6N       18.2370   -3.6600   22.3020 C.2   1318  NAP1318     0.0633
     45  P2B       23.4230  -11.1830   31.8740 P.3   1318  NAP1318     0.5328
     46  O1X       22.0840  -10.9800   31.3190 O.2   1318  NAP1318    -0.2224
     47  O2X       23.5710  -10.7200   33.2700 O.3   1318  NAP1318    -0.1145
     48  O3X       23.9680  -12.6100   31.7260 O.3   1318  NAP1318    -0.1145
@<TRIPOS>BOND
     1    40    39    2
     2    39    41   am
     3    39    38    1
     4    42    38    2
     5    42    43    1
     6    38    37    1
     7    43    44    2
     8    37    36    1
     9    44    36    1
    10    36    35    1
    11    26    24    2
    12    35    33    1
    13    35    30    1
    14    33    31    1
    15    33    34    1
    16    30    29    1
    17    24    27    1
    18    24    25    1
    19    24    23    1
    20    27    28    1
    21    31    29    1
    22    31    32    1
    23    23     1    1
    24    29    28    1
    25     3     1    2
    26     1     4    1
    27     1     2    1
    28     4     5    1
    29     5     6    1
    30     9     8    1
    31     6     8    1
    32     6     7    1
    33     8    10    1
    34     7    12    1
    35    10    12    1
    36    10    11    1
    37    12    13    1
    38    11    45    1
    39    46    45    2
    40    48    45    1
    41    13    14    1
    42    13    22    1
    43    45    47    1
    44    14    15    1
    45    21    22    2
    46    21    20    1
    47    22    16    1
    48    15    16    2
    49    20    19    1
    50    16    17    1
    51    19    17    2
    52    17    18    1
