@<TRIPOS>MOLECULE
1x9d_SMD_A_1.pdb
 24 25 0 0 0
SMALL
GASTEIGER

@<TRIPOS>ATOM
      1  O12       -0.0040   -3.4490   -0.6700 O.3   1003  SMD1003    -0.2167
      2  C12        1.4250   -3.4720   -0.7620 C.3   1003  SMD1003     0.2219
      3  C13        1.9150   -2.0550   -0.6930 C.3   1003  SMD1003     0.2181
      4  O13        1.2670   -1.3420    0.3980 O.3   1003  SMD1003    -0.2175
      5  C14        3.4070   -1.9860   -0.4680 C.3   1003  SMD1003     0.2143
      6  O14        4.0930   -2.5180   -1.6270 O.3   1003  SMD1003    -0.2176
      7  C15        3.7570   -2.6860    0.8380 C.3   1003  SMD1003     0.1820
      8  C16        3.8430   -1.6440    1.9530 C.3   1003  SMD1003     0.2142
      9  O16        4.0940   -2.2420    3.2060 O.3   1003  SMD1003    -0.2176
     10  O15        2.7790   -3.6500    1.2770 O.3   1003  SMD1003    -0.3398
     11  C11        1.9670   -4.3660    0.3140 C.3   1003  SMD1003     0.1957
     12  S22        2.7590   -5.8030   -0.4960 S.3   1003  SMD1003    -0.1024
     13  C22        2.9180   -7.0770    0.7840 C.3   1003  SMD1003     0.1391
     14  C21        3.9930   -8.0690    0.4110 C.3   1003  SMD1003     0.2482
     15  O21        4.2090   -8.8930    1.5570 O.3   1003  SMD1003    -0.3271
     16  C27        5.3770   -9.7280    1.4660 C.3   1003  SMD1003     0.1769
     17  O25        3.5920   -8.8310   -0.7200 O.3   1003  SMD1003    -0.3269
     18  C23        1.6110   -7.8440    1.0500 C.3   1003  SMD1003     0.1995
     19  O23        0.5890   -6.8980    1.3390 O.3   1003  SMD1003    -0.2192
     20  C24        1.2250   -8.7560   -0.1260 C.3   1003  SMD1003     0.2127
     21  O24        0.1580   -9.6460    0.2780 O.3   1003  SMD1003    -0.2177
     22  C25        2.3930   -9.6210   -0.5540 C.3   1003  SMD1003     0.1834
     23  C26        2.0710  -10.2620   -1.8850 C.3   1003  SMD1003     0.2142
     24  O26        3.0330  -11.2850   -2.1610 O.3   1003  SMD1003    -0.2176
@<TRIPOS>BOND
     1    24    23    1
     2    23    22    1
     3     6     5    1
     4     2     3    1
     5     2     1    1
     6     2    11    1
     7    17    22    1
     8    17    14    1
     9     3     5    1
    10     3     4    1
    11    22    20    1
    12    12    11    1
    13    12    13    1
    14     5     7    1
    15    20    21    1
    16    20    18    1
    17    11    10    1
    18    14    13    1
    19    14    15    1
    20    13    18    1
    21     7    10    1
    22     7     8    1
    23    18    19    1
    24    16    15    1
    25     8     9    1
