@<TRIPOS>MOLECULE
1x9f_HEM_A_1.pdb
 43 50 0 0 0
SMALL
GASTEIGER

@<TRIPOS>ATOM
      1 FE        102.1310   25.9050  195.2780 Fe    160  HEM160      0.0000
      2  CHA      100.7830   24.3140  198.0060 C.2   160  HEM160      0.0000
      3  CHB       98.9340   26.3850  193.9720 C.2   160  HEM160      0.0000
      4  CHC      103.4580   27.4660  192.4910 C.2   160  HEM160      0.0000
      5  CHD      105.3160   25.5990  196.6310 C.2   160  HEM160      0.0000
      6  NA       100.2470   25.4380  195.8710 N.ar  160  HEM160      0.0000
      7  C1A       99.8270   24.7840  196.9840 C.ar  160  HEM160      0.0000
      8  C2A       98.4480   24.5990  197.1100 C.ar  160  HEM160      0.0000
      9  C3A       97.8700   25.2020  195.9120 C.ar  160  HEM160      0.0000
     10  C4A       99.0770   25.6750  195.2350 C.ar  160  HEM160      0.0000
     11  CMA       96.4230   25.3310  195.4850 C.3   160  HEM160      0.0000
     12  CAA       97.6630   23.9240  198.2010 C.3   160  HEM160      0.0000
     13  CBA       97.2830   24.9640  199.2540 C.3   160  HEM160      0.0000
     14  CGA       96.5470   24.1900  200.3140 C.2   160  HEM160      0.0000
     15  O1A       95.3360   23.9370  200.1410 O.co2 160  HEM160      0.0000
     16  O2A       97.1850   23.8220  201.3210 O.co2 160  HEM160      0.0000
     17  NB       101.3460   26.7470  193.6040 N.2   160  HEM160      0.0000
     18  C1B      100.0480   26.8980  193.1930 C.2   160  HEM160      0.0000
     19  C2B       99.8380   27.5240  191.9700 C.2   160  HEM160      0.0000
     20  C3B      101.1230   27.8120  191.6460 C.2   160  HEM160      0.0000
     21  C4B      101.9970   27.3410  192.5860 C.2   160  HEM160      0.0000
     22  CMB       98.5610   27.8530  191.2090 C.3   160  HEM160      0.0000
     23  CAB      101.5030   28.4060  190.5190 C.3   160  HEM160      0.0000
     24  CBB      101.7810   28.9250  189.2750 C.3   160  HEM160      0.0000
     25  NC       104.0000   26.4200  194.6740 N.ar  160  HEM160      0.0000
     26  C1C      104.4080   27.0400  193.5320 C.ar  160  HEM160      0.0000
     27  C2C      105.7790   27.2480  193.4220 C.ar  160  HEM160      0.0000
     28  C3C      106.2610   26.7110  194.5900 C.ar  160  HEM160      0.0000
     29  C4C      105.1840   26.2440  195.3120 C.ar  160  HEM160      0.0000
     30  CMC      106.5590   27.9020  192.3050 C.3   160  HEM160      0.0000
     31  CAC      107.6840   26.6890  195.0170 C.2   160  HEM160      0.0000
     32  CBC      108.5040   25.6570  194.7620 C.2   160  HEM160      0.0000
     33  ND       102.9030   25.1240  196.9850 N.2   160  HEM160      0.0000
     34  C1D      104.1940   25.0600  197.4260 C.2   160  HEM160      0.0000
     35  C2D      104.4000   24.4400  198.6560 C.2   160  HEM160      0.0000
     36  C3D      103.1400   24.0640  199.0760 C.2   160  HEM160      0.0000
     37  C4D      102.2450   24.5230  197.9950 C.2   160  HEM160      0.0000
     38  CMD      105.7130   24.2340  199.3770 C.3   160  HEM160      0.0000
     39  CAD      102.7400   23.3670  200.3500 C.3   160  HEM160      0.0000
     40  CBD      102.5990   21.8770  200.1050 C.3   160  HEM160      0.0000
     41  CGD      102.0640   21.2920  201.3900 C.2   160  HEM160      0.0000
     42  O1D      102.8670   21.0360  202.3230 O.co2 160  HEM160      0.0000
     43  O2D      100.8260   21.1030  201.4690 O.co2 160  HEM160      0.0000
@<TRIPOS>BOND
     1    24    23    1
     2    23    20    1
     3    22    19    1
     4    20    19    2
     5    20    21    1
     6    19    18    1
     7    30    27    1
     8     4    21    2
     9     4    26    1
    10    21    17    1
    11    18    17    2
    12    18     3    1
    13    27    26   ar
    14    27    28   ar
    15    26    25   ar
    16    17     1    1
    17     3    10    2
    18    28    31    1
    19    28    29   ar
    20    25     1    1
    21    25    29   ar
    22    32    31    2
    23    10     6   ar
    24    10     9   ar
    25     1     6    1
    26     1    33    1
    27    29     5    1
    28    11     9    1
    29     6     7   ar
    30     9     8   ar
    31     5    34    2
    32     7     8   ar
    33     7     2    2
    34    33    34    1
    35    33    37    2
    36     8    12    1
    37    34    35    1
    38    37     2    1
    39    37    36    1
    40    12    13    1
    41    35    36    2
    42    35    38    1
    43    36    39    1
    44    13    14    1
    45    40    39    1
    46    40    41    1
    47    15    14   ar
    48    14    16   ar
    49    41    43   ar
    50    41    42   ar
