@<TRIPOS>MOLECULE
1x9j_CIT_D_1.pdb
 13 12 0 0 0
SMALL
GASTEIGER

@<TRIPOS>ATOM
      1  C1       -15.7700  143.4090    4.0320 C.2   381  CIT381      0.3680
      2  O1       -15.3100  142.6800    4.9950 O.co2 381  CIT381     -0.2455
      3  O2       -14.9440  144.0740    3.3060 O.co2 381  CIT381     -0.2455
      4  C2       -17.3210  143.3970    3.8440 C.3   381  CIT381      0.1560
      5  C3       -17.9970  143.4630    2.4660 C.3   381  CIT381      0.2402
      6  O7       -19.4630  143.2700    2.7150 O.3   381  CIT381     -0.2129
      7  C4       -17.4870  142.3810    1.5210 C.3   381  CIT381      0.1560
      8  C5       -18.4590  141.6150    0.6970 C.2   381  CIT381      0.3680
      9  O3       -18.6320  141.7020   -0.5040 O.co2 381  CIT381     -0.2455
     10  O4       -19.1730  140.7830    1.2790 O.co2 381  CIT381     -0.2455
     11  C6       -17.9760  144.8270    1.7230 C.2   381  CIT381      0.3927
     12  O5       -16.7900  145.2250    1.3780 O.co2 381  CIT381     -0.2429
     13  O6       -19.0520  145.4740    1.4300 O.co2 381  CIT381     -0.2429
@<TRIPOS>BOND
     1     9     8   ar
     2     8    10   ar
     3     8     7    1
     4    12    11   ar
     5    13    11   ar
     6     7     5    1
     7    11     5    1
     8     5     6    1
     9     5     4    1
    10     3     1   ar
    11     4     1    1
    12     1     2   ar
