@<TRIPOS>MOLECULE
1x9n_AMP_C_1.pdb
 23 25 0 0 0
SMALL
GASTEIGER

@<TRIPOS>ATOM
      1  P         48.4570   44.4240   37.4570 P.3   100  AMP100      0.5327
      2  O1P       47.2790   44.9620   36.7480 O.2   100  AMP100     -0.2224
      3  O2P       48.7160   45.2810   38.7040 O.3   100  AMP100     -0.1145
      4  O3P       48.1960   42.9370   37.8760 O.3   100  AMP100     -0.1145
      5  O5'       49.6670   44.5270   36.3910 O.3   100  AMP100     -0.2675
      6  C5'       50.9370   43.9370   36.5170 C.3   100  AMP100      0.1860
      7  C4'       50.9750   42.7850   35.5230 C.3   100  AMP100      0.1823
      8  O4'       50.8630   43.2050   34.1880 O.3   100  AMP100     -0.3135
      9  C3'       52.2710   42.0020   35.5680 C.3   100  AMP100      0.2184
     10  O3'       52.2990   41.1540   36.7090 O.3   100  AMP100     -0.2174
     11  C2'       52.2500   41.2970   34.2190 C.3   100  AMP100      0.2570
     12  O2'       51.6170   40.0340   34.2810 O.3   100  AMP100     -0.2130
     13  C1'       51.3920   42.1990   33.3520 C.3   100  AMP100      0.3186
     14  N9        52.1450   42.8190   32.2390 N.pl3 100  AMP100     -0.1439
     15  C8        51.7700   42.8010   30.9220 C.3   100  AMP100      0.3377
     16  N7        52.6870   43.4690   30.1950 N.2   100  AMP100     -0.2095
     17  C5        53.6400   43.9240   31.0130 C.2   100  AMP100      0.2526
     18  C6        54.7820   44.6620   30.7710 C.2   100  AMP100      0.4393
     19  N6        55.0810   45.0400   29.5380 N.pl3 100  AMP100      0.2180
     20  N1        55.6050   45.0030   31.8170 N.2   100  AMP100      0.0021
     21  C2        55.2800   44.5970   33.0930 C.3   100  AMP100      0.5254
     22  N3        54.1430   43.8550   33.3310 N.2   100  AMP100     -0.0055
     23  C4        53.3230   43.5270   32.3050 C.2   100  AMP100      0.3518
@<TRIPOS>BOND
     1    19    18    1
     2    16    15    1
     3    16    17    2
     4    18    17    1
     5    18    20    2
     6    15    14    1
     7    17    23    1
     8    20    21    1
     9    14    23    1
    10    14    13    1
    11    23    22    2
    12    21    22    1
    13    13     8    1
    14    13    11    1
    15     8     7    1
    16    11    12    1
    17    11     9    1
    18     7     9    1
    19     7     6    1
    20     9    10    1
    21     5     6    1
    22     5     1    1
    23     2     1    2
    24     1     4    1
    25     1     3    1
