@<TRIPOS>MOLECULE
1x9p_C15_A_1.pdb
 20 19 0 0 0
SMALL
GASTEIGER

@<TRIPOS>ATOM
      1  C1        71.3320   40.7470    3.3990 C.3   998  C15998      0.1067
      2  C2        71.1120   42.2220    3.8390 C.3   998  C15998      0.0403
      3  C3        69.6380   42.4900    4.2240 C.3   998  C15998      0.0904
      4  C5        78.2490   43.3950    2.2890 C.3   998  C15998      0.0000
      5  C6        77.3140   44.5660    2.4370 C.3   998  C15998      0.0000
      6  C7        76.0930   44.0770    3.2030 C.3   998  C15998      0.0000
      7  C8        75.4570   45.1450    4.0830 C.3   998  C15998      0.0000
      8  N1        69.4150   43.8220    4.7890 N.3   998  C15998     -0.2180
      9  C9        74.2840   44.4300    4.7300 C.3   998  C15998      0.0000
     10  C10       73.3230   45.4220    5.3600 C.3   998  C15998      0.0000
     11  C11       72.9320   44.9030    6.7400 C.3   998  C15998      0.0000
     12  C12       71.4590   45.2030    6.9690 C.3   998  C15998      0.0000
     13  C13       70.7650   44.0800    7.7350 C.3   998  C15998      0.0000
     14  C14       69.2810   44.4430    7.9170 C.3   998  C15998      0.0015
     15  C15       68.3860   43.5390    7.0620 C.3   998  C15998      0.0188
     16  C16       68.2220   44.0260    5.6060 C.3   998  C15998      0.0887
     17  S1        73.0260   40.2820    2.9040 S.3   998  C15998     -0.1960
     18  O1S       72.9250   39.7290    1.5750 O.3   998  C15998     -0.3075
     19  O2S       73.9030   41.4170    2.8400 O.3   998  C15998     -0.3075
     20  O3S       73.6130   38.9640    3.9300 O.3   998  C15998     -0.3075
@<TRIPOS>BOND
     1    18    17    1
     2     4     5    1
     3     5     6    1
     4    19    17    1
     5    17     1    1
     6    17    20    1
     7     6     7    1
     8     1     2    1
     9     2     3    1
    10     7     9    1
    11     3     8    1
    12     9    10    1
    13     8    16    1
    14    10    11    1
    15    16    15    1
    16    11    12    1
    17    12    13    1
    18    15    14    1
    19    13    14    1
