@<TRIPOS>MOLECULE
1x9q_FLU_A_1.pdb
 25 28 0 0 0
SMALL
GASTEIGER

@<TRIPOS>ATOM
      1  C1         7.5190   41.5860   47.8010 C.2   1341  FLU1341     0.1949
      2  O1         6.9450   40.4160   48.0970 O.2   1341  FLU1341    -0.2868
      3  C2         8.7650   41.9090   48.3510 C.2   1341  FLU1341     0.0788
      4  C3         9.3630   43.1280   48.0700 C.2   1341  FLU1341     0.1443
      5  O2        10.4850   43.4150   48.5630 O.2   1341  FLU1341    -0.4575
      6  C4        11.1100   44.4960   48.3880 C.2   1341  FLU1341     0.1304
      7  C5        12.3550   44.7070   48.9820 C.3   1341  FLU1341     0.1334
      8  C6        13.0600   45.8950   48.7830 C.2   1341  FLU1341     0.1807
      9  O3        14.1990   46.0900   49.3190 O.2   1341  FLU1341    -0.2909
     10  C7        12.5330   46.8830   47.9500 C.2   1341  FLU1341     0.0380
     11  C8        11.2990   46.7320   47.3210 C.2   1341  FLU1341     0.0056
     12  C9        10.5770   45.5560   47.5030 C.2   1341  FLU1341     0.0307
     13  C10        9.2830   45.3210   46.8580 C.2   1341  FLU1341     0.0021
     14  C11        8.6510   44.0350   47.1460 C.2   1341  FLU1341     0.0170
     15  C12        7.4160   43.6910   46.6090 C.3   1341  FLU1341     0.0587
     16  C13        6.8670   42.4590   46.9370 C.2   1341  FLU1341     0.0208
     17  C14        8.6330   46.3490   46.0250 C.ar  1341  FLU1341     0.0063
     18  C15        8.1570   47.5070   46.5990 C.ar  1341  FLU1341     0.0002
     19  C16        7.5570   48.4680   45.8120 C.ar  1341  FLU1341     0.0000
     20  C17        7.4210   48.2940   44.4300 C.ar  1341  FLU1341     0.0002
     21  C18        7.8910   47.1380   43.8130 C.ar  1341  FLU1341     0.0066
     22  C19        8.5100   46.1550   44.5770 C.ar  1341  FLU1341     0.0798
     23  C20        9.2340   45.0320   43.9110 C.2   1341  FLU1341     0.3878
     24  O4        10.3910   44.7520   44.2380 O.co2 1341  FLU1341    -0.2406
     25  O5         8.5860   44.3410   42.9790 O.co2 1341  FLU1341    -0.2406
@<TRIPOS>BOND
     1    25    23   ar
     2    21    20   ar
     3    21    22   ar
     4    23    24   ar
     5    23    22    1
     6    20    19   ar
     7    22    17   ar
     8    19    18   ar
     9    17    18   ar
    10    17    13    1
    11    15    16    1
    12    15    14    1
    13    13    14    2
    14    13    12    1
    15    16     1    2
    16    14     4    1
    17    11    12    1
    18    11    10    2
    19    12     6    2
    20     1     2    1
    21     1     3    1
    22    10     8    1
    23     4     3    2
    24     4     5    1
    25     6     5    1
    26     6     7    1
    27     8     7    1
    28     8     9    2
