@<TRIPOS>MOLECULE
1x9t_C15_A_1.pdb
 20 19 0 0 0
SMALL
GASTEIGER

@<TRIPOS>ATOM
      1  C1        90.0260  -97.1250   96.5030 C.3   1014  C151014     0.1067
      2  C2        89.7920  -98.5330   97.0570 C.3   1014  C151014     0.0403
      3  C3        88.5540  -98.6090   97.9690 C.3   1014  C151014     0.0904
      4  C5        92.2460 -111.2130  104.9240 C.3   1014  C151014     0.0000
      5  C6        93.4790 -110.3830  105.2840 C.3   1014  C151014     0.0000
      6  C7        93.6870 -109.1470  104.2790 C.3   1014  C151014     0.0000
      7  C8        94.3800 -107.9650  104.8690 C.3   1014  C151014     0.0000
      8  N1        88.6410  -99.6890   98.9580 N.3   1014  C151014    -0.2180
      9  C9        94.5070 -106.7900  103.7670 C.3   1014  C151014     0.0000
     10  C10       93.6290 -105.4250  104.1310 C.3   1014  C151014     0.0000
     11  C11       93.2770 -104.4490  102.9100 C.3   1014  C151014     0.0000
     12  C12       91.7270 -104.0550  102.5490 C.3   1014  C151014     0.0000
     13  C13       91.5740 -102.8430  101.5060 C.3   1014  C151014     0.0000
     14  C14       90.1830 -102.2680  100.9460 C.3   1014  C151014     0.0015
     15  C15       90.4450 -100.9040  100.1830 C.3   1014  C151014     0.0188
     16  C16       89.7170 -100.6890   98.8480 C.3   1014  C151014     0.0887
     17  S1        91.4800  -96.8880   95.4080 S.3   1014  C151014    -0.1960
     18  O1S       91.6000  -95.4810   95.2570 O.3   1014  C151014    -0.3075
     19  O2S       92.7040  -97.3520   95.9710 O.3   1014  C151014    -0.3075
     20  O3S       91.1800  -97.5030   93.7930 O.3   1014  C151014    -0.3075
@<TRIPOS>BOND
     1    20    17    1
     2    18    17    1
     3    17    19    1
     4    17     1    1
     5     1     2    1
     6     2     3    1
     7     3     8    1
     8    16     8    1
     9    16    15    1
    10    15    14    1
    11    14    13    1
    12    13    12    1
    13    12    11    1
    14    11    10    1
    15     9    10    1
    16     9     7    1
    17     6     7    1
    18     6     5    1
    19     4     5    1
