@<TRIPOS>MOLECULE
1xa3_BTB_A_1.pdb
 14 13 0 0 0
SMALL
GASTEIGER

@<TRIPOS>ATOM
      1  C1         4.0790   57.3730   -0.1870 C.3   1601  BTB1601     0.2017
      2  O1         3.8210   56.7580   -1.4720 O.3   1601  BTB1601    -0.2188
      3  C2         5.5820   57.3260    0.1480 C.3   1601  BTB1601     0.1378
      4  C3         6.3220   58.0870   -0.9730 C.3   1601  BTB1601     0.2017
      5  O3         6.2100   59.4720   -0.8060 O.3   1601  BTB1601    -0.2188
      6  C4         5.7460   57.9670    1.4950 C.3   1601  BTB1601     0.2017
      7  O4         7.0300   57.7030    2.0750 O.3   1601  BTB1601    -0.2188
      8  N          6.1380   55.9560    0.1820 N.3   1601  BTB1601    -0.2641
      9  C5         6.3510   55.3990   -1.1680 C.3   1601  BTB1601     0.1082
     10  C6         7.6450   54.6000   -1.1600 C.3   1601  BTB1601     0.1993
     11  O6         8.6680   55.4570   -0.7040 O.3   1601  BTB1601    -0.2189
     12  C7         5.3090   55.0350    0.9840 C.3   1601  BTB1601     0.1082
     13  C8         6.2330   53.9130    1.5010 C.3   1601  BTB1601     0.1993
     14  O8         7.2300   54.4110    2.4310 O.3   1601  BTB1601    -0.2189
@<TRIPOS>BOND
     1     2     1    1
     2     9    10    1
     3     9     8    1
     4    10    11    1
     5     4     5    1
     6     4     3    1
     7     1     3    1
     8     3     8    1
     9     3     6    1
    10     8    12    1
    11    12    13    1
    12     6     7    1
    13    13    14    1
