@<TRIPOS>MOLECULE
1xa4_COA_B_1.pdb
 48 50 0 0 0
SMALL
GASTEIGER

@<TRIPOS>ATOM
      1  N1A       11.3260    0.6330  -13.7870 N.2   701  COA701      0.0021
      2  C2A       12.4400   -0.0870  -13.9160 C.3   701  COA701      0.5254
      3  N3A       12.9330   -0.8000  -12.8980 N.2   701  COA701     -0.0055
      4  C4A       12.2990   -0.8120  -11.7070 C.2   701  COA701      0.3518
      5  C5A       11.1270   -0.0700  -11.5410 C.2   701  COA701      0.2526
      6  C6A       10.6440    0.6660  -12.6310 C.2   701  COA701      0.4393
      7  N6A        9.5330    1.3740  -12.5290 N.pl3 701  COA701      0.2180
      8  N7A       10.7240   -0.2500  -10.2790 N.2   701  COA701     -0.2095
      9  C8A       11.5940   -1.0710   -9.6740 C.3   701  COA701      0.3377
     10  N9A       12.5540   -1.4220  -10.5400 N.pl3 701  COA701     -0.1439
     11  C1B       13.7330   -2.2870  -10.3010 C.3   701  COA701      0.3185
     12  C2B       14.0310   -2.5290   -8.8190 C.3   701  COA701      0.2543
     13  O2B       14.4340   -1.3070   -8.1760 O.3   701  COA701     -0.2131
     14  C3B       15.1910   -3.5140   -8.9900 C.3   701  COA701      0.1928
     15  O3B       16.3990   -2.8140   -9.3300 O.3   701  COA701     -0.2673
     16  P3B       17.8360   -3.2630   -8.7090 P.3   701  COA701      0.5327
     17  O7A       18.9170   -2.4330   -9.5470 O.2   701  COA701     -0.2224
     18  O8A       17.9620   -4.8490   -9.1260 O.3   701  COA701     -0.1145
     19  O9A       17.9580   -3.0710   -7.2290 O.3   701  COA701     -0.1145
     20  C4B       14.7430   -4.3510  -10.1900 C.3   701  COA701      0.1795
     21  O4B       13.6160   -3.6230  -10.8030 O.3   701  COA701     -0.3136
     22  C5B       14.2010   -5.6520   -9.6430 C.3   701  COA701      0.1812
     23  O5B       13.2580   -5.3610   -8.5980 O.3   701  COA701     -0.3112
     24  P1A       12.3340   -6.5140   -7.9180 P.3   701  COA701      0.2189
     25  O1A       12.1120   -7.5930   -8.9320 O.2   701  COA701     -0.5170
     26  O2A       11.1740   -5.8640   -7.2500 O.3   701  COA701     -0.4371
     27  O3A       13.2840   -7.2270   -6.7700 O.3   701  COA701     -0.2703
     28  P2A       14.2070   -6.4970   -5.6590 P.3   701  COA701      0.2188
     29  O4A       13.9390   -5.0290   -5.5820 O.3   701  COA701     -0.4371
     30  O5A       15.6070   -6.9930   -5.8440 O.2   701  COA701     -0.5170
     31  O6A       13.6150   -7.1180   -4.2450 O.3   701  COA701     -0.3138
     32  CBP       12.1860   -6.3520   -2.4290 C.3   701  COA701      0.0645
     33  CCP       12.2390   -6.8810   -3.8650 C.3   701  COA701      0.1519
     34  CDP       12.7510   -7.4170   -1.4710 C.3   701  COA701      0.0056
     35  CEP       10.7190   -6.0040   -2.1220 C.3   701  COA701      0.0056
     36  CAP       13.1000   -5.1080   -2.3310 C.3   701  COA701      0.2312
     37  OAP       12.5410   -4.0270   -3.0880 O.3   701  COA701     -0.2131
     38  C9P       13.3060   -4.6550   -0.8680 C.2   701  COA701      0.2719
     39  O9P       14.1520   -5.3940   -0.0880 O.2   701  COA701     -0.2706
     40  N8P       12.6350   -3.5630   -0.5010 N.am  701  COA701     -0.2028
     41  C7P       12.6810   -2.9300    0.8430 C.3   701  COA701      0.1248
     42  C6P       11.9640   -3.8570    1.8310 C.3   701  COA701      0.1102
     43  C5P       10.4930   -3.9940    1.3940 C.2   701  COA701      0.2432
     44  O5P        9.8400   -3.0020    1.1160 O.2   701  COA701     -0.2733
     45  N4P       10.0040   -5.2210    1.3280 N.am  701  COA701     -0.2044
     46  C3P        8.6090   -5.4380    0.9210 C.3   701  COA701      0.1276
     47  C2P        7.7660   -5.4680    2.1820 C.3   701  COA701      0.0920
     48  S1P        6.1820   -6.2500    1.7460 S.3   701  COA701     -0.0802
@<TRIPOS>BOND
     1     2     1    1
     2     2     3    1
     3     1     6    2
     4     3     4    2
     5     6     7    1
     6     6     5    1
     7     4     5    1
     8     4    10    1
     9     5     8    2
    10    21    11    1
    11    21    20    1
    12    10    11    1
    13    10     9    1
    14    11    12    1
    15     8     9    1
    16    20    22    1
    17    20    14    1
    18    22    23    1
    19    17    16    2
    20    15    14    1
    21    15    16    1
    22    18    16    1
    23    14    12    1
    24    25    24    2
    25    12    13    1
    26    16    19    1
    27    23    24    1
    28    24    26    1
    29    24    27    1
    30    27    28    1
    31    30    28    2
    32    28    29    1
    33    28    31    1
    34    31    33    1
    35    33    32    1
    36    37    36    1
    37    32    36    1
    38    32    35    1
    39    32    34    1
    40    36    38    1
    41    38    40   am
    42    38    39    2
    43    40    41    1
    44    41    42    1
    45    46    45    1
    46    46    47    1
    47    44    43    2
    48    45    43   am
    49    43    42    1
    50    48    47    1
