@<TRIPOS>MOLECULE
1xa4_BTB_A_1.pdb
 14 13 0 0 0
SMALL
GASTEIGER

@<TRIPOS>ATOM
      1  C1         3.1210  -10.9600    1.6120 C.3   601  BTB601      0.2017
      2  O1         2.8230  -10.9010    0.2210 O.3   601  BTB601     -0.2188
      3  C2         4.5910  -11.2750    1.7420 C.3   601  BTB601      0.1378
      4  C3         5.3970  -10.2430    0.9170 C.3   601  BTB601      0.2017
      5  O3         6.0540  -10.8490   -0.2210 O.3   601  BTB601     -0.2188
      6  C4         4.9300  -11.1750    3.2140 C.3   601  BTB601      0.2017
      7  O4         6.0550  -10.3420    3.4210 O.3   601  BTB601     -0.2188
      8  N          4.9000  -12.6870    1.3740 N.3   601  BTB601     -0.2641
      9  C5         4.8030  -13.0920   -0.0350 C.3   601  BTB601      0.1082
     10  C6         6.1660  -13.7020   -0.3950 C.3   601  BTB601      0.1993
     11  O6         7.1700  -13.1380    0.4570 O.3   601  BTB601     -0.2189
     12  C7         4.1140  -13.6410    2.1540 C.3   601  BTB601      0.1082
     13  C8         5.1120  -14.7210    2.5510 C.3   601  BTB601      0.1993
     14  O8         6.0100  -14.2120    3.5270 O.3   601  BTB601     -0.2189
@<TRIPOS>BOND
     1    10     9    1
     2    10    11    1
     3     5     4    1
     4     9     8    1
     5     2     1    1
     6     4     3    1
     7     8     3    1
     8     8    12    1
     9     1     3    1
    10     3     6    1
    11    12    13    1
    12    13    14    1
    13     6     7    1
