@<TRIPOS>MOLECULE
1xa8_GSH_A_1.pdb
 20 19 0 0 0
SMALL
GASTEIGER

@<TRIPOS>ATOM
      1  N1        42.1440  -20.8710   35.6780 N.3   201  GSH201     -0.1208
      2  CA1       43.5120  -21.3020   35.8270 C.3   201  GSH201      0.1948
      3  C1        43.5960  -21.6970   37.2850 C.2   201  GSH201      0.3819
      4  O11       43.3820  -22.8510   37.7280 O.co2 201  GSH201     -0.2441
      5  O12       43.8510  -20.8030   38.0990 O.co2 201  GSH201     -0.2441
      6  CB1       43.8130  -22.3550   34.7410 C.3   201  GSH201      0.0402
      7  CG1       44.7270  -23.5270   35.1120 C.3   201  GSH201      0.0889
      8  CD1       45.9860  -23.5100   34.2820 C.2   201  GSH201      0.2418
      9  OE1       45.8760  -23.0450   32.9540 O.2   201  GSH201     -0.2733
     10  N2        47.1350  -23.9380   34.8330 N.am  201  GSH201     -0.1968
     11  CA2       48.4350  -23.5540   34.3080 C.3   201  GSH201      0.1843
     12  C2        49.3960  -24.6840   34.1540 C.2   201  GSH201      0.2627
     13  O2        50.5490  -24.5230   33.3600 O.2   201  GSH201     -0.2714
     14  CB2       49.1800  -22.5210   35.1420 C.3   201  GSH201      0.0997
     15  SG2       49.2540  -22.9180   36.8990 S.3   201  GSH201     -0.0797
     16  N3        49.1370  -25.8030   34.7960 N.am  201  GSH201     -0.1917
     17  CA3       50.1010  -26.2790   35.7530 C.3   201  GSH201      0.2285
     18  C3        49.5340  -27.4900   36.4060 C.2   201  GSH201      0.3865
     19  O31       49.1380  -28.3990   35.6850 O.co2 201  GSH201     -0.2437
     20  O32       49.4200  -27.5860   37.6260 O.co2 201  GSH201     -0.2437
@<TRIPOS>BOND
     1     9     8    2
     2    13    12    2
     3    12    11    1
     4    12    16   am
     5     8    10   am
     6     8     7    1
     7    11    10    1
     8    11    14    1
     9     6     7    1
    10     6     2    1
    11    16    17    1
    12    14    15    1
    13     1     2    1
    14    19    18   ar
    15    17    18    1
    16     2     3    1
    17    18    20   ar
    18     3     4   ar
    19     3     5   ar
