@<TRIPOS>MOLECULE
1xag_CRB_A_1.pdb
 17 17 0 0 0
SMALL
GASTEIGER

@<TRIPOS>ATOM
      1  C1        26.5960   43.3270  -10.3070 C.2   500  CRB500      0.3917
      2  O11       26.8120   43.9570   -9.2020 O.co2 500  CRB500     -0.2429
      3  O12       27.4770   42.7490  -10.9720 O.co2 500  CRB500     -0.2429
      4  C2        25.1210   43.2990  -10.7890 C.3   500  CRB500      0.2215
      5  O2        24.4280   44.4500  -10.3190 O.3   500  CRB500     -0.2140
      6  C3        24.9300   43.2760  -12.3180 C.3   500  CRB500      0.0771
      7  C4        23.4970   42.9040  -12.7020 C.3   500  CRB500      0.1851
      8  O4        23.3030   42.9380  -14.1290 O.3   500  CRB500     -0.2203
      9  C5        23.1740   41.4890  -12.1240 C.3   500  CRB500      0.1827
     10  O5        22.0020   40.9850  -12.6660 O.3   500  CRB500     -0.2204
     11  C6        23.1370   41.6370  -10.5970 C.3   500  CRB500      0.0433
     12  C7        22.6540   40.4150   -9.8130 C.3   500  CRB500      0.0616
     13  C8        24.5660   42.0120  -10.0870 C.3   500  CRB500      0.0447
     14  P1        22.2300   40.6410   -8.0600 P.3   500  CRB500      0.1173
     15  O91       21.4220   41.8720   -7.9380 O.2   500  CRB500     -0.4601
     16  O92       23.6110   40.7090   -7.4170 O.3   500  CRB500     -0.3571
     17  O93       21.4400   39.3270   -7.7240 O.3   500  CRB500     -0.3571
@<TRIPOS>BOND
     1     8     7    1
     2     7     6    1
     3     7     9    1
     4    10     9    1
     5     6     4    1
     6     9    11    1
     7     3     1   ar
     8     4     5    1
     9     4     1    1
    10     4    13    1
    11    11    13    1
    12    11    12    1
    13     1     2   ar
    14    12    14    1
    15    14    15    2
    16    14    17    1
    17    14    16    1
