@<TRIPOS>MOLECULE
1xag_NAD_A_1.pdb
 44 48 0 0 0
SMALL
GASTEIGER

@<TRIPOS>ATOM
      1  PA        21.6710   31.3420  -19.4070 P.3   400  NAD400      0.2189
      2  O1A       22.7490   30.6280  -18.7340 O.3   400  NAD400     -0.4371
      3  O2A       20.3750   30.7710  -19.0240 O.2   400  NAD400     -0.5170
      4  O5B       21.8670   31.2560  -20.9900 O.3   400  NAD400     -0.3112
      5  C5B       20.7290   31.6290  -21.8550 C.3   400  NAD400      0.1813
      6  C4B       20.4210   30.4660  -22.7880 C.3   400  NAD400      0.1821
      7  O4B       21.3700   30.3490  -23.8790 O.3   400  NAD400     -0.3135
      8  C3B       20.4050   29.0600  -22.1820 C.3   400  NAD400      0.2184
      9  O3B       19.2110   28.3120  -22.5550 O.3   400  NAD400     -0.2174
     10  C2B       21.6610   28.3390  -22.7320 C.3   400  NAD400      0.2570
     11  O2B       21.4900   26.9280  -22.8120 O.3   400  NAD400     -0.2130
     12  C1B       21.8110   28.9730  -24.0630 C.3   400  NAD400      0.3186
     13  N9A       23.1260   29.2230  -24.6520 N.pl3 400  NAD400     -0.1439
     14  C8A       24.2990   29.4950  -23.9460 C.3   400  NAD400      0.3377
     15  N7A       25.2670   29.8380  -24.7830 N.2   400  NAD400     -0.2095
     16  C5A       24.7510   29.6310  -26.0570 C.2   400  NAD400      0.2526
     17  C6A       25.3210   29.7400  -27.3510 C.2   400  NAD400      0.4393
     18  N6A       26.5630   30.1330  -27.6050 N.pl3 400  NAD400      0.2180
     19  N1A       24.5020   29.4130  -28.4370 N.2   400  NAD400      0.0021
     20  C2A       23.1870   29.0900  -28.1980 C.3   400  NAD400      0.5254
     21  N3A       22.5400   28.9800  -27.0370 N.2   400  NAD400     -0.0055
     22  C4A       23.4320   29.2570  -25.9780 C.2   400  NAD400      0.3518
     23  O3        21.6930   32.8670  -18.9750 O.3   400  NAD400     -0.2703
     24  PN        22.4050   34.2130  -19.4680 P.3   400  NAD400      0.2189
     25  O1N       23.7430   33.9330  -19.9690 O.3   400  NAD400     -0.4371
     26  O2N       21.6030   34.8450  -20.5640 O.2   400  NAD400     -0.5170
     27  O5D       22.4610   35.1870  -18.1710 O.3   400  NAD400     -0.3112
     28  C5D       21.3950   35.2530  -17.2350 C.3   400  NAD400      0.1813
     29  C4D       21.8290   34.6680  -15.8760 C.3   400  NAD400      0.1799
     30  O4D       22.9940   35.4010  -15.3680 O.3   400  NAD400     -0.3327
     31  C3D       20.7580   34.7930  -14.7700 C.3   400  NAD400      0.2158
     32  O3D       20.8450   33.6220  -13.9830 O.3   400  NAD400     -0.2175
     33  C2D       21.1510   36.0570  -14.0380 C.3   400  NAD400      0.2309
     34  O2D       20.5940   36.1600  -12.7130 O.3   400  NAD400     -0.2158
     35  C1D       22.6600   35.9760  -14.0550 C.3   400  NAD400      0.2261
     36  N1N       23.3780   37.2500  -14.0340 N.pl3 400  NAD400     -0.2831
     37  C2N       24.3530   37.2750  -13.0520 C.2   400  NAD400      0.0633
     38  C3N       25.3290   38.2670  -13.1000 C.2   400  NAD400      0.0490
     39  C7N       26.6030   38.2180  -12.2210 C.2   400  NAD400      0.2814
     40  O7N       27.4930   39.0520  -12.3780 O.2   400  NAD400     -0.2670
     41  N7N       26.6990   37.2280  -11.2950 N.am  400  NAD400     -0.0839
     42  C4N       25.2390   39.4080  -13.9930 C.3   400  NAD400      0.0341
     43  C5N       24.1480   39.3120  -14.9250 C.3   400  NAD400      0.0264
     44  C6N       23.1410   38.3750  -14.9070 C.3   400  NAD400      0.0934
@<TRIPOS>BOND
     1    19    20    1
     2    19    17    2
     3    20    21    1
     4    18    17    1
     5    17    16    1
     6    21    22    2
     7    16    22    1
     8    16    15    2
     9    22    13    1
    10    15    14    1
    11    13    12    1
    12    13    14    1
    13    12     7    1
    14    12    10    1
    15     7     6    1
    16    11    10    1
    17     6     8    1
    18     6     5    1
    19    10     8    1
    20     9     8    1
    21     5     4    1
    22     4     1    1
    23    26    24    2
    24    25    24    1
    25    24    23    1
    26    24    27    1
    27     1     3    2
    28     1    23    1
    29     1     2    1
    30    27    28    1
    31    28    29    1
    32    29    30    1
    33    29    31    1
    34    30    35    1
    35    43    44    1
    36    43    42    1
    37    44    36    1
    38    31    33    1
    39    31    32    1
    40    35    33    1
    41    35    36    1
    42    33    34    1
    43    36    37    1
    44    42    38    1
    45    38    37    2
    46    38    39    1
    47    40    39    2
    48    39    41   am
