@<TRIPOS>MOLECULE
1xah_NAD_A_1.pdb
 44 48 0 0 0
SMALL
GASTEIGER

@<TRIPOS>ATOM
      1  PA        60.3960   21.8460   15.0930 P.3   400  NAD400      0.2189
      2  O1A       59.6170   22.9860   14.5950 O.2   400  NAD400     -0.5170
      3  O2A       59.7700   20.5780   14.6460 O.3   400  NAD400     -0.4371
      4  O5B       60.4770   21.9120   16.7110 O.3   400  NAD400     -0.3112
      5  C5B       60.7950   20.6740   17.4380 C.3   400  NAD400      0.1813
      6  C4B       59.6430   20.3940   18.3750 C.3   400  NAD400      0.1821
      7  O4B       59.5770   21.3510   19.4480 O.3   400  NAD400     -0.3135
      8  C3B       58.2280   20.4360   17.7820 C.3   400  NAD400      0.2184
      9  O3B       57.4090   19.3050   18.1840 O.3   400  NAD400     -0.2174
     10  C2B       57.5850   21.7360   18.3120 C.3   400  NAD400      0.2570
     11  O2B       56.1650   21.6500   18.3550 O.3   400  NAD400     -0.2130
     12  C1B       58.2130   21.8320   19.6570 C.3   400  NAD400      0.3186
     13  N9A       58.5020   23.1320   20.2870 N.pl3 400  NAD400     -0.1439
     14  C8A       58.7660   24.3130   19.6010 C.3   400  NAD400      0.3377
     15  N7A       59.0840   25.2790   20.4510 N.2   400  NAD400     -0.2095
     16  C5A       58.9670   24.7270   21.7200 C.2   400  NAD400      0.2526
     17  C6A       59.1600   25.2660   23.0260 C.2   400  NAD400      0.4393
     18  N6A       59.6080   26.4910   23.2920 N.pl3 400  NAD400      0.2180
     19  N1A       58.8540   24.4290   24.1050 N.2   400  NAD400      0.0021
     20  C2A       58.5150   23.1220   23.8510 C.3   400  NAD400      0.5254
     21  N3A       58.3550   22.5000   22.6810 N.2   400  NAD400     -0.0055
     22  C4A       58.5890   23.4100   21.6270 C.2   400  NAD400      0.3518
     23  O3        61.8720   21.9260   14.5250 O.3   400  NAD400     -0.2703
     24  PN        63.2790   22.4710   15.0670 P.3   400  NAD400      0.2189
     25  O1N       63.1010   23.7290   15.7690 O.2   400  NAD400     -0.5170
     26  O2N       63.8870   21.4740   16.0060 O.3   400  NAD400     -0.4371
     27  O5D       64.2370   22.6690   13.7870 O.3   400  NAD400     -0.3112
     28  C5D       64.3550   21.6790   12.7730 C.3   400  NAD400      0.1813
     29  C4D       63.6890   22.1470   11.4660 C.3   400  NAD400      0.1799
     30  O4D       64.3820   23.3310   10.9670 O.3   400  NAD400     -0.3327
     31  C3D       63.7540   21.1030   10.3380 C.3   400  NAD400      0.2158
     32  O3D       62.4930   21.0960    9.6860 O.3   400  NAD400     -0.2175
     33  C2D       64.9320   21.5670    9.4720 C.3   400  NAD400      0.2309
     34  O2D       64.8580   21.1140    8.1000 O.3   400  NAD400     -0.2158
     35  C1D       64.8950   23.0810    9.6140 C.3   400  NAD400      0.2263
     36  N1N       66.1880   23.8010    9.5890 N.pl3 400  NAD400     -0.2787
     37  C2N       66.1790   24.8390    8.6580 C.3   400  NAD400      0.1244
     38  C3N       67.2970   25.6710    8.5470 C.2   400  NAD400      0.0544
     39  C7N       67.2830   26.9880    7.6990 C.2   400  NAD400      0.2818
     40  O7N       66.2080   27.4700    7.3260 O.2   400  NAD400     -0.2670
     41  N7N       68.4670   27.5810    7.3890 N.am  400  NAD400     -0.0839
     42  C4N       68.5480   25.3730    9.2160 C.2   400  NAD400      0.0033
     43  C5N       68.4000   24.4000   10.2610 C.2   400  NAD400      0.0157
     44  C6N       67.3450   23.5230   10.4200 C.2   400  NAD400      0.0633
@<TRIPOS>BOND
     1    40    39    2
     2    41    39   am
     3    39    38    1
     4    34    33    1
     5    38    37    1
     6    38    42    2
     7    37    36    1
     8    42    43    1
     9    33    35    1
    10    33    31    1
    11    36    35    1
    12    36    44    1
    13    35    30    1
    14    32    31    1
    15    43    44    2
    16    31    29    1
    17    30    29    1
    18    29    28    1
    19    28    27    1
    20    27    24    1
    21    23    24    1
    22    23     1    1
    23     2     1    2
    24     3     1    1
    25    24    25    2
    26    24    26    1
    27     1     4    1
    28     4     5    1
    29     5     6    1
    30     8     9    1
    31     8    10    1
    32     8     6    1
    33    10    11    1
    34    10    12    1
    35     6     7    1
    36     7    12    1
    37    14    13    1
    38    14    15    1
    39    12    13    1
    40    13    22    1
    41    15    16    2
    42    22    16    1
    43    22    21    2
    44    16    17    1
    45    21    20    1
    46    17    18    1
    47    17    19    2
    48    20    19    1
