@<TRIPOS>MOLECULE
1xai_CRB_A_1.pdb
 17 17 0 0 0
SMALL
GASTEIGER

@<TRIPOS>ATOM
      1  C1        72.4640   27.8830    6.2270 C.2   500  CRB500      0.3917
      2  O11       73.3020   28.1940    5.3090 O.co2 500  CRB500     -0.2429
      3  O12       71.7140   28.6890    6.8210 O.co2 500  CRB500     -0.2429
      4  C2        72.4100   26.3820    6.5710 C.3   500  CRB500      0.2215
      5  O2        73.4900   25.6980    5.9320 O.3   500  CRB500     -0.2140
      6  C3        72.4840   26.0660    8.0830 C.3   500  CRB500      0.0771
      7  C4        72.0590   24.6280    8.4130 C.3   500  CRB500      0.1851
      8  O4        71.9330   24.4410    9.8430 O.3   500  CRB500     -0.2203
      9  C5        70.6920   24.2570    7.7100 C.3   500  CRB500      0.1827
     10  O5        70.3780   22.9330    7.9920 O.3   500  CRB500     -0.2204
     11  C6        70.8330   24.5050    6.1940 C.3   500  CRB500      0.0433
     12  C7        69.6540   24.0820    5.3290 C.3   500  CRB500      0.0616
     13  C8        71.0580   25.9280    5.9460 C.3   500  CRB500      0.0447
     14  P1        70.0230   23.5070    3.6400 P.3   500  CRB500      0.1173
     15  O91       71.2090   22.6220    3.6920 O.3   500  CRB500     -0.3571
     16  O92       70.2590   24.8230    2.9120 O.2   500  CRB500     -0.4601
     17  O93       68.6860   22.7680    3.2340 O.3   500  CRB500     -0.3571
@<TRIPOS>BOND
     1    16    14    2
     2    17    14    1
     3    14    15    1
     4    14    12    1
     5     2     1   ar
     6    12    11    1
     7     5     4    1
     8    13    11    1
     9    13     4    1
    10    11     9    1
    11     1     4    1
    12     1     3   ar
    13     4     6    1
    14     9    10    1
    15     9     7    1
    16     6     7    1
    17     7     8    1
