@<TRIPOS>MOLECULE
1xaj_NAD_A_1.pdb
 44 48 0 0 0
SMALL
GASTEIGER

@<TRIPOS>ATOM
      1  PA        60.1280   22.2400   15.3300 P.3   400  NAD400      0.2189
      2  O1A       59.1210   23.2220   14.9090 O.3   400  NAD400     -0.4371
      3  O2A       59.7940   20.9070   14.7930 O.2   400  NAD400     -0.5170
      4  O5B       60.1940   22.1920   16.9460 O.3   400  NAD400     -0.3112
      5  C5B       60.5120   20.9160   17.6240 C.3   400  NAD400      0.1813
      6  C4B       59.3830   20.5810   18.5940 C.3   400  NAD400      0.1821
      7  O4B       59.3230   21.4510   19.7570 O.3   400  NAD400     -0.3135
      8  C3B       57.9630   20.6250   18.0460 C.3   400  NAD400      0.2184
      9  O3B       57.2010   19.4480   18.4230 O.3   400  NAD400     -0.2174
     10  C2B       57.3080   21.8790   18.6580 C.3   400  NAD400      0.2570
     11  O2B       55.9000   21.7620   18.7760 O.3   400  NAD400     -0.2130
     12  C1B       57.9860   21.9690   19.9760 C.3   400  NAD400      0.3186
     13  N9A       58.3100   23.2730   20.5670 N.pl3 400  NAD400     -0.1439
     14  C8A       58.5300   24.4560   19.8510 C.3   400  NAD400      0.3377
     15  N7A       58.6070   25.4850   20.6710 N.2   400  NAD400     -0.2095
     16  C5A       58.6960   24.9290   21.9390 C.2   400  NAD400      0.2526
     17  C6A       58.9790   25.4910   23.2150 C.2   400  NAD400      0.4393
     18  N6A       59.4140   26.7300   23.4230 N.pl3 400  NAD400      0.2180
     19  N1A       58.7830   24.6570   24.3240 N.2   400  NAD400      0.0021
     20  C2A       58.5030   23.3220   24.1040 C.3   400  NAD400      0.5254
     21  N3A       58.3460   22.6590   22.9450 N.2   400  NAD400     -0.0055
     22  C4A       58.4480   23.5700   21.8800 C.2   400  NAD400      0.3518
     23  O3        61.5620   22.6850   14.7540 O.3   400  NAD400     -0.2703
     24  PN        63.0630   22.7530   15.3000 P.3   400  NAD400      0.2189
     25  O1N       63.2360   23.9090   16.1570 O.3   400  NAD400     -0.4371
     26  O2N       63.3790   21.5160   16.0810 O.2   400  NAD400     -0.5170
     27  O5D       64.0430   22.8370   14.0260 O.3   400  NAD400     -0.3112
     28  C5D       64.0490   21.8440   13.0240 C.3   400  NAD400      0.1813
     29  C4D       63.4340   22.4310   11.7650 C.3   400  NAD400      0.1799
     30  O4D       64.1880   23.6250   11.3990 O.3   400  NAD400     -0.3327
     31  C3D       63.5030   21.5040   10.5430 C.3   400  NAD400      0.2158
     32  O3D       62.2660   21.6150    9.8630 O.3   400  NAD400     -0.2175
     33  C2D       64.6940   22.0320    9.7660 C.3   400  NAD400      0.2309
     34  O2D       64.6950   21.6510    8.3760 O.3   400  NAD400     -0.2158
     35  C1D       64.5860   23.5150    9.9950 C.3   400  NAD400      0.2263
     36  N1N       65.8320   24.2890    9.9190 N.pl3 400  NAD400     -0.2787
     37  C2N       65.7020   25.3990    9.1010 C.3   400  NAD400      0.1244
     38  C3N       66.8050   26.2180    8.8890 C.2   400  NAD400      0.0544
     39  C7N       66.8120   27.3410    7.8110 C.2   400  NAD400      0.2818
     40  O7N       65.8170   27.5080    7.0960 O.2   400  NAD400     -0.2670
     41  N7N       67.9280   28.1110    7.6760 N.am  400  NAD400     -0.0839
     42  C4N       68.0310   26.0830    9.6470 C.2   400  NAD400      0.0033
     43  C5N       68.0450   24.9350   10.5010 C.2   400  NAD400      0.0157
     44  C6N       67.0630   23.9840   10.6090 C.2   400  NAD400      0.0633
@<TRIPOS>BOND
     1    40    39    2
     2    41    39   am
     3    39    38    1
     4    34    33    1
     5    38    37    1
     6    38    42    2
     7    37    36    1
     8    42    43    1
     9    33    35    1
    10    33    31    1
    11    32    31    1
    12    36    35    1
    13    36    44    1
    14    35    30    1
    15    43    44    2
    16    31    29    1
    17    30    29    1
    18    29    28    1
    19    28    27    1
    20    27    24    1
    21    23    24    1
    22    23     1    1
    23     3     1    2
    24     2     1    1
    25    24    26    2
    26    24    25    1
    27     1     4    1
    28     4     5    1
    29     5     6    1
    30     8     9    1
    31     8     6    1
    32     8    10    1
    33     6     7    1
    34    10    11    1
    35    10    12    1
    36     7    12    1
    37    14    13    1
    38    14    15    1
    39    12    13    1
    40    13    22    1
    41    15    16    2
    42    22    16    1
    43    22    21    2
    44    16    17    1
    45    21    20    1
    46    17    18    1
    47    17    19    2
    48    20    19    1
