@<TRIPOS>MOLECULE
1xaj_CRB_A_1.pdb
 17 17 0 0 0
SMALL
GASTEIGER

@<TRIPOS>ATOM
      1  C1        71.9420   27.6560    6.3830 C.2   500  CRB500      0.3917
      2  O11       72.5340   28.0170    5.2840 O.co2 500  CRB500     -0.2429
      3  O12       71.3760   28.4400    7.1870 O.co2 500  CRB500     -0.2429
      4  C2        71.9560   26.1260    6.6760 C.3   500  CRB500      0.2215
      5  O2        73.0410   25.5330    5.9690 O.3   500  CRB500     -0.2140
      6  C3        72.1110   25.7550    8.1840 C.3   500  CRB500      0.0771
      7  C4        71.6950   24.3120    8.5250 C.3   500  CRB500      0.1851
      8  O4        71.6110   24.1190    9.9670 O.3   500  CRB500     -0.2203
      9  C5        70.3100   23.9530    7.8720 C.3   500  CRB500      0.1827
     10  O5        69.9760   22.6430    8.1920 O.3   500  CRB500     -0.2204
     11  C6        70.3950   24.1900    6.3450 C.3   500  CRB500      0.0433
     12  C7        69.1700   23.7520    5.5380 C.3   500  CRB500      0.0616
     13  C8        70.6020   25.6220    6.0750 C.3   500  CRB500      0.0447
     14  P1        69.4540   23.1190    3.8560 P.3   500  CRB500      0.1173
     15  O91       70.6070   22.1880    3.9080 O.3   500  CRB500     -0.3571
     16  O92       69.7220   24.4100    3.0890 O.2   500  CRB500     -0.4601
     17  O93       68.0770   22.4230    3.5010 O.3   500  CRB500     -0.3571
@<TRIPOS>BOND
     1    16    14    2
     2    17    14    1
     3    14    15    1
     4    14    12    1
     5     2     1   ar
     6    12    11    1
     7     5     4    1
     8    13    11    1
     9    13     4    1
    10    11     9    1
    11     1     4    1
    12     1     3   ar
    13     4     6    1
    14     9    10    1
    15     9     7    1
    16     6     7    1
    17     7     8    1
