@<TRIPOS>MOLECULE
1xal_NAD_A_1.pdb
 44 48 0 0 0
SMALL
GASTEIGER

@<TRIPOS>ATOM
      1  PA        60.2890  -21.9080  -14.8890 P.3   400  NAD400      0.2189
      2  O1A       59.4640  -23.0020  -14.3680 O.3   400  NAD400     -0.4371
      3  O2A       59.7370  -20.6080  -14.4580 O.2   400  NAD400     -0.5170
      4  O5B       60.3420  -21.9860  -16.5100 O.3   400  NAD400     -0.3112
      5  C5B       60.6700  -20.7540  -17.2510 C.3   400  NAD400      0.1813
      6  C4B       59.4840  -20.3630  -18.1240 C.3   400  NAD400      0.1821
      7  O4B       59.3730  -21.1740  -19.3080 O.3   400  NAD400     -0.3135
      8  C3B       58.0860  -20.4500  -17.5230 C.3   400  NAD400      0.2184
      9  O3B       57.2520  -19.3240  -17.9180 O.3   400  NAD400     -0.2174
     10  C2B       57.4750  -21.7590  -18.0700 C.3   400  NAD400      0.2570
     11  O2B       56.0500  -21.7340  -18.1150 O.3   400  NAD400     -0.2130
     12  C1B       58.0850  -21.8330  -19.4150 C.3   400  NAD400      0.3186
     13  N9A       58.5280  -23.1000  -19.9770 N.pl3 400  NAD400     -0.1439
     14  C8A       58.8890  -24.2240  -19.2440 C.3   400  NAD400      0.3377
     15  N7A       59.1330  -25.2400  -20.0510 N.2   400  NAD400     -0.2095
     16  C5A       59.0970  -24.7120  -21.3280 C.2   400  NAD400      0.2526
     17  C6A       59.4020  -25.2610  -22.6000 C.2   400  NAD400      0.4393
     18  N6A       59.9040  -26.4700  -22.8030 N.pl3 400  NAD400      0.2180
     19  N1A       59.1540  -24.4500  -23.7140 N.2   400  NAD400      0.0021
     20  C2A       58.7470  -23.1500  -23.5080 C.3   400  NAD400      0.5254
     21  N3A       58.4520  -22.5240  -22.3640 N.2   400  NAD400     -0.0055
     22  C4A       58.6790  -23.4030  -21.2870 C.2   400  NAD400      0.3518
     23  O3        61.7780  -22.0450  -14.3000 O.3   400  NAD400     -0.2703
     24  PN        63.1930  -22.5810  -14.8240 P.3   400  NAD400      0.2189
     25  O1N       63.0210  -23.8420  -15.5310 O.3   400  NAD400     -0.4371
     26  O2N       63.7970  -21.5780  -15.7540 O.2   400  NAD400     -0.5170
     27  O5D       64.1700  -22.7820  -13.5370 O.3   400  NAD400     -0.3112
     28  C5D       64.3030  -21.8240  -12.4910 C.3   400  NAD400      0.1813
     29  C4D       63.7900  -22.4130  -11.1650 C.3   400  NAD400      0.1799
     30  O4D       64.6150  -23.5560  -10.7690 O.3   400  NAD400     -0.3327
     31  C3D       63.8420  -21.4230   -9.9800 C.3   400  NAD400      0.2158
     32  O3D       62.5800  -21.4650   -9.3370 O.3   400  NAD400     -0.2175
     33  C2D       65.0010  -21.9190   -9.1240 C.3   400  NAD400      0.2309
     34  O2D       64.9050  -21.5480   -7.7320 O.3   400  NAD400     -0.2158
     35  C1D       64.9810  -23.4120   -9.3530 C.3   400  NAD400      0.2263
     36  N1N       66.2790  -24.1000   -9.2430 N.pl3 400  NAD400     -0.2787
     37  C2N       66.2810  -25.0820   -8.2630 C.3   400  NAD400      0.1244
     38  C3N       67.2810  -26.0580   -8.2850 C.2   400  NAD400      0.0544
     39  C7N       67.2760  -27.2860   -7.3230 C.2   400  NAD400      0.2818
     40  O7N       66.2390  -27.5990   -6.7320 O.2   400  NAD400     -0.2670
     41  N7N       68.4310  -27.9900   -7.1560 N.am  400  NAD400     -0.0839
     42  C4N       68.4000  -26.0050   -9.2080 C.2   400  NAD400      0.0033
     43  C5N       68.3800  -24.8550  -10.0660 C.2   400  NAD400      0.0157
     44  C6N       67.4510  -23.8350  -10.0470 C.2   400  NAD400      0.0633
@<TRIPOS>BOND
     1    19    20    1
     2    19    17    2
     3    20    21    1
     4    18    17    1
     5    17    16    1
     6    21    22    2
     7    16    22    1
     8    16    15    2
     9    22    13    1
    10    15    14    1
    11    13    12    1
    12    13    14    1
    13    12     7    1
    14    12    10    1
    15     7     6    1
    16     6     8    1
    17     6     5    1
    18    11    10    1
    19    10     8    1
    20     9     8    1
    21     5     4    1
    22     4     1    1
    23    26    24    2
    24    25    24    1
    25     1     3    2
    26     1     2    1
    27     1    23    1
    28    24    23    1
    29    24    27    1
    30    27    28    1
    31    28    29    1
    32    29    30    1
    33    29    31    1
    34    30    35    1
    35    43    44    2
    36    43    42    1
    37    44    36    1
    38    31    32    1
    39    31    33    1
    40    35    36    1
    41    35    33    1
    42    36    37    1
    43    42    38    2
    44    33    34    1
    45    38    37    1
    46    38    39    1
    47    39    41   am
    48    39    40    2
