@<TRIPOS>MOLECULE
1xal_CRB_A_1.pdb
 17 17 0 0 0
SMALL
GASTEIGER

@<TRIPOS>ATOM
      1  C1        72.3410  -27.4380   -5.7760 C.2   500  CRB500      0.3917
      2  O11       73.0030  -27.8150   -4.7350 O.co2 500  CRB500     -0.2429
      3  O12       71.7650  -28.2110   -6.5740 O.co2 500  CRB500     -0.2429
      4  C2        72.2850  -25.9060   -6.0100 C.3   500  CRB500      0.2215
      5  O2        73.3450  -25.2860   -5.2930 O.3   500  CRB500     -0.2140
      6  C3        72.4170  -25.4890   -7.4990 C.3   500  CRB500      0.0771
      7  C4        71.9470  -24.0610   -7.7870 C.3   500  CRB500      0.1851
      8  O4        71.9040  -23.8160   -9.2180 O.3   500  CRB500     -0.2203
      9  C5        70.5270  -23.8170   -7.1630 C.3   500  CRB500      0.1827
     10  O5        70.0950  -22.5360   -7.4850 O.3   500  CRB500     -0.2204
     11  C6        70.6140  -24.0650   -5.6310 C.3   500  CRB500      0.0433
     12  C7        69.3550  -23.7180   -4.8220 C.3   500  CRB500      0.0616
     13  C8        70.9120  -25.4850   -5.3790 C.3   500  CRB500      0.0447
     14  P1        69.5660  -23.1570   -3.0920 P.3   500  CRB500      0.1173
     15  O91       70.7730  -22.3040   -3.0250 O.2   500  CRB500     -0.4601
     16  O92       69.6890  -24.4770   -2.3520 O.3   500  CRB500     -0.3571
     17  O93       68.2200  -22.3860   -2.8040 O.3   500  CRB500     -0.3571
@<TRIPOS>BOND
     1     8     7    1
     2     7     6    1
     3     7     9    1
     4     6     4    1
     5    10     9    1
     6     9    11    1
     7     3     1   ar
     8     4     1    1
     9     4    13    1
    10     4     5    1
    11     1     2   ar
    12    11    13    1
    13    11    12    1
    14    12    14    1
    15    14    15    2
    16    14    17    1
    17    14    16    1
