@<TRIPOS>MOLECULE
1xan_HXP_A_1.pdb
 21 23 0 0 0
SMALL
GASTEIGER

@<TRIPOS>ATOM
      1  C1        84.2800   -5.4750   35.2470 C.ar  1024  HXP1024     0.0063
      2  C2        85.4170   -6.2340   34.8760 C.ar  1024  HXP1024     0.0422
      3  C3        85.4270   -7.6090   35.0140 C.ar  1024  HXP1024     0.1988
      4  O3        86.6080   -8.1910   34.6130 O.3   1024  HXP1024    -0.2865
      5  C4        84.3210   -8.2690   35.4940 C.ar  1024  HXP1024     0.0789
      6  C4A       83.1560   -7.5700   35.8550 C.ar  1024  HXP1024     0.1424
      7  O10       82.0390   -8.2980   36.3490 O.3   1024  HXP1024    -0.4701
      8  C5A       80.9570   -7.5020   36.6680 C.3   1024  HXP1024     0.2135
      9  C5        79.8680   -8.2180   37.1460 C.2   1024  HXP1024     0.0632
     10  C6        78.6600   -7.5940   37.5350 C.2   1024  HXP1024     0.1953
     11  O6        77.5440   -8.2850   38.0170 O.2   1024  HXP1024    -0.2868
     12  C7        78.5890   -6.2100   37.4450 C.2   1024  HXP1024     0.0416
     13  C8        79.6970   -5.4870   36.9720 C.2   1024  HXP1024     0.0028
     14  C8A       80.8970   -6.1200   36.5860 C.2   1024  HXP1024     0.0218
     15  C9        81.9710   -5.4070   36.1200 C.2   1024  HXP1024     0.0028
     16  C9A       83.1090   -6.1410   35.7530 C.ar  1024  HXP1024     0.0340
     17  C1'       81.8880   -3.9140   36.0290 C.2   1024  HXP1024     0.0067
     18  C2'       83.0270   -2.9220   35.7080 C.2   1024  HXP1024     0.0861
     19  C3'       82.7660   -1.3670   35.8950 C.2   1024  HXP1024     0.3880
     20  O1'       83.1190   -0.6160   34.9740 O.co2 1024  HXP1024    -0.2405
     21  O2'       82.2340   -0.9470   36.9380 O.co2 1024  HXP1024    -0.2405
@<TRIPOS>BOND
     1     4     3    1
     2     2     3   ar
     3     2     1   ar
     4    20    19   ar
     5     3     5   ar
     6     1    16   ar
     7     5     6   ar
     8    18    19    1
     9    18    17    2
    10    16     6   ar
    11    16    15    1
    12     6     7    1
    13    19    21   ar
    14    17    15    1
    15    15    14    2
    16     7     8    1
    17    14     8    1
    18    14    13    1
    19     8     9    1
    20    13    12    2
    21     9    10    2
    22    12    10    1
    23    10    11    1
