@<TRIPOS>MOLECULE
1xap_TTB_A_1.pdb
 26 28 0 0 0
SMALL
GASTEIGER

@<TRIPOS>ATOM
      1  C         41.9000   20.3100  101.3100 C.3     1  TTB1        0.0310
      2  C2        42.5580   21.6170  100.8350 C.2     1  TTB1       -0.0218
      3  C3        42.0980   22.9050  101.0410 C.2     1  TTB1       -0.0043
      4  C4        40.8980   23.4660  101.7400 C.ar    1  TTB1       -0.0003
      5  C5        40.4810   24.7890  101.3780 C.ar    1  TTB1        0.0002
      6  C6        39.3570   25.4000  101.9780 C.ar    1  TTB1        0.0066
      7  C7        38.5920   24.7080  102.9640 C.ar    1  TTB1        0.0798
      8  C8        37.3890   25.3380  103.5950 C.2     1  TTB1        0.3878
      9  O         37.0460   26.4750  103.2510 O.co2   1  TTB1       -0.2406
     10  O1        36.7500   24.7070  104.4460 O.co2   1  TTB1       -0.2406
     11  C9        39.0060   23.3980  103.3350 C.ar    1  TTB1        0.0066
     12  C10       40.1360   22.7910  102.7300 C.ar    1  TTB1        0.0002
     13  C11       43.8370   21.4640  100.0480 C.ar    1  TTB1       -0.0043
     14  C12       44.8810   22.4150  100.1500 C.ar    1  TTB1       -0.0007
     15  C13       46.0590   22.2660   99.4060 C.ar    1  TTB1       -0.0046
     16  C14       46.2720   21.1570   98.5230 C.ar    1  TTB1       -0.0268
     17  C15       45.2180   20.1710   98.4020 C.ar    1  TTB1       -0.0268
     18  C16       44.0310   20.3570   99.1750 C.ar    1  TTB1       -0.0049
     19  C17       45.3510   18.9280   97.4770 C.3     1  TTB1        0.0186
     20  C18       44.7910   17.6850   98.2070 C.3     1  TTB1        0.0044
     21  C19       44.5550   19.0970   96.1590 C.3     1  TTB1        0.0044
     22  C20       46.8350   18.6340   97.1030 C.3     1  TTB1        0.0044
     23  C21       47.6340   19.8930   96.6890 C.3     1  TTB1        0.0044
     24  C22       47.6100   21.0590   97.7340 C.3     1  TTB1        0.0186
     25  C23       47.8830   22.3810   96.9760 C.3     1  TTB1        0.0044
     26  C24       48.7720   20.8130   98.7170 C.3     1  TTB1        0.0044
@<TRIPOS>BOND
     1    21    19    1
     2    23    22    1
     3    23    24    1
     4    25    24    1
     5    22    19    1
     6    19    20    1
     7    19    17    1
     8    24    16    1
     9    24    26    1
    10    17    16   ar
    11    17    18   ar
    12    16    15   ar
    13    18    13   ar
    14    15    14   ar
    15    13    14   ar
    16    13     2    1
    17     2     3    2
    18     2     1    1
    19     3     4    1
    20     5     4   ar
    21     5     6   ar
    22     4    12   ar
    23     6     7   ar
    24    12    11   ar
    25     7    11   ar
    26     7     8    1
    27     9     8   ar
    28     8    10   ar
