@<TRIPOS>MOLECULE
1xb0_III_G_1.pdb
 27 27 0 0 0
SMALL
GASTEIGER

@<TRIPOS>ATOM
      1  N         91.5110   78.2970   36.8130 N.3   901  ALA901     -0.1231
      2  CA        92.5770   77.5900   36.1070 C.3   901  ALA901      0.1694
      3  C         93.6760   78.5910   35.8050 C.2   901  ALA901      0.2592
      4  O         93.5530   79.7580   36.1480 O.2   901  ALA901     -0.2718
      5  CB        92.0490   76.9920   34.8120 C.3   901  ALA901      0.0304
      6  N         94.7400   78.1360   35.1520 N.am  902  VAL902     -0.1966
      7  CA        95.8600   79.0070   34.8190 C.3   902  VAL902      0.1712
      8  C         96.3780   78.7440   33.4060 C.2   902  VAL902      0.2458
      9  O         96.3480   77.6120   32.9260 O.2   902  VAL902     -0.2730
     10  CB        97.0200   78.8150   35.8370 C.3   902  VAL902      0.0289
     11  CG1       98.2670   79.5250   35.3570 C.3   902  VAL902      0.0023
     12  CG2       96.6050   79.3680   37.2000 C.3   902  VAL902      0.0023
     13  N         96.8630   79.7900   32.7200 N.am  903  PRO903     -0.2716
     14  CA        97.3760   79.6090   31.3600 C.3   903  PRO903      0.1536
     15  C         98.6620   78.7970   31.2920 C.2   903  PRO903      0.2598
     16  O         99.4320   78.7540   32.2500 O.2   903  PRO903     -0.2715
     17  CB        97.5660   81.0420   30.8680 C.3   903  PRO903      0.0310
     18  CG        97.8320   81.8000   32.1190 C.3   903  PRO903      0.0237
     19  CD        96.8380   81.2170   33.0820 C.3   903  PRO903      0.0939
     20  N         98.8820   78.1490   30.1520 N.am  904  ILE904     -0.1978
     21  CA       100.0750   77.3430   29.9430 C.3   904  ILE904      0.1596
     22  C        100.7230   77.6900   28.6020 C.2   904  ILE904      0.2287
     23  O        100.0350   78.0520   27.6430 O.2   904  ILE904     -0.2864
     24  CB        99.7410   75.8340   29.9630 C.3   904  ILE904      0.0276
     25  CG1       99.1050   75.4550   31.3060 C.3   904  ILE904      0.0022
     26  CG2      101.0030   75.0170   29.7080 C.3   904  ILE904      0.0022
     27  CD1       99.9740   75.7620   32.5240 C.3   904  ILE904      0.0001
@<TRIPOS>BOND
     1    23    22    2
     2    22    21    1
     3    26    24    1
     4    21    24    1
     5    21    20    1
     6    24    25    1
     7    20    15   am
     8    17    14    1
     9    17    18    1
    10    15    14    1
    11    15    16    2
    12    25    27    1
    13    14    13    1
    14    18    19    1
    15    13    19    1
    16    13     8   am
    17     9     8    2
    18     8     7    1
    19     5     2    1
    20     7     6    1
    21     7    10    1
    22     6     3   am
    23    11    10    1
    24     3     2    1
    25     3     4    2
    26    10    12    1
    27     2     1    1
