@<TRIPOS>MOLECULE
1xb1_III_G_1.pdb
 32 32 0 0 0
SMALL
GASTEIGER

@<TRIPOS>ATOM
      1  N         37.4390   69.3660   85.6350 N.3   901  ALA901     -0.1231
      2  CA        36.2180   68.6580   85.9910 C.3   901  ALA901      0.1694
      3  C         35.9910   67.5410   84.9890 C.2   901  ALA901      0.2592
      4  O         36.6450   67.5020   83.9510 O.2   901  ALA901     -0.2718
      5  CB        35.0270   69.6200   85.9930 C.3   901  ALA901      0.0304
      6  N         35.0650   66.6410   85.2980 N.am  902  VAL902     -0.1966
      7  CA        34.7750   65.5260   84.4150 C.3   902  VAL902      0.1712
      8  C         33.2880   65.1760   84.3630 C.2   902  VAL902      0.2458
      9  O         32.5750   65.2930   85.3570 O.2   902  VAL902     -0.2730
     10  CB        35.6000   64.2890   84.8460 C.3   902  VAL902      0.0289
     11  CG1       34.8180   62.9950   84.5970 C.3   902  VAL902      0.0023
     12  CG2       36.9210   64.2760   84.0800 C.3   902  VAL902      0.0023
     13  N         32.7990   64.7490   83.1880 N.am  903  PRO903     -0.2716
     14  CA        31.3840   64.3890   83.0440 C.3   903  PRO903      0.1536
     15  C         30.9620   63.3050   84.0270 C.2   903  PRO903      0.2598
     16  O         31.8000   62.5590   84.5370 O.2   903  PRO903     -0.2715
     17  CB        31.2910   63.9290   81.5950 C.3   903  PRO903      0.0310
     18  CG        32.2970   64.7920   80.9220 C.3   903  PRO903      0.0237
     19  CD        33.4770   64.7430   81.8800 C.3   903  PRO903      0.0939
     20  N         29.6560   63.2280   84.2740 N.am  904  ILE904     -0.1964
     21  CA        29.0680   62.2720   85.2100 C.3   904  ILE904      0.1727
     22  C         28.3680   61.1190   84.5010 C.2   904  ILE904      0.2616
     23  O         27.4860   61.3420   83.6620 O.2   904  ILE904     -0.2715
     24  CB        28.0180   62.9620   86.1010 C.3   904  ILE904      0.0290
     25  CG1       28.6590   64.1240   86.8610 C.3   904  ILE904      0.0022
     26  CG2       27.4000   61.9570   87.0550 C.3   904  ILE904      0.0023
     27  CD1       27.6580   65.0170   87.5720 C.3   904  ILE904      0.0001
     28  N         28.7450   59.8920   84.8600 N.am  905  ALA905     -0.1977
     29  CA        28.1540   58.6880   84.2740 C.3   905  ALA905      0.1597
     30  C         26.6290   58.7640   84.2220 C.2   905  ALA905      0.2287
     31  O         26.0180   59.6820   84.7720 O.2   905  ALA905     -0.2864
     32  CB        28.5810   57.4610   85.0700 C.3   905  ALA905      0.0319
@<TRIPOS>BOND
     1    18    17    1
     2    18    19    1
     3    17    14    1
     4    19    13    1
     5    14    13    1
     6    14    15    1
     7    13     8   am
     8    23    22    2
     9     4     3    2
    10    15    20   am
    11    15    16    2
    12    12    10    1
    13    30    29    1
    14    30    31    2
    15    20    21    1
    16    29    28    1
    17    29    32    1
    18     8     7    1
    19     8     9    2
    20     7    10    1
    21     7     6    1
    22    22    28   am
    23    22    21    1
    24    11    10    1
    25     3     6   am
    26     3     2    1
    27    21    24    1
    28     1     2    1
    29     2     5    1
    30    24    25    1
    31    24    26    1
    32    25    27    1
