@<TRIPOS>MOLECULE
1xbb_STI_A_1.pdb
 37 41 0 0 0
SMALL
GASTEIGER

@<TRIPOS>ATOM
      1  C1         3.9380    3.4650   11.7780 C.ar    1  STI1        0.0208
      2  C6         3.6290    2.3700   12.6010 C.ar    1  STI1        0.0057
      3  C5         4.6170    1.8690   13.4470 C.ar    1  STI1        0.0497
      4  C4         5.8700    2.4920   13.4700 C.ar    1  STI1        0.1014
      5  N3         6.1530    3.5280   12.6580 N.ar    1  STI1       -0.2422
      6  C2         5.2200    4.0130   11.8200 C.ar    1  STI1        0.0989
      7  C7         4.3560    0.7770   14.2950 C.2     1  STI1        0.1472
      8  C12        5.3540    0.2660   15.1580 C.2     1  STI1        0.0546
      9  C11        5.0000   -0.7930   15.9910 C.2     1  STI1        0.1144
     10  N10        3.7150   -1.2770   15.9520 N.2     1  STI1       -0.1683
     11  C9         2.7860   -0.8100   15.0840 C.1     1  STI1        0.1696
     12  N8         3.0970    0.2260   14.2690 N.2     1  STI1       -0.3361
     13  N13        1.5510   -1.3980   15.1430 N.pl3   1  STI1       -0.1360
     14  C14        0.4250   -1.0900   14.4150 C.ar    1  STI1        0.0799
     15  C19       -0.6890   -1.8950   14.6570 C.ar    1  STI1       -0.0057
     16  C18       -1.8910   -1.6720   13.9850 C.ar    1  STI1       -0.0016
     17  C17       -1.9570   -0.6360   13.0540 C.ar    1  STI1        0.0164
     18  C16       -0.8630    0.1810   12.7910 C.ar    1  STI1        0.0750
     19  C15        0.3500   -0.0450   13.4700 C.ar    1  STI1        0.0336
     20  N21       -1.1130    1.1520   11.8590 N.am    1  STI1       -0.1754
     21  C22       -0.2990    2.0520   11.3120 C.2     1  STI1        0.2690
     22  C23       -0.8540    3.2160   10.5210 C.ar    1  STI1        0.0554
     23  C25       -0.1590    3.6410    9.3840 C.ar    1  STI1        0.0043
     24  C26       -0.6230    4.7160    8.6260 C.ar    1  STI1       -0.0028
     25  C27       -1.7950    5.3740    9.0020 C.ar    1  STI1       -0.0061
     26  C28       -2.4920    4.9560   10.1450 C.ar    1  STI1       -0.0028
     27  C29       -2.0220    3.8790   10.9050 C.ar    1  STI1        0.0043
     28  C46       -2.2480    6.5420    8.1440 C.3     1  STI1        0.0992
     29  N48       -3.6840    6.7940    8.1130 N.3     1  STI1       -0.2665
     30  C53       -4.2520    7.7800    9.0360 C.3     1  STI1        0.0899
     31  C52       -5.4660    7.1450    9.7170 C.3     1  STI1        0.0897
     32  N51       -6.2730    6.6010    8.6310 N.3     1  STI1       -0.2691
     33  C54       -7.6040    7.1290    8.3640 C.3     1  STI1        0.0897
     34  C50       -5.7380    5.5230    7.8110 C.3     1  STI1        0.0897
     35  C49       -4.5020    6.0990    7.1150 C.3     1  STI1        0.0899
     36  O29        0.9160    1.9340   11.3550 O.2     1  STI1       -0.2680
     37  C20       -0.6400   -3.0270   15.6600 C.3     1  STI1        0.0324
@<TRIPOS>BOND
     1    35    34    1
     2    35    29    1
     3    34    32    1
     4    29    28    1
     5    29    30    1
     6    28    25    1
     7    33    32    1
     8    24    25   ar
     9    24    23   ar
    10    32    31    1
    11    25    26   ar
    12    30    31    1
    13    23    22   ar
    14    26    27   ar
    15    22    27   ar
    16    22    21    1
    17    21    36    2
    18    21    20   am
    19     1     6   ar
    20     1     2   ar
    21     6     5   ar
    22    20    18    1
    23     2     3   ar
    24     5     4   ar
    25    18    17   ar
    26    18    19   ar
    27    17    16   ar
    28     3     4   ar
    29     3     7    1
    30    19    14   ar
    31    16    15   ar
    32    12     7    2
    33    12    11    2
    34     7     8    1
    35    14    15   ar
    36    14    13    1
    37    15    37    1
    38    11    13    1
    39    11    10    2
    40     8     9    2
    41    10     9    1
