@<TRIPOS>MOLECULE
1xbc_STU_A_1.pdb
 35 42 0 0 0
SMALL
GASTEIGER

@<TRIPOS>ATOM
      1  O4         0.2880    2.6620   11.1590 O.3     1  STU1       -0.3186
      2  C25       -0.5530    2.1140   12.1830 C.3     1  STU1        0.2078
      3  C24       -1.3200    3.1870   12.9850 C.3     1  STU1        0.0739
      4  C23       -0.9940    4.5980   12.4890 C.3     1  STU1        0.1086
      5  C22        0.5130    4.7680   12.4570 C.3     1  STU1        0.1761
      6  C21        1.1240    3.8070   11.4150 C.3     1  STU1        0.1915
      7  C26        1.2270    4.4960   10.0540 C.3     1  STU1        0.0566
      8  N2         2.4570    3.3470   11.9160 N.ar    1  STU1       -0.3054
      9  C18        2.5470    2.3070   12.7690 C.ar    1  STU1        0.0774
     10  C19        1.6340    1.4040   13.3240 C.ar    1  STU1        0.0783
     11  C6         2.0590    0.3580   14.2780 C.ar    1  STU1        0.0293
     12  C7         3.4820    0.2660   14.6600 C.ar    1  STU1        0.0822
     13  C10        4.4300    1.2250   14.1040 C.ar    1  STU1        0.0154
     14  C11        3.9800    2.1920   13.2040 C.ar    1  STU1        0.0173
     15  C12        4.7130    3.2710   12.5110 C.ar    1  STU1        0.0171
     16  C17        3.6630    3.9390   11.7300 C.ar    1  STU1        0.0617
     17  C16        4.0950    5.0400   10.9830 C.ar    1  STU1        0.0172
     18  C15        5.4350    5.4420   11.0070 C.ar    1  STU1        0.0015
     19  C14        6.3950    4.7720   11.7760 C.ar    1  STU1        0.0001
     20  C13        6.0430    3.6690   12.5560 C.ar    1  STU1        0.0015
     21  C9         5.8020    0.9420   14.6740 C.3     1  STU1        0.1650
     22  N1         5.5020   -0.1520   15.6180 N.2     1  STU1       -0.1976
     23  C8         4.2400   -0.6050   15.5820 C.1     1  STU1        0.1501
     24  O5         3.7620   -1.5520   16.1890 O.2     1  STU1       -0.2222
     25  C5         0.8460   -0.4050   14.6310 C.ar    1  STU1        0.0180
     26  C20       -0.2510    0.2190   13.8730 C.ar    1  STU1        0.0618
     27  C1        -1.5470   -0.2800   13.9900 C.ar    1  STU1        0.0172
     28  C2        -1.7380   -1.3670   14.8540 C.ar    1  STU1        0.0015
     29  C3        -0.6820   -1.9480   15.5800 C.ar    1  STU1        0.0001
     30  C4         0.6320   -1.4730   15.4890 C.ar    1  STU1        0.0015
     31  N3         0.2450    1.2880   13.0930 N.ar    1  STU1       -0.3039
     32  O6         0.9760    4.5220   13.7920 O.3     1  STU1       -0.3478
     33  C27        1.8980    5.4880   14.2970 C.3     1  STU1        0.1743
     34  N4        -1.5810    5.6430   13.3080 N.3     1  STU1       -0.2152
     35  C28       -1.4970    7.0250   12.8450 C.3     1  STU1        0.1075
@<TRIPOS>BOND
     1     7     6    1
     2    17    18   ar
     3    17    16   ar
     4    18    19   ar
     5     1     6    1
     6     1     2    1
     7     6     8    1
     8     6     5    1
     9    16     8   ar
    10    16    15   ar
    11    19    20   ar
    12     8     9   ar
    13     2     3    1
    14     2    31    1
    15     5     4    1
    16     5    32    1
    17     4     3    1
    18     4    34    1
    19    15    20   ar
    20    15    14   ar
    21     9    14   ar
    22     9    10   ar
    23    35    34    1
    24    31    10   ar
    25    31    26   ar
    26    14    13   ar
    27    10    11   ar
    28    32    33    1
    29    26    27   ar
    30    26    25   ar
    31    27    28   ar
    32    13    12   ar
    33    13    21    1
    34    11    25   ar
    35    11    12   ar
    36    25    30   ar
    37    12    23    1
    38    21    22    1
    39    28    29   ar
    40    30    29   ar
    41    23    22    2
    42    23    24    2
