@<TRIPOS>MOLECULE
1xbn_HEM_A_1.pdb
 43 50 0 0 0
SMALL
GASTEIGER

@<TRIPOS>ATOM
      1  CHA       79.1170   61.5680   21.1160 C.2   200  HEM200      0.0000
      2  CHB       76.9790   57.8470   19.0570 C.2   200  HEM200      0.0000
      3  CHC       75.0520   56.8520   23.3300 C.2   200  HEM200      0.0000
      4  CHD       76.3870   61.0910   25.0580 C.2   200  HEM200      0.0000
      5  C1A       78.7190   60.6740   20.2160 C.ar  200  HEM200      0.0000
      6  C2A       79.4670   60.4570   19.0430 C.ar  200  HEM200      0.0000
      7  C3A       78.8270   59.4350   18.4400 C.ar  200  HEM200      0.0000
      8  C4A       77.7760   58.9460   19.2980 C.ar  200  HEM200      0.0000
      9  CMA       79.1530   58.7230   17.1080 C.3   200  HEM200      0.0000
     10  CAA       80.4900   61.4860   18.4510 C.3   200  HEM200      0.0000
     11  CBA       80.0240   61.6400   16.9690 C.3   200  HEM200      0.0000
     12  CGA       80.4440   62.9010   16.3370 C.2   200  HEM200      0.0000
     13  O1A       81.4950   62.7220   15.6940 O.co2 200  HEM200      0.0000
     14  O2A       79.8090   64.0150   16.4550 O.co2 200  HEM200      0.0000
     15  C1B       76.2340   57.2930   20.0490 C.2   200  HEM200      0.0000
     16  C2B       75.3650   56.1620   19.9130 C.2   200  HEM200      0.0000
     17  C3B       74.8540   55.9610   21.1290 C.2   200  HEM200      0.0000
     18  C4B       75.3330   56.9290   22.0250 C.2   200  HEM200      0.0000
     19  CMB       74.9900   55.3900   18.5990 C.3   200  HEM200      0.0000
     20  CAB       73.8910   54.9020   21.6520 C.2   200  HEM200      0.0000
     21  CBB       73.8530   53.6980   21.0830 C.2   200  HEM200      0.0000
     22  C1C       75.3220   57.8430   24.1830 C.ar  200  HEM200      0.0000
     23  C2C       74.9530   57.8580   25.5670 C.ar  200  HEM200      0.0000
     24  C3C       75.3240   59.0560   26.0230 C.ar  200  HEM200      0.0000
     25  C4C       75.9060   59.8300   24.9690 C.ar  200  HEM200      0.0000
     26  CMC       74.1870   56.7520   26.3520 C.3   200  HEM200      0.0000
     27  CAC       75.0470   59.5370   27.4440 C.3   200  HEM200      0.0000
     28  CBC       73.7910   59.3130   27.8450 C.3   200  HEM200      0.0000
     29  C1D       77.2810   61.5660   24.1410 C.2   200  HEM200      0.0000
     30  C2D       77.9120   62.8600   24.2290 C.2   200  HEM200      0.0000
     31  C3D       78.8360   62.9370   23.0630 C.2   200  HEM200      0.0000
     32  C4D       78.5800   61.7200   22.3350 C.2   200  HEM200      0.0000
     33  CMD       77.7350   63.9800   25.2480 C.3   200  HEM200      0.0000
     34  CAD       79.6840   64.1320   22.5720 C.3   200  HEM200      0.0000
     35  CBD       78.8480   65.4020   22.4420 C.3   200  HEM200      0.0000
     36  CGD       79.7850   66.5570   22.1170 C.2   200  HEM200      0.0000
     37  O1D       80.6100   66.4850   21.1720 O.co2 200  HEM200      0.0000
     38  O2D       79.7310   67.5950   22.8100 O.co2 200  HEM200      0.0000
     39  NA        77.7210   59.7640   20.3750 N.ar  200  HEM200      0.0000
     40  NB        76.1670   57.7500   21.3690 N.2   200  HEM200      0.0000
     41  NC        75.8730   59.0360   23.8380 N.ar  200  HEM200      0.0000
     42  ND        77.6020   60.9600   22.9080 N.2   200  HEM200      0.0000
     43 FE         76.7600   59.4360   22.0930 Fe    200  HEM200      0.0000
@<TRIPOS>BOND
     1    13    12   ar
     2    12    14   ar
     3    12    11    1
     4    11    10    1
     5     9     7    1
     6     7     6   ar
     7     7     8   ar
     8    10     6    1
     9    19    16    1
    10     6     5   ar
    11     2     8    2
    12     2    15    1
    13     8    39   ar
    14    16    15    1
    15    16    17    2
    16    15    40    2
    17     5    39   ar
    18     5     1    2
    19    39    43    1
    20    21    20    2
    21     1    32    1
    22    17    20    1
    23    17    18    1
    24    37    36   ar
    25    40    18    1
    26    40    43    1
    27    18     3    2
    28    43    42    1
    29    43    41    1
    30    36    35    1
    31    36    38   ar
    32    32    42    2
    33    32    31    1
    34    35    34    1
    35    34    31    1
    36    42    29    1
    37    31    30    2
    38     3    22    1
    39    41    22   ar
    40    41    25   ar
    41    29    30    1
    42    29     4    2
    43    22    23   ar
    44    30    33    1
    45    25     4    1
    46    25    24   ar
    47    23    24   ar
    48    23    26    1
    49    24    27    1
    50    27    28    1
