@<TRIPOS>MOLECULE
1xbo_IX1_A_1.pdb
 31 33 0 0 0
SMALL
GASTEIGER

@<TRIPOS>ATOM
      1  C1        32.8960   31.7900   18.5570 C.ar  322  IX1322      0.0031
      2  C2        32.4280   30.9070   19.5840 C.ar  322  IX1322      0.0370
      3  C3        31.0240   30.6640   19.6750 C.ar  322  IX1322      0.0031
      4  C4        30.1000   31.2720   18.7780 C.ar  322  IX1322     -0.0001
      5  C5        30.5890   32.1510   17.7550 C.ar  322  IX1322     -0.0000
      6  C6        31.9820   32.4040   17.6500 C.ar  322  IX1322      0.0001
      7  C7        33.3160   30.2190   20.5890 C.ar  322  IX1322      0.1755
      8  O12       32.6950   29.5150   21.6090 O.2   322  IX1322     -0.3534
      9  N13       33.7090   28.9820   22.4160 N.ar  322  IX1322     -0.0704
     10  C14       34.9120   29.3410   21.9140 C.ar  322  IX1322      0.2007
     11  C15       34.6780   30.1580   20.6990 C.ar  322  IX1322      0.0751
     12  C16       36.2570   28.9450   22.5420 C.2   322  IX1322      0.4082
     13  O1        37.2090   29.9170   22.5840 O.co2 322  IX1322     -0.2387
     14  O2        36.4310   27.8340   22.9870 O.co2 322  IX1322     -0.2387
     15  C8        28.6530   30.9850   18.9290 C.2   322  IX1322     -0.0009
     16  C32       24.8110   29.9690   21.4260 C.ar  322  IX1322      0.1484
     17  C33       23.9450   31.1220   21.6180 C.ar  322  IX1322      0.0373
     18  C34       22.6210   31.0010   22.1190 C.ar  322  IX1322      0.0064
     19  C35       22.1150   29.7320   22.4470 C.ar  322  IX1322      0.0425
     20  C36       22.9150   28.5720   22.2810 C.ar  322  IX1322      0.2049
     21  C37       24.2620   28.6600   21.7740 C.ar  322  IX1322      0.1482
     22  C38       25.0340   27.3800   21.6320 C.2   322  IX1322      0.3475
     23  O11       25.1260   26.6010   22.5580 O.2   322  IX1322     -0.2447
     24  O13       25.6070   27.1460   20.4280 O.3   322  IX1322     -0.4412
     25  C39       26.3620   25.9160   20.2230 C.3   322  IX1322      0.2560
     26  O14       22.3080   27.3820   22.6360 O.3   322  IX1322     -0.2862
     27  O3        26.1650   30.0910   20.9130 O.3   322  IX1322     -0.4703
     28  C40       26.6490   31.4130   20.5830 C.3   322  IX1322      0.2318
     29  C41       28.0620   31.4810   20.0510 C.2   322  IX1322      0.0207
     30  C9        35.8380   30.7220   19.8930 C.3   322  IX1322      0.2135
     31  O4        35.8160   30.2930   18.5400 O.3   322  IX1322     -0.2150
@<TRIPOS>BOND
     1     6     5   ar
     2     6     1   ar
     3     5     4   ar
     4    31    30    1
     5     1     2   ar
     6     4    15    1
     7     4     3   ar
     8    15    29    2
     9     2     3   ar
    10     2     7    1
    11    30    11    1
    12    29    28    1
    13    25    24    1
    14    24    22    1
    15    28    27    1
    16     7    11   ar
    17     7     8   ar
    18    11    10   ar
    19    27    16    1
    20    16    17   ar
    21    16    21   ar
    22     8     9   ar
    23    17    18   ar
    24    22    21    1
    25    22    23    2
    26    21    20   ar
    27    10     9   ar
    28    10    12    1
    29    18    19   ar
    30    20    19   ar
    31    20    26    1
    32    12    13   ar
    33    12    14   ar
