@<TRIPOS>MOLECULE
1xbt_TTP_A_1.pdb
 29 30 0 0 0
SMALL
GASTEIGER

@<TRIPOS>ATOM
      1  PA       -16.9440   14.1480   44.0090 P.3   1195  TTP1195     0.2189
      2  O1A      -16.2610   13.2870   42.9710 O.2   1195  TTP1195    -0.5170
      3  O2A      -16.1320   15.0390   44.9030 O.3   1195  TTP1195    -0.4371
      4  O3A      -18.1340   15.0130   43.3320 O.3   1195  TTP1195    -0.2700
      5  PB       -18.1600   15.4850   41.7890 P.3   1195  TTP1195     0.2277
      6  O1B      -18.0670   14.3070   40.8370 O.2   1195  TTP1195    -0.5168
      7  O2B      -19.2010   16.5610   41.6020 O.3   1195  TTP1195    -0.4368
      8  O3B      -16.7460   16.2360   41.8200 O.3   1195  TTP1195    -0.2258
      9  PG       -15.6900   16.2970   40.6250 P.3   1195  TTP1195     0.5373
     10  O1G      -15.1390   14.9100   40.4490 O.3   1195  TTP1195    -0.1143
     11  O2G      -16.5050   16.8270   39.4780 O.2   1195  TTP1195    -0.2221
     12  O3G      -14.7750   17.3170   41.2550 O.3   1195  TTP1195    -0.1143
     13  O5'      -17.8080   13.1680   44.9550 O.3   1195  TTP1195    -0.3112
     14  C5'      -18.6470   13.7100   45.9690 C.3   1195  TTP1195     0.1812
     15  C4'      -19.4170   12.6070   46.6870 C.3   1195  TTP1195     0.1773
     16  O4'      -19.3610   12.8800   48.0890 O.3   1195  TTP1195    -0.3339
     17  C3'      -20.8870   12.6470   46.2970 C.3   1195  TTP1195     0.1857
     18  O3'      -21.4230   11.3290   46.1980 O.3   1195  TTP1195    -0.2203
     19  C2'      -21.5920   13.3590   47.4310 C.3   1195  TTP1195     0.0874
     20  C1'      -20.6840   13.0370   48.6110 C.3   1195  TTP1195     0.2090
     21  N1       -20.6940   14.0400   49.6810 N.am  1195  TTP1195    -0.1794
     22  C2       -20.9990   13.6120   50.9360 C.1   1195  TTP1195     0.2844
     23  O2       -21.2690   12.4060   51.1440 O.2   1195  TTP1195    -0.1918
     24  N3       -21.0120   14.4520   51.9780 N.2   1195  TTP1195    -0.2455
     25  C4       -20.7250   15.7470   51.8360 C.1   1195  TTP1195     0.2134
     26  O4       -20.7640   16.5030   52.8390 O.2   1195  TTP1195    -0.2088
     27  C5       -20.3850   16.2480   50.4740 C.2   1195  TTP1195     0.0891
     28  C5M      -20.0500   17.6930   50.2290 C.3   1195  TTP1195     0.0462
     29  C6       -20.3890   15.3290   49.4290 C.2   1195  TTP1195     0.0877
@<TRIPOS>BOND
     1    11     9    2
     2    10     9    1
     3     9    12    1
     4     9     8    1
     5     6     5    2
     6     7     5    1
     7     5     8    1
     8     5     4    1
     9     2     1    2
    10     4     1    1
    11     1     3    1
    12     1    13    1
    13    13    14    1
    14    14    15    1
    15    18    17    1
    16    17    15    1
    17    17    19    1
    18    15    16    1
    19    19    20    1
    20    16    20    1
    21    20    21    1
    22    29    21    1
    23    29    27    2
    24    21    22   am
    25    28    27    1
    26    27    25    1
    27    22    23    2
    28    22    24    2
    29    25    24    2
    30    25    26    2
