@<TRIPOS>MOLECULE
1xbu_IOY_A_1.pdb
 13 13 0 0 0
SMALL
GASTEIGER

@<TRIPOS>ATOM
      1  CG        18.2230  -15.7230  -58.2960 C.ar  913  IOY913     -0.0201
      2  CD1       17.6080  -16.4550  -59.2880 C.ar  913  IOY913     -0.0038
      3  CE1       17.6090  -17.8030  -59.4270 C.ar  913  IOY913      0.0055
      4  CZ        18.2960  -18.4980  -58.4620 C.ar  913  IOY913      0.0300
      5  I1        18.3630  -20.5360  -58.5710 I     913  IOY913     -0.0425
      6  CE2       18.9380  -17.8250  -57.4440 C.ar  913  IOY913      0.0055
      7  CD2       18.9150  -16.4550  -57.3480 C.ar  913  IOY913     -0.0038
      8  CB        18.1780  -14.2140  -58.1690 C.3   913  IOY913      0.0569
      9  N         16.9500  -12.3460  -57.0050 N.3   913  IOY913     -0.1205
     10  C         15.7430  -13.7950  -58.3800 C.2   913  IOY913      0.3822
     11  OXT       14.6760  -13.3080  -58.0360 O.co2 913  IOY913     -0.2440
     12  O         15.9810  -14.2480  -59.5050 O.co2 913  IOY913     -0.2440
     13  CA        16.9320  -13.7320  -57.4220 C.3   913  IOY913      0.1986
@<TRIPOS>BOND
     1    12    10   ar
     2     3     2   ar
     3     3     4   ar
     4     2     1   ar
     5     5     4    1
     6     4     6   ar
     7    10    11   ar
     8    10    13    1
     9     1     8    1
    10     1     7   ar
    11     8    13    1
    12     6     7   ar
    13    13     9    1
