@<TRIPOS>MOLECULE
1xbv_5RP_A_1.pdb
 13 12 0 0 0
SMALL
GASTEIGER

@<TRIPOS>ATOM
      1  C2        61.3470   20.8220   23.4620 C.3   501  5RP501      0.0751
      2  C3        62.2450   19.7740   22.9160 C.2   501  5RP501      0.1838
      3  C5        63.7140   20.1520   22.6370 C.3   501  5RP501      0.2412
      4  O13       64.1130   19.2180   21.6310 O.3   501  5RP501     -0.2123
      5  C6        64.4830   19.9810   23.9600 C.3   501  5RP501      0.2193
      6  O14       63.7550   20.5600   25.0590 O.3   501  5RP501     -0.2172
      7  C7        65.8550   20.6220   23.9800 C.3   501  5RP501      0.1896
      8  O8        65.7690   21.9340   23.4560 O.3   501  5RP501     -0.2674
      9  P9        65.9920   23.3060   24.2160 P.3   501  5RP501      0.5327
     10  O12       66.1410   24.2880   23.0450 O.2   501  5RP501     -0.2224
     11  O11       67.2320   23.0950   25.0910 O.3   501  5RP501     -0.1145
     12  O10       64.6940   23.5610   24.9750 O.3   501  5RP501     -0.1145
     13  O4        61.7640   18.6250   22.7020 O.2   501  5RP501     -0.2933
@<TRIPOS>BOND
     1     4     3    1
     2     3     2    1
     3     3     5    1
     4    13     2    2
     5     2     1    1
     6    10     9    2
     7     8     7    1
     8     8     9    1
     9     5     7    1
    10     5     6    1
    11     9    12    1
    12     9    11    1
