@<TRIPOS>MOLECULE
1xbx_5RP_B_1.pdb
 13 12 0 0 0
SMALL
GASTEIGER

@<TRIPOS>ATOM
      1  C2        44.2760    7.9290   14.8990 C.3   502  5RP502      0.0751
      2  C3        43.9130    8.8910   13.9100 C.2   502  5RP502      0.1838
      3  C5        43.1510    8.4130   12.7070 C.3   502  5RP502      0.2412
      4  O13       43.3880    9.2780   11.5940 O.3   502  5RP502     -0.2123
      5  C6        41.6640    8.3450   13.0390 C.3   502  5RP502      0.2193
      6  O14       41.3780    7.4100   14.1130 O.3   502  5RP502     -0.2172
      7  C7        40.8610    7.9960   11.7930 C.3   502  5RP502      0.1896
      8  O8        41.3180    6.7800   11.1990 O.3   502  5RP502     -0.2674
      9  P9        40.5440    5.3390   11.4720 P.3   502  5RP502      0.5327
     10  O12       41.3620    4.4070   10.5990 O.2   502  5RP502     -0.2224
     11  O11       39.0790    5.5140   11.0500 O.3   502  5RP502     -0.1145
     12  O10       40.7020    5.0820   12.9620 O.3   502  5RP502     -0.1145
     13  O4        44.2100   10.0840   14.1110 O.2   502  5RP502     -0.2933
@<TRIPOS>BOND
     1    10     9    2
     2    11     9    1
     3     8     9    1
     4     8     7    1
     5     9    12    1
     6     4     3    1
     7     7     5    1
     8     3     5    1
     9     3     2    1
    10     5     6    1
    11     2    13    2
    12     2     1    1
