@<TRIPOS>MOLECULE
1xbx_HMS_A_1.pdb
 12 11 0 0 0
SMALL
GASTEIGER

@<TRIPOS>ATOM
      1  O1        65.3170   24.2810   22.9420 O.2   501  HMS501     -0.2224
      2  P1        65.1650   23.2700   24.0500 P.3   501  HMS501      0.5327
      3  O2        66.3650   23.0060   24.9370 O.3   501  HMS501     -0.1145
      4  O3        63.9010   23.5480   24.8020 O.3   501  HMS501     -0.1145
      5  O4        64.8780   21.8870   23.2420 O.3   501  HMS501     -0.2674
      6  C1        64.7160   20.6280   23.8500 C.3   501  HMS501      0.1891
      7  C2        63.2370   20.2960   23.9640 C.3   501  HMS501      0.2120
      8  O5        62.5480   21.1870   24.8500 O.3   501  HMS501     -0.2177
      9  C3        62.6050   20.3440   22.5860 C.3   501  HMS501      0.1847
     10  O6        63.2790   19.4590   21.6880 O.3   501  HMS501     -0.2203
     11  C4        61.1650   19.8750   22.6470 C.3   501  HMS501      0.0356
     12  C5        60.1080   20.7620   22.9400 C.3   501  HMS501      0.0028
@<TRIPOS>BOND
     1    10     9    1
     2     9    11    1
     3     9     7    1
     4    11    12    1
     5     1     2    2
     6     5     6    1
     7     5     2    1
     8     6     7    1
     9     7     8    1
    10     2     4    1
    11     2     3    1
