@<TRIPOS>MOLECULE
1xby_5RP_A_1.pdb
 13 12 0 0 0
SMALL
GASTEIGER

@<TRIPOS>ATOM
      1  C2        60.2910   20.7310   23.2370 C.3   501  5RP501      0.0751
      2  C3        61.1880   19.6820   22.8180 C.2   501  5RP501      0.1838
      3  C5        62.6210   20.1250   22.6550 C.3   501  5RP501      0.2412
      4  O13       63.2130   19.2720   21.6690 O.3   501  5RP501     -0.2123
      5  C6        63.3700   20.0840   23.9730 C.3   501  5RP501      0.2193
      6  O14       62.7000   20.8410   25.0110 O.3   501  5RP501     -0.2172
      7  C7        64.7990   20.5610   23.7850 C.3   501  5RP501      0.1896
      8  O8        64.8010   21.8710   23.2270 O.3   501  5RP501     -0.2674
      9  P9        64.9920   23.2470   24.0460 P.3   501  5RP501      0.5327
     10  O12       65.1010   24.2100   22.9200 O.2   501  5RP501     -0.2224
     11  O11       66.2120   23.0540   24.9250 O.3   501  5RP501     -0.1145
     12  O10       63.6990   23.3610   24.8070 O.3   501  5RP501     -0.1145
     13  O4        60.8250   18.5260   22.5380 O.2   501  5RP501     -0.2933
@<TRIPOS>BOND
     1     4     3    1
     2    13     2    2
     3     3     2    1
     4     3     5    1
     5     2     1    1
     6    10     9    2
     7     8     7    1
     8     8     9    1
     9     7     5    1
    10     5     6    1
    11     9    12    1
    12     9    11    1
