@<TRIPOS>MOLECULE
1xbz_LX1_A_1.pdb
 13 12 0 0 0
SMALL
GASTEIGER

@<TRIPOS>ATOM
      1  O8        64.7270   23.6260   25.0360 O.3   501  LX1501     -0.1145
      2  P         65.8950   23.2410   24.1660 P.3   501  LX1501      0.5327
      3  O6        66.1350   24.2160   23.0430 O.2   501  LX1501     -0.2224
      4  O7        67.1110   22.9420   24.9890 O.3   501  LX1501     -0.1145
      5  O5        65.4710   21.8670   23.4060 O.3   501  LX1501     -0.2674
      6  C5        65.3860   20.5980   24.0490 C.3   501  LX1501      0.1892
      7  C4        63.8960   20.2960   24.1930 C.3   501  LX1501      0.2146
      8  O4        63.8190   19.0610   24.8830 O.3   501  LX1501     -0.2176
      9  C3        63.1430   20.1940   22.8760 C.3   501  LX1501      0.2147
     10  O3        63.7950   19.3540   21.9110 O.3   501  LX1501     -0.2176
     11  C2        61.8350   19.5810   23.3830 C.3   501  LX1501      0.1849
     12  O2        61.3930   18.4740   22.6550 O.3   501  LX1501     -0.2203
     13  C1        60.7600   20.5530   23.6400 C.3   501  LX1501      0.0383
@<TRIPOS>BOND
     1    10     9    1
     2    12    11    1
     3     9    11    1
     4     9     7    1
     5     3     2    2
     6    11    13    1
     7     5     6    1
     8     5     2    1
     9     6     7    1
    10     2     4    1
    11     2     1    1
    12     7     8    1
