@<TRIPOS>MOLECULE
1xc1_ZRC_A_1.pdb
 19 21 0 0 0
SMALL
GASTEIGER

@<TRIPOS>ATOM
      1 ZR1        13.9370   50.9810  -14.0520 Zr    400  ZRC400      0.0000
      2  OP1       13.1040   52.7450  -15.0930 O.3   400  ZRC400      0.0000
      3  O1A       15.9300   51.2660  -14.8590 O.3   400  ZRC400      0.0000
      4  O1B       14.7750   52.5530  -12.9000 O.3   400  ZRC400      0.0000
      5 ZR2        11.8690   49.4730  -16.5010 Zr    400  ZRC400      0.0000
      6  OP2       11.7630   51.7180  -16.8450 O.3   400  ZRC400      0.0000
      7  O2A        9.9570   49.6100  -17.6820 O.3   400  ZRC400      0.0000
      8  O2B       13.4460   49.5300  -18.1390 O.3   400  ZRC400      0.0000
      9  OB2       12.0800   47.3770  -16.4550 O.3   400  ZRC400      0.0000
     10 ZR3        10.5280   50.7720  -13.5580 Zr    400  ZRC400      0.0000
     11  OP3       10.6760   52.5650  -14.8380 O.3   400  ZRC400      0.0000
     12  O3A       10.2540   52.3280  -11.8690 O.3   400  ZRC400      0.0000
     13  O3B        8.4030   50.3370  -13.5700 O.3   400  ZRC400      0.0000
     14  O12       14.1160   49.7100  -16.0730 O.3   400  ZRC400      0.0000
     15  O23        9.8970   49.3570  -15.3580 O.3   400  ZRC400      0.0000
     16  O31       12.4080   51.5420  -12.3960 O.3   400  ZRC400      0.0000
     17  O00       12.2610   49.7900  -14.3890 O.3   400  ZRC400      0.0000
     18  P         11.7920   52.7880  -15.8070 P.3   400  ZRC400      0.0000
     19  OP4       11.6200   54.1110  -16.4450 O.2   400  ZRC400      0.0000
@<TRIPOS>BOND
     1     8     5    1
     2     7     5    1
     3     6     5    1
     4     6    18    1
     5     5     9    1
     6     5    15    1
     7    19    18    2
     8    14     1    1
     9    18     2    1
    10    18    11    1
    11    15    10    1
    12     2     1    1
    13     3     1    1
    14    11    10    1
    15    17     1    1
    16    17    10    1
    17     1     4    1
    18     1    16    1
    19    13    10    1
    20    10    16    1
    21    10    12    1
