@<TRIPOS>MOLECULE
1xc7_PLP_A_1.pdb
 15 15 0 0 0
SMALL
GASTEIGER

@<TRIPOS>ATOM
      1  N1        24.7810   25.7300   30.3290 N.ar  999  PLP999     -0.2452
      2  C2        23.6620   25.0180   30.5960 C.ar  999  PLP999      0.0978
      3  C2A       22.7730   25.4620   31.7330 C.3   999  PLP999      0.0555
      4  C3        23.4040   23.8670   29.8890 C.ar  999  PLP999      0.2049
      5  O3        22.2360   23.1460   30.1510 O.3   999  PLP999     -0.2857
      6  C4        24.2960   23.4560   28.9170 C.ar  999  PLP999      0.0182
      7  C4A       23.9930   22.1800   28.0740 C.3   999  PLP999      0.0342
      8  C5        25.4370   24.2160   28.6690 C.ar  999  PLP999      0.0261
      9  C6        25.6530   25.3420   29.3820 C.ar  999  PLP999      0.0965
     10  C5A       26.4010   23.9240   27.4990 C.3   999  PLP999      0.1815
     11  O4P       25.9890   24.6250   26.3240 O.3   999  PLP999     -0.2653
     12  P         27.0060   24.8560   25.0940 P.3   999  PLP999      0.5329
     13  O1P       26.2410   25.6210   24.1070 O.2   999  PLP999     -0.2224
     14  O2P       28.1430   25.7540   25.6920 O.3   999  PLP999     -0.1145
     15  O3P       27.6130   23.5640   24.6900 O.3   999  PLP999     -0.1145
@<TRIPOS>BOND
     1    13    12    2
     2    15    12    1
     3    12    14    1
     4    12    11    1
     5    11    10    1
     6    10     8    1
     7     7     6    1
     8     8     6   ar
     9     8     9   ar
    10     6     4   ar
    11     9     1   ar
    12     4     5    1
    13     4     2   ar
    14     1     2   ar
    15     2     3    1
