@<TRIPOS>MOLECULE
1xc7_GL6_A_1.pdb
 18 18 0 0 0
SMALL
GASTEIGER

@<TRIPOS>ATOM
      1  P         35.5980   24.2550   29.6110 P.3   998  GL6998      0.4289
      2  O11       34.2820   24.5730   30.1410 O.2   998  GL6998     -0.2382
      3  O13       36.4630   25.4750   29.1850 O.3   998  GL6998     -0.2792
      4  O12       36.5020   23.5310   30.6860 O.3   998  GL6998     -0.2792
      5  O2        34.4400   24.5630   25.9640 O.3   998  GL6998     -0.2161
      6  O3        33.0360   22.7260   24.0930 O.3   998  GL6998     -0.2174
      7  O4        31.4830   20.7690   25.3230 O.3   998  GL6998     -0.2176
      8  O5        33.9540   21.5180   27.9940 O.3   998  GL6998     -0.3341
      9  O6        33.3720   18.7700   27.2620 O.3   998  GL6998     -0.2176
     10  N1        35.5000   23.3380   28.2520 N.3   998  GL6998     -0.0913
     11  C1        34.2210   22.9320   27.6990 C.3   998  GL6998      0.2326
     12  C15       37.9190   23.6590   30.7710 C.3   998  GL6998      0.1852
     13  C16       35.8870   26.4860   28.3390 C.3   998  GL6998      0.1852
     14  C2        34.2470   23.1410   26.1620 C.3   998  GL6998      0.2290
     15  C3        32.9550   22.6600   25.5370 C.3   998  GL6998      0.2187
     16  C4        32.7220   21.2050   25.9180 C.3   998  GL6998      0.2143
     17  C5        32.6650   21.0580   27.4570 C.3   998  GL6998      0.1825
     18  C6        32.4420   19.6410   27.9310 C.3   998  GL6998      0.2142
@<TRIPOS>BOND
     1     6    15    1
     2     7    16    1
     3    15    16    1
     4    15    14    1
     5    16    17    1
     6     5    14    1
     7    14    11    1
     8     9    18    1
     9    17    18    1
    10    17     8    1
    11    11     8    1
    12    11    10    1
    13    10     1    1
    14    13     3    1
    15     3     1    1
    16     1     2    2
    17     1     4    1
    18     4    12    1
