@<TRIPOS>MOLECULE
1xc9_BAP_C_1.pdb
 23 27 0 0 0
SMALL
GASTEIGER

@<TRIPOS>ATOM
      1  C1        10.5620   44.1500   36.4500 C.ar  444  BAP444     -0.0000
      2  C2        10.3410   43.9020   37.8610 C.ar  444  BAP444      0.0000
      3  C3        10.7600   42.6550   38.4740 C.ar  444  BAP444     -0.0000
      4  C3A       11.4120   41.6480   37.6620 C.ar  444  BAP444     -0.0000
      5  C4        11.8360   40.4120   38.2440 C.ar  444  BAP444     -0.0000
      6  C5        12.4800   39.4200   37.4660 C.ar  444  BAP444     -0.0003
      7  C5A       12.7460   39.6090   36.0310 C.ar  444  BAP444     -0.0041
      8  C6        13.4220   38.5730   35.2140 C.ar  444  BAP444     -0.0211
      9  C7        13.7030   38.8120   33.7250 C.ar  444  BAP444      0.0064
     10  C8        13.2110   40.0950   33.1710 C.ar  444  BAP444     -0.0021
     11  C8A       12.5450   41.0970   33.9790 C.ar  444  BAP444     -0.0003
     12  C9        12.1040   42.3560   33.3770 C.ar  444  BAP444     -0.0000
     13  C10       11.4450   43.3760   34.1860 C.ar  444  BAP444     -0.0000
     14  C1A       11.2130   43.1500   35.6160 C.ar  444  BAP444     -0.0000
     15  C3B       11.6460   41.8870   36.2260 C.ar  444  BAP444     -0.0000
     16  C5B       12.3160   40.8600   35.4050 C.ar  444  BAP444     -0.0003
     17  C1'       13.7340   37.5350   32.8710 C.3   444  BAP444      0.2066
     18  O1'       14.5900   38.0300   31.8310 O.3   444  BAP444     -0.2155
     19  C2'       14.2440   36.2460   33.5650 C.3   444  BAP444      0.2167
     20  O2'       14.1750   35.1600   32.6340 O.3   444  BAP444     -0.2173
     21  C3'       13.3470   35.9540   34.7660 C.3   444  BAP444      0.1894
     22  O3'       11.9770   35.8010   34.3020 O.3   444  BAP444     -0.2200
     23  C4'       13.4220   37.1020   35.7950 C.3   444  BAP444      0.0617
@<TRIPOS>BOND
     1    18    17    1
     2    20    19    1
     3    17    19    1
     4    17     9    1
     5    10     9   ar
     6    10    11   ar
     7    12    11   ar
     8    12    13   ar
     9    19    21    1
    10     9     8   ar
    11    11    16   ar
    12    13    14   ar
    13    22    21    1
    14    21    23    1
    15     8    23    1
    16     8     7   ar
    17    16     7   ar
    18    16    15   ar
    19    14    15   ar
    20    14     1   ar
    21     7     6   ar
    22    15     4   ar
    23     1     2   ar
    24     6     5   ar
    25     4     5   ar
    26     4     3   ar
    27     2     3   ar
