@<TRIPOS>MOLECULE
1xcb_NAD_A_1.pdb
 44 48 0 0 0
SMALL
GASTEIGER

@<TRIPOS>ATOM
      1  PA        24.2860  108.0310   49.9330 P.3   213  NAD213      0.2189
      2  O1A       25.0620  109.1510   49.3190 O.2   213  NAD213     -0.5170
      3  O2A       24.0470  107.9410   51.4120 O.3   213  NAD213     -0.4371
      4  O5B       22.8940  108.0120   49.1580 O.3   213  NAD213     -0.3112
      5  C5B       21.7600  107.1870   49.5530 C.3   213  NAD213      0.1813
      6  C4B       20.5220  107.8540   49.0050 C.3   213  NAD213      0.1821
      7  O4B       19.4300  106.9810   49.3970 O.3   213  NAD213     -0.3135
      8  C3B       20.1110  109.2460   49.6220 C.3   213  NAD213      0.2184
      9  O3B       20.0300  110.2230   48.5560 O.3   213  NAD213     -0.2174
     10  C2B       18.7820  109.0140   50.3230 C.3   213  NAD213      0.2570
     11  O2B       17.8980  110.0750   50.4000 O.3   213  NAD213     -0.2130
     12  C1B       18.3100  107.8070   49.5330 C.3   213  NAD213      0.3186
     13  N9A       17.3770  106.9690   50.1970 N.pl3 213  NAD213     -0.1439
     14  C8A       17.3460  106.3740   51.4520 C.3   213  NAD213      0.3377
     15  N7A       16.2640  105.6350   51.6480 N.2   213  NAD213     -0.2095
     16  C5A       15.5320  105.7050   50.5240 C.2   213  NAD213      0.2526
     17  C6A       14.2550  105.1180   50.1260 C.2   213  NAD213      0.4393
     18  N6A       13.5700  104.3250   50.9160 N.pl3 213  NAD213      0.2180
     19  N1A       13.8370  105.4490   48.8500 N.2   213  NAD213      0.0021
     20  C2A       14.4910  106.2520   47.9910 C.3   213  NAD213      0.5254
     21  N3A       15.7140  106.8410   48.3170 N.2   213  NAD213     -0.0055
     22  C4A       16.1940  106.5440   49.6020 C.2   213  NAD213      0.3518
     23  O3        25.0710  106.6700   49.6860 O.3   213  NAD213     -0.2703
     24  PN        26.1610  106.1290   48.5770 P.3   213  NAD213      0.2189
     25  O1N       27.5210  105.7160   49.0030 O.3   213  NAD213     -0.4371
     26  O2N       26.1230  107.1130   47.4590 O.2   213  NAD213     -0.5170
     27  O5D       25.5430  104.6620   48.5770 O.3   213  NAD213     -0.3112
     28  C5D       24.1930  104.2470   48.3830 C.3   213  NAD213      0.1813
     29  C4D       24.3090  102.7730   48.1430 C.3   213  NAD213      0.1799
     30  O4D       25.6270  102.5320   47.5000 O.3   213  NAD213     -0.3327
     31  C3D       24.3490  101.7190   49.3650 C.3   213  NAD213      0.2158
     32  O3D       23.4110  100.6680   49.0530 O.3   213  NAD213     -0.2175
     33  C2D       25.7580  101.0930   49.3240 C.3   213  NAD213      0.2309
     34  O2D       25.8160   99.7690   49.8390 O.3   213  NAD213     -0.2158
     35  C1D       26.0700  101.1890   47.8000 C.3   213  NAD213      0.2261
     36  N1N       27.5430  100.9670   47.4940 N.pl3 213  NAD213     -0.2831
     37  C2N       27.7810   99.7220   46.7600 C.2   213  NAD213      0.0633
     38  C3N       28.8180   99.5230   45.9170 C.2   213  NAD213      0.0490
     39  C7N       28.9930   98.1870   45.1970 C.2   213  NAD213      0.2814
     40  O7N       30.0950   97.9350   44.6310 O.2   213  NAD213     -0.2670
     41  N7N       27.9700   97.3070   45.1910 N.am  213  NAD213     -0.0839
     42  C4N       29.8440  100.6290   45.6620 C.3   213  NAD213      0.0341
     43  C5N       29.1750  101.9860   45.8440 C.3   213  NAD213      0.0264
     44  C6N       28.2840  102.1260   46.9670 C.3   213  NAD213      0.0934
@<TRIPOS>BOND
     1    40    39    2
     2    41    39   am
     3    39    38    1
     4    42    43    1
     5    42    38    1
     6    43    44    1
     7    38    37    2
     8    37    36    1
     9    44    36    1
    10    26    24    2
    11    36    35    1
    12    30    35    1
    13    30    29    1
    14    35    33    1
    15    20    21    1
    16    20    19    1
    17    29    28    1
    18    29    31    1
    19    21    22    2
    20    28    27    1
    21     9     8    1
    22    27    24    1
    23    24    25    1
    24    24    23    1
    25    19    17    2
    26     6     7    1
    27     6     5    1
    28     6     8    1
    29    32    31    1
    30     4     5    1
    31     4     1    1
    32     2     1    2
    33    33    31    1
    34    33    34    1
    35     7    12    1
    36    12    13    1
    37    12    10    1
    38    22    13    1
    39    22    16    1
    40     8    10    1
    41    23     1    1
    42     1     3    1
    43    17    16    1
    44    17    18    1
    45    13    14    1
    46    10    11    1
    47    16    15    2
    48    14    15    1
