@<TRIPOS>MOLECULE
1xch_HEM_A_1.pdb
 43 50 0 0 0
SMALL
GASTEIGER

@<TRIPOS>ATOM
      1 FE         14.4140   29.3950    4.9960 Fe    154  HEM154      0.0000
      2  CHA       15.7520   32.5290    5.1850 C.2   154  HEM154      0.0000
      3  CHB       13.8590   29.4260    8.3220 C.2   154  HEM154      0.0000
      4  CHC       13.0800   26.3050    4.8090 C.2   154  HEM154      0.0000
      5  CHD       15.3270   29.2240    1.7240 C.2   154  HEM154      0.0000
      6  NA        14.7380   30.7250    6.4580 N.2   154  HEM154      0.0000
      7  C1A       15.2440   32.0200    6.3500 C.2   154  HEM154      0.0000
      8  C2A       15.1550   32.6600    7.6410 C.2   154  HEM154      0.0000
      9  C3A       14.6240   31.8110    8.4990 C.2   154  HEM154      0.0000
     10  C4A       14.4080   30.5560    7.7920 C.2   154  HEM154      0.0000
     11  CMA       14.2730   32.0180    9.9770 C.3   154  HEM154      0.0000
     12  CAA       15.5290   34.1550    7.8720 C.3   154  HEM154      0.0000
     13  CBA       14.3130   35.1090    8.0240 C.3   154  HEM154      0.0000
     14  CGA       13.4070   35.1010    6.7750 C.2   154  HEM154      0.0000
     15  O1A       13.9730   35.3740    5.6910 O.co2 154  HEM154      0.0000
     16  O2A       12.2040   34.7840    7.0080 O.co2 154  HEM154      0.0000
     17  NB        13.6510   28.1290    6.3260 N.ar  154  HEM154      0.0000
     18  C1B       13.4540   28.2800    7.6880 C.ar  154  HEM154      0.0000
     19  C2B       12.8220   27.1410    8.2850 C.ar  154  HEM154      0.0000
     20  C3B       12.5750   26.2960    7.2940 C.ar  154  HEM154      0.0000
     21  C4B       13.1510   26.8590    6.0860 C.ar  154  HEM154      0.0000
     22  CMB       12.3910   27.0400    9.7860 C.3   154  HEM154      0.0000
     23  CAB       11.9350   24.9070    7.3060 C.2   154  HEM154      0.0000
     24  CBB       12.3750   23.8490    7.9550 C.2   154  HEM154      0.0000
     25  NC        14.1990   28.0210    3.5270 N.2   154  HEM154      0.0000
     26  C1C       13.7240   26.7370    3.6590 C.2   154  HEM154      0.0000
     27  C2C       13.8780   26.0260    2.4160 C.2   154  HEM154      0.0000
     28  C3C       14.5560   26.8190    1.5790 C.2   154  HEM154      0.0000
     29  C4C       14.7640   28.0960    2.2730 C.2   154  HEM154      0.0000
     30  CMC       13.4450   24.5600    2.2300 C.3   154  HEM154      0.0000
     31  CAC       15.1050   26.6850    0.1370 C.2   154  HEM154      0.0000
     32  CBC       15.1820   25.5000   -0.4500 C.2   154  HEM154      0.0000
     33  ND        15.3280   30.6220    3.6930 N.ar  154  HEM154      0.0000
     34  C1D       15.6350   30.4210    2.3530 C.ar  154  HEM154      0.0000
     35  C2D       16.3000   31.5500    1.7820 C.ar  154  HEM154      0.0000
     36  C3D       16.4140   32.4650    2.7580 C.ar  154  HEM154      0.0000
     37  C4D       15.8040   31.9120    3.9360 C.ar  154  HEM154      0.0000
     38  CMD       16.7760   31.7110    0.3240 C.3   154  HEM154      0.0000
     39  CAD       17.1490   33.8310    2.7240 C.3   154  HEM154      0.0000
     40  CBD       18.6480   33.5530    3.0550 C.3   154  HEM154      0.0000
     41  CGD       19.5600   34.7440    3.0950 C.2   154  HEM154      0.0000
     42  O1D       20.0410   35.1600    2.0140 O.co2 154  HEM154      0.0000
     43  O2D       19.8770   35.2150    4.2020 O.co2 154  HEM154      0.0000
@<TRIPOS>BOND
     1    32    31    2
     2    31    28    1
     3    38    35    1
     4    28    29    1
     5    28    27    2
     6     5    29    1
     7     5    34    2
     8    35    34   ar
     9    35    36   ar
    10    42    41   ar
    11    30    27    1
    12    29    25    2
    13    34    33   ar
    14    27    26    1
    15    39    36    1
    16    39    40    1
    17    36    37   ar
    18    40    41    1
    19    41    43   ar
    20    25    26    1
    21    25     1    1
    22    26     4    2
    23    33    37   ar
    24    33     1    1
    25    37     2    2
    26     4    21    1
    27     1    17    1
    28     1     6    1
    29     2     7    1
    30    15    14   ar
    31    21    17   ar
    32    21    20   ar
    33    17    18   ar
    34     7     6    2
    35     7     8    1
    36     6    10    1
    37    14    16   ar
    38    14    13    1
    39    20    23    1
    40    20    19   ar
    41    23    24    2
    42     8    12    1
    43     8     9    2
    44    18    19   ar
    45    18     3    1
    46    10     3    2
    47    10     9    1
    48    12    13    1
    49    19    22    1
    50     9    11    1
