@<TRIPOS>MOLECULE
1xcm_GNP_A_1.pdb
 32 34 0 0 0
SMALL
GASTEIGER

@<TRIPOS>ATOM
      1  PG        12.9640    9.7410   38.8260 P.3   170  GNP170      0.4884
      2  O1G       13.6490    8.5880   38.1990 O.3   170  GNP170     -0.1240
      3  O2G       12.4990   10.7510   37.8850 O.2   170  GNP170     -0.2331
      4  O3G       13.9030   10.2610   39.9100 O.3   170  GNP170     -0.1240
      5  N3B       11.6600    9.1630   39.5830 N.3   170  GNP170     -0.0163
      6  PB        10.4070    9.9790   40.1990 P.3   170  GNP170      0.4669
      7  O1B       10.8030   10.5260   41.5290 O.3   170  GNP170     -0.1253
      8  O2B        9.9240   10.9240   39.1650 O.2   170  GNP170     -0.2351
      9  O3A        9.2820    8.9090   40.4540 O.3   170  GNP170     -0.2360
     10  PA         8.1700    8.3340   39.4890 P.3   170  GNP170      0.2220
     11  O1A        6.9370    9.1310   39.3530 O.3   170  GNP170     -0.4370
     12  O2A        8.8160    7.9330   38.2380 O.2   170  GNP170     -0.5170
     13  O5'        7.6590    7.0310   40.1980 O.3   170  GNP170     -0.3111
     14  C5'        8.5850    6.0100   40.5420 C.3   170  GNP170      0.1813
     15  C4'        7.8660    4.6850   40.7700 C.3   170  GNP170      0.1799
     16  O4'        7.1100    4.7890   42.0010 O.3   170  GNP170     -0.3326
     17  C3'        6.8540    4.3410   39.6870 C.3   170  GNP170      0.2158
     18  O3'        6.7090    2.9390   39.5850 O.3   170  GNP170     -0.2175
     19  C2'        5.5820    4.9910   40.2140 C.3   170  GNP170      0.2310
     20  O2'        4.3950    4.3840   39.7400 O.3   170  GNP170     -0.2158
     21  C1'        5.7340    4.7010   41.7110 C.3   170  GNP170      0.2293
     22  N9         4.9980    5.6130   42.5670 N.pl3 170  GNP170     -0.2354
     23  C8         5.0060    6.9730   42.5230 C.3   170  GNP170      0.2246
     24  N7         4.2300    7.5150   43.4100 N.2   170  GNP170     -0.2322
     25  C5         3.6860    6.4520   44.0810 C.2   170  GNP170      0.2182
     26  C6         2.7970    6.4370   45.1880 C.1   170  GNP170      0.2372
     27  O6         2.2930    7.4200   45.7350 O.2   170  GNP170     -0.2069
     28  N1         2.4690    5.1380   45.5880 N.2   170  GNP170     -0.2485
     29  C2         2.9920    4.0030   44.9990 C.1   170  GNP170      0.2531
     30  N2         2.5800    2.8510   45.5210 N.pl3 170  GNP170     -0.0226
     31  N3         3.8340    3.9970   43.9740 N.2   170  GNP170     -0.3074
     32  C4         4.1540    5.2650   43.5880 C.2   170  GNP170      0.2300
@<TRIPOS>BOND
     1     3     1    2
     2     2     1    1
     3    12    10    2
     4     1     5    1
     5     1     4    1
     6     8     6    2
     7    11    10    1
     8    10    13    1
     9    10     9    1
    10     5     6    1
    11    18    17    1
    12    17    19    1
    13    17    15    1
    14    20    19    1
    15    13    14    1
    16     6     9    1
    17     6     7    1
    18    19    21    1
    19    14    15    1
    20    15    16    1
    21    21    16    1
    22    21    22    1
    23    23    22    1
    24    23    24    1
    25    22    32    1
    26    24    25    2
    27    32    31    2
    28    32    25    1
    29    31    29    2
    30    25    26    1
    31    29    30    1
    32    29    28    2
    33    26    28    2
    34    26    27    2
