@<TRIPOS>MOLECULE
1xcp_ADP_A_1.pdb
 27 29 0 0 0
SMALL
GASTEIGER

@<TRIPOS>ATOM
      1  PB        36.3860    3.4280   -2.1480 P.3   1291  ADP1291     0.5373
      2  O1B       35.2590    3.1890   -1.2110 O.3   1291  ADP1291    -0.1143
      3  O2B       37.5820    4.0840   -1.5650 O.3   1291  ADP1291    -0.1143
      4  O3B       35.8260    4.8180   -3.0540 O.2   1291  ADP1291    -0.2221
      5  PA        36.3240    2.1980   -4.5680 P.3   1291  ADP1291     0.2231
      6  O1A       37.2750    2.8350   -5.5120 O.2   1291  ADP1291    -0.5169
      7  O2A       34.9120    2.3860   -4.9110 O.3   1291  ADP1291    -0.4370
      8  O3A       36.6630    2.3190   -3.1170 O.3   1291  ADP1291    -0.2261
      9  O5'       36.5120    0.6390   -4.8980 O.3   1291  ADP1291    -0.3111
     10  C5'       37.7940   -0.0110   -4.8470 C.3   1291  ADP1291     0.1813
     11  C4'       37.7740   -1.4170   -5.4640 C.3   1291  ADP1291     0.1821
     12  O4'       36.8050   -2.2560   -4.8380 O.3   1291  ADP1291    -0.3135
     13  C3'       37.2620   -1.3810   -6.9190 C.3   1291  ADP1291     0.2184
     14  O3'       38.1500   -0.7420   -7.8470 O.3   1291  ADP1291    -0.2174
     15  C2'       37.2860   -2.8350   -7.1570 C.3   1291  ADP1291     0.2570
     16  O2'       38.6310   -3.3290   -7.0420 O.3   1291  ADP1291    -0.2130
     17  C1'       36.4160   -3.1590   -5.9160 C.3   1291  ADP1291     0.3186
     18  N9        34.9390   -3.0460   -6.2150 N.pl3 1291  ADP1291    -0.1439
     19  C8        34.0280   -2.0710   -5.8230 C.3   1291  ADP1291     0.3377
     20  N7        32.7700   -2.4060   -5.9780 N.2   1291  ADP1291    -0.2095
     21  C5        32.8440   -3.6920   -6.5060 C.2   1291  ADP1291     0.2526
     22  C6        31.8620   -4.5950   -6.8890 C.2   1291  ADP1291     0.4393
     23  N6        30.5750   -4.2930   -6.7760 N.pl3 1291  ADP1291     0.2180
     24  N1        32.2590   -5.7790   -7.3820 N.2   1291  ADP1291     0.0021
     25  C2        33.5500   -6.0390   -7.4840 C.3   1291  ADP1291     0.5254
     26  N3        34.5750   -5.2810   -7.1550 N.2   1291  ADP1291    -0.0055
     27  C4        34.1440   -4.0940   -6.6600 C.2   1291  ADP1291     0.3518
@<TRIPOS>BOND
     1    14    13    1
     2    25    24    1
     3    25    26    1
     4    24    22    2
     5    15    16    1
     6    15    13    1
     7    15    17    1
     8    26    27    2
     9    13    11    1
    10    22    23    1
    11    22    21    1
    12    27    21    1
    13    27    18    1
    14    21    20    2
    15    18    17    1
    16    18    19    1
    17    20    19    1
    18    17    12    1
    19     6     5    2
    20    11    10    1
    21    11    12    1
    22     7     5    1
    23     9    10    1
    24     9     5    1
    25     5     8    1
    26     8     1    1
    27     4     1    2
    28     1     3    1
    29     1     2    1
