@<TRIPOS>MOLECULE
1xcw_3SA_A_1.pdb
 33 35 0 0 0
SMALL
GASTEIGER

@<TRIPOS>ATOM
      1  C1X        1.4730   15.3320   39.9130 C.3   501  3SA501      0.3023
      2  C2X        1.7210   14.4970   41.1910 C.3   501  3SA501      0.2433
      3  C3X        2.8360   15.1430   42.0330 C.3   501  3SA501      0.2168
      4  C4X        4.1140   15.2140   41.1730 C.3   501  3SA501      0.1804
      5  C5X        3.7950   16.0770   39.9070 C.3   501  3SA501      0.1804
      6  C6X        5.0270   16.1950   38.9830 C.3   501  3SA501      0.2141
      7  O1X        0.9490   16.6100   40.2190 O.3   501  3SA501     -0.1869
      8  O2X        0.5190   14.4040   41.9350 O.3   501  3SA501     -0.2148
      9  O3X        3.0660   14.3650   43.1890 O.3   501  3SA501     -0.2175
     10  O4X        5.1750   15.8080   41.9280 O.3   501  3SA501     -0.3257
     11  O5X        2.7040   15.4710   39.1690 O.3   501  3SA501     -0.3237
     12  O6X        4.8420   17.2350   38.0340 O.3   501  3SA501     -0.2176
     13  C1Y        6.3420   15.0080   42.0080 C.3   501  3SA501      0.2694
     14  C2Y        6.7620   14.7260   43.4680 C.3   501  3SA501      0.2394
     15  C3Y        7.2300   16.0250   44.1490 C.3   501  3SA501      0.2054
     16  C4Y        8.4230   16.5990   43.3410 C.3   501  3SA501      0.1333
     17  C5Y        7.9220   16.8680   41.8960 C.3   501  3SA501      0.1364
     18  C6Y        9.0540   17.4250   41.0370 C.3   501  3SA501      0.0337
     19  O2Y        5.6690   14.1490   44.1610 O.3   501  3SA501     -0.2149
     20  O3Y        7.6260   15.7400   45.4700 O.3   501  3SA501     -0.2186
     21  N4Y        8.9270   17.8810   43.9450 N.3   501  3SA501     -0.2087
     22  O5Y        7.4320   15.6380   41.3060 O.3   501  3SA501     -0.3295
     23  C1Z       10.0260   17.8230   44.9760 C.3   501  3SA501      0.1273
     24  C2Z       10.9020   19.1120   44.9420 C.3   501  3SA501      0.2049
     25  O2Z       10.0780   20.2350   45.0620 O.3   501  3SA501     -0.2184
     26  C3Z       11.7280   19.1690   43.6170 C.3   501  3SA501      0.2179
     27  O3Z       12.4970   20.3470   43.5560 O.3   501  3SA501     -0.2172
     28  C4Z       12.6850   17.9500   43.4750 C.3   501  3SA501      0.2053
     29  O4Z       12.9740   17.6990   42.1200 O.3   501  3SA501     -0.2157
     30  C5Z       12.1420   16.6480   44.1470 C.2   501  3SA501      0.0180
     31  C6Z       10.9440   16.5880   44.8180 C.2   501  3SA501     -0.0100
     32  C7Z       12.9880   15.3930   44.0730 C.3   501  3SA501      0.2066
     33  O7Z       13.9390   15.4400   45.1120 O.3   501  3SA501     -0.2155
@<TRIPOS>BOND
     1    12     6    1
     2     6     5    1
     3    11     5    1
     4    11     1    1
     5     5     4    1
     6     1     7    1
     7     1     2    1
     8    18    17    1
     9     4    10    1
    10     4     3    1
    11     2     8    1
    12     2     3    1
    13    22    17    1
    14    22    13    1
    15    17    16    1
    16    10    13    1
    17    13    14    1
    18     3     9    1
    19    29    28    1
    20    16    21    1
    21    16    15    1
    22    14    15    1
    23    14    19    1
    24    28    26    1
    25    28    30    1
    26    27    26    1
    27    26    24    1
    28    21    23    1
    29    32    30    1
    30    32    33    1
    31    30    31    2
    32    15    20    1
    33    31    23    1
    34    24    23    1
    35    24    25    1
