@<TRIPOS>MOLECULE
1xcx_IAB_A_1.pdb
 44 47 0 0 0
SMALL
GASTEIGER

@<TRIPOS>ATOM
      1  C1X        1.5200   15.1980   39.8630 C.3   501  IAB501      0.2695
      2  C2X        1.8220   14.4200   41.1780 C.3   501  IAB501      0.2404
      3  C3X        2.9270   15.0910   41.9910 C.3   501  IAB501      0.2167
      4  C4X        4.2060   15.1670   41.1430 C.3   501  IAB501      0.1804
      5  C5X        3.8660   16.0200   39.8440 C.3   501  IAB501      0.1803
      6  C6X        5.0860   16.1570   38.8840 C.3   501  IAB501      0.2141
      7  O1X        0.9020   16.4610   40.1910 O.3   501  IAB501     -0.3259
      8  O2X        0.6400   14.3220   41.9580 O.3   501  IAB501     -0.2149
      9  O3X        3.1540   14.3280   43.1650 O.3   501  IAB501     -0.2175
     10  O4X        5.2290   15.7900   41.9140 O.3   501  IAB501     -0.3257
     11  O5X        2.7730   15.3630   39.1140 O.3   501  IAB501     -0.3257
     12  O6X        5.6740   14.8990   38.6010 O.3   501  IAB501     -0.2176
     13  C1Y        6.4390   15.0700   41.9770 C.3   501  IAB501      0.2694
     14  C2Y        6.8620   14.7870   43.4430 C.3   501  IAB501      0.2394
     15  C3Y        7.3640   16.0640   44.1620 C.3   501  IAB501      0.2054
     16  C4Y        8.5220   16.7040   43.3180 C.3   501  IAB501      0.1333
     17  C5Y        7.9040   17.0800   41.9170 C.3   501  IAB501      0.1364
     18  C6Y        8.9460   17.7480   41.0090 C.3   501  IAB501      0.0337
     19  O2Y        5.7740   14.2330   44.1610 O.3   501  IAB501     -0.2149
     20  O3Y        7.8670   15.6900   45.4280 O.3   501  IAB501     -0.2186
     21  N4Y        9.0280   17.9340   43.9850 N.3   501  IAB501     -0.2087
     22  O5Y        7.4320   15.8490   41.2750 O.3   501  IAB501     -0.3295
     23  C1Z       10.2280   17.8720   44.9900 C.3   501  IAB501      0.1273
     24  C2Z       11.0610   19.1190   44.9730 C.3   501  IAB501      0.2049
     25  O2Z       10.2460   20.2360   45.1340 O.3   501  IAB501     -0.2184
     26  C3Z       11.8650   19.2020   43.6010 C.3   501  IAB501      0.2179
     27  O3Z       12.6250   20.3810   43.5390 O.3   501  IAB501     -0.2172
     28  C4Z       12.8620   17.9910   43.4300 C.3   501  IAB501      0.2053
     29  O4Z       13.2440   17.8010   42.1020 O.3   501  IAB501     -0.2157
     30  C5Z       12.3880   16.6470   44.1220 C.2   501  IAB501      0.0180
     31  C6Z       11.1990   16.6860   44.7970 C.2   501  IAB501     -0.0100
     32  C7Z       13.1870   15.4140   44.0640 C.3   501  IAB501      0.2066
     33  O7Z       14.0930   15.5740   45.1860 O.3   501  IAB501     -0.2155
     34  C1W       -2.6800   17.0490   37.0050 C.3   501  IAB501      0.3024
     35  C2W       -3.5380   16.1020   37.9040 C.3   501  IAB501      0.2434
     36  C3W       -3.3450   16.4650   39.4120 C.3   501  IAB501      0.2199
     37  C4W       -1.8530   16.3310   39.7530 C.3   501  IAB501      0.2143
     38  C5W       -1.0290   17.3510   38.8390 C.3   501  IAB501      0.1803
     39  C6W        0.5220   17.3020   39.0660 C.3   501  IAB501      0.1770
     40  O2W       -4.9150   16.2420   37.5730 O.3   501  IAB501     -0.2148
     41  O3W       -4.1200   15.5710   40.2090 O.3   501  IAB501     -0.2174
     42  O4W       -1.6480   16.6330   41.1360 O.3   501  IAB501     -0.2176
     43  O5W       -1.2820   17.0520   37.4340 O.3   501  IAB501     -0.3237
     44  O1W       -2.8230   16.5560   35.6800 O.3   501  IAB501     -0.1869
@<TRIPOS>BOND
     1    44    34    1
     2    34    43    1
     3    34    35    1
     4    43    38    1
     5    40    35    1
     6    35    36    1
     7    12     6    1
     8    38    39    1
     9    38    37    1
    10     6     5    1
    11    39     7    1
    12    11     5    1
    13    11     1    1
    14    36    37    1
    15    36    41    1
    16    37    42    1
    17     5     4    1
    18     1     7    1
    19     1     2    1
    20    18    17    1
    21     4    10    1
    22     4     3    1
    23     2     8    1
    24     2     3    1
    25    22    17    1
    26    22    13    1
    27    10    13    1
    28    17    16    1
    29    13    14    1
    30     3     9    1
    31    29    28    1
    32    16    21    1
    33    16    15    1
    34    28    26    1
    35    28    30    1
    36    14    19    1
    37    14    15    1
    38    27    26    1
    39    26    24    1
    40    21    23    1
    41    32    30    1
    42    32    33    1
    43    30    31    2
    44    15    20    1
    45    31    23    1
    46    24    23    1
    47    24    25    1
