@<TRIPOS>MOLECULE
1xd2_GDP_A_1.pdb
 28 30 0 0 0
SMALL
GASTEIGER

@<TRIPOS>ATOM
      1  PB        14.9750   53.2970   67.8160 P.3   169  GDP169      0.5373
      2  O1B       16.1550   54.0820   68.3070 O.3   169  GDP169     -0.1143
      3  O2B       13.8850   53.1500   68.9100 O.3   169  GDP169     -0.1143
      4  O3B       15.3420   51.9710   67.2200 O.2   169  GDP169     -0.2221
      5  O3A       14.2380   54.1680   66.6900 O.3   169  GDP169     -0.2261
      6  PA        13.4370   53.7030   65.4550 P.3   169  GDP169      0.2231
      7  O1A       12.5280   52.5690   65.8220 O.3   169  GDP169     -0.4370
      8  O2A       14.3530   53.4070   64.3340 O.2   169  GDP169     -0.5169
      9  O5'       12.6420   55.0280   65.0840 O.3   169  GDP169     -0.3111
     10  C5'       11.6560   55.6290   65.9520 C.3   169  GDP169      0.1813
     11  C4'       10.7600   56.5260   65.1260 C.3   169  GDP169      0.1799
     12  O4'       11.5160   57.7270   64.6850 O.3   169  GDP169     -0.3326
     13  C3'       10.1700   55.8760   63.8580 C.3   169  GDP169      0.2158
     14  O3'        8.7790   56.3620   63.8000 O.3   169  GDP169     -0.2175
     15  C2'       11.0130   56.4680   62.7390 C.3   169  GDP169      0.2310
     16  O2'       10.3600   56.4450   61.5250 O.3   169  GDP169     -0.2158
     17  C1'       11.4030   57.8520   63.2830 C.3   169  GDP169      0.2293
     18  N9        12.7820   58.3150   62.6650 N.pl3 169  GDP169     -0.2354
     19  C8        13.9660   57.6520   62.8030 C.3   169  GDP169      0.2246
     20  N7        14.9520   58.2930   62.1660 N.2   169  GDP169     -0.2322
     21  C5        14.3690   59.4360   61.6330 C.2   169  GDP169      0.2182
     22  C6        14.9390   60.4490   60.8210 C.1   169  GDP169      0.2372
     23  O6        16.1360   60.5390   60.5230 O.2   169  GDP169     -0.2069
     24  N1        14.0200   61.4510   60.4440 N.2   169  GDP169     -0.2485
     25  C2        12.6760   61.4000   60.7720 C.1   169  GDP169      0.2531
     26  N2        11.8980   62.4000   60.3380 N.pl3 169  GDP169     -0.0226
     27  N3        12.1260   60.4190   61.5200 N.2   169  GDP169     -0.3074
     28  C4        13.0210   59.4550   61.8900 C.2   169  GDP169      0.2300
@<TRIPOS>BOND
     1    26    25    1
     2    24    25    2
     3    24    22    2
     4    23    22    2
     5    25    27    2
     6    22    21    1
     7    27    28    2
     8    16    15    1
     9    21    28    1
    10    21    20    2
    11    28    18    1
    12    20    19    1
    13    18    19    1
    14    18    17    1
    15    15    17    1
    16    15    13    1
    17    17    12    1
    18    14    13    1
    19    13    11    1
    20     8     6    2
    21    12    11    1
    22     9     6    1
    23     9    10    1
    24    11    10    1
    25     6     7    1
    26     6     5    1
    27     5     1    1
    28     4     1    2
    29     1     2    1
    30     1     3    1
