@<TRIPOS>MOLECULE
1xd9_ADP_A_1.pdb
 27 29 0 0 0
SMALL
GASTEIGER

@<TRIPOS>ATOM
      1  PB         5.6910   -6.5280    5.8060 P.3   291  ADP291      0.5373
      2  O1B        6.8920   -5.6600    5.9350 O.3   291  ADP291     -0.1143
      3  O2B        4.7060   -6.0690    4.8060 O.2   291  ADP291     -0.2221
      4  O3B        4.7300   -6.3650    7.2530 O.3   291  ADP291     -0.1143
      5  PA         6.0750   -8.8990    4.7140 P.3   291  ADP291      0.2231
      6  O1A        4.7890   -9.3260    4.1200 O.3   291  ADP291     -0.4370
      7  O2A        7.1350   -8.5210    3.7490 O.2   291  ADP291     -0.5169
      8  O3A        5.9470   -7.9940    5.8890 O.3   291  ADP291     -0.2261
      9  O5'        6.6340  -10.2520    5.2990 O.3   291  ADP291     -0.3111
     10  C5'        7.8110  -10.3170    6.0970 C.3   291  ADP291      0.1813
     11  C4'        8.3940  -11.7470    6.3200 C.3   291  ADP291      0.1821
     12  O4'        7.3070  -12.5380    6.8950 O.3   291  ADP291     -0.3135
     13  C3'        8.8090  -12.5450    5.0360 C.3   291  ADP291      0.2184
     14  O3'        9.5620  -13.7350    5.3540 O.3   291  ADP291     -0.2174
     15  C2'        7.4000  -12.9810    4.6250 C.3   291  ADP291      0.2570
     16  O2'        7.4880  -13.9490    3.5800 O.3   291  ADP291     -0.2130
     17  C1'        7.0460  -13.6220    5.9620 C.3   291  ADP291      0.3186
     18  N9         5.6130  -14.0700    5.9930 N.pl3 291  ADP291     -0.1439
     19  C8         4.4710  -13.3940    5.6550 C.3   291  ADP291      0.3377
     20  N7         3.3660  -14.0730    5.7910 N.2   291  ADP291     -0.2095
     21  C5         3.8000  -15.2970    6.2790 C.2   291  ADP291      0.2526
     22  C6         3.1190  -16.4690    6.6440 C.2   291  ADP291      0.4393
     23  N6         1.8000  -16.5720    6.6150 N.pl3 291  ADP291      0.2180
     24  N1         3.8470  -17.5190    7.0490 N.2   291  ADP291      0.0021
     25  C2         5.1670  -17.3940    7.1140 C.3   291  ADP291      0.5254
     26  N3         5.9290  -16.3490    6.8360 N.2   291  ADP291     -0.0055
     27  C4         5.1650  -15.3100    6.4060 C.2   291  ADP291      0.3518
@<TRIPOS>BOND
     1    16    15    1
     2     7     5    2
     3     6     5    1
     4    15    13    1
     5    15    17    1
     6     5     9    1
     7     5     8    1
     8     3     1    2
     9    13    14    1
    10    13    11    1
    11     9    10    1
    12    19    20    1
    13    19    18    1
    14    20    21    2
    15     1     8    1
    16     1     2    1
    17     1     4    1
    18    17    18    1
    19    17    12    1
    20    18    27    1
    21    10    11    1
    22    21    27    1
    23    21    22    1
    24    11    12    1
    25    27    26    2
    26    23    22    1
    27    22    24    2
    28    26    25    1
    29    24    25    1
