@<TRIPOS>MOLECULE
1xdd_AAY_A_1.pdb
 44 48 0 0 0
SMALL
GASTEIGER

@<TRIPOS>ATOM
      1  O52       29.1670   85.3540   38.8860 O.2   401  AAY401     -0.2501
      2  C51       29.7230   86.2550   38.2960 C.2   401  AAY401      0.3163
      3  C53       29.1350   86.9140   37.0540 C.3   401  AAY401      0.0991
      4  C62       28.7540   85.8550   36.0080 C.3   401  AAY401      0.0116
      5  C55       27.8940   87.7040   37.4450 C.3   401  AAY401      0.0111
      6  C58       28.2410   88.7810   38.4910 C.3   401  AAY401      0.0006
      7  O50       30.8820   86.8020   38.6570 O.3   401  AAY401     -0.4519
      8  C26       31.6430   86.1280   39.6900 C.3   401  AAY401      0.1730
      9  C28       32.2890   84.8370   39.1730 C.3   401  AAY401      0.0483
     10  C31       33.3240   85.1000   38.0670 C.3   401  AAY401      0.0253
     11  C46       32.7270   84.9580   36.6380 C.3   401  AAY401      0.0048
     12  C33       33.9480   86.4520   38.0870 C.2   401  AAY401     -0.0305
     13  C35       33.7310   87.3600   39.0360 C.2   401  AAY401     -0.0236
     14  C24       32.7210   87.1360   40.1510 C.3   401  AAY401      0.0624
     15  C36       34.4430   88.5050   38.9530 C.2   401  AAY401     -0.0091
     16  C38       34.3460   89.4710   39.8620 C.2   401  AAY401     -0.0268
     17  C40       33.2230   89.5060   40.8810 C.3   401  AAY401      0.0224
     18  C42       33.8410   89.2000   42.2700 C.3   401  AAY401      0.0047
     19  C22       32.1100   88.5150   40.5100 C.3   401  AAY401      0.0116
     20  C19       30.9840   88.3680   41.6010 C.3   401  AAY401      0.0025
     21  C16       30.4750   89.7330   42.1220 C.3   401  AAY401      0.0199
     22  C2        29.3430   89.6190   43.1780 C.3   401  AAY401      0.0782
     23  N1        29.7070   88.9010   44.4010 N.am  401  AAY401     -0.2769
     24  C12       28.8580   88.0190   44.9870 C.2   401  AAY401      0.2284
     25  O13       29.1390   87.4550   46.0250 O.2   401  AAY401     -0.2748
     26  C9        27.5150   87.6950   44.4260 C.3   401  AAY401      0.1181
     27  C7        26.9890   88.8510   43.5730 C.3   401  AAY401      0.1627
     28  O14       25.7750   88.4650   42.9330 O.3   401  AAY401     -0.2226
     29  C4        28.0770   89.0560   42.5080 C.3   401  AAY401      0.0532
     30  C66       30.9690   89.1450   45.0580 C.3   401  AAY401      0.1201
     31  C69       30.8210   90.4090   45.8560 C.ar  401  AAY401     -0.0023
     32  C92       31.2340   91.6260   45.3320 C.ar  401  AAY401     -0.0026
     33  C90       31.0940   92.8040   46.0580 C.ar  401  AAY401     -0.0004
     34  C73       30.5330   92.7450   47.3400 C.ar  401  AAY401      0.0014
     35  C74       30.3700   93.9040   48.1170 C.ar  401  AAY401      0.0446
     36  C85       30.8120   95.2890   47.6190 C.3   401  AAY401      0.2116
     37  O88       30.0640   95.6950   46.4720 O.3   401  AAY401     -0.2151
     38  C75       29.7900   93.7890   49.3850 C.ar  401  AAY401      0.1371
     39  O80       29.6220   94.9180   50.1740 O.3   401  AAY401     -0.4717
     40  C81       28.2370   95.3000   50.3360 C.3   401  AAY401      0.2525
     41  C76       29.3730   92.5510   49.8860 C.ar  401  AAY401      0.0367
     42  C78       29.5440   91.4070   49.1180 C.ar  401  AAY401      0.0031
     43  C72       30.1190   91.5080   47.8540 C.ar  401  AAY401     -0.0003
     44  C70       30.2530   90.3390   47.1130 C.ar  401  AAY401     -0.0026
@<TRIPOS>BOND
     1     4     3    1
     2    11    10    1
     3     3     5    1
     4     3     2    1
     5     5     6    1
     6    10    12    1
     7    10     9    1
     8    12    13    2
     9     2     7    1
    10     2     1    2
    11     7     8    1
    12    15    13    1
    13    15    16    2
    14    13    14    1
    15     9     8    1
    16     8    14    1
    17    16    17    1
    18    14    19    1
    19    19    17    1
    20    19    20    1
    21    17    18    1
    22    20    21    1
    23    21    22    1
    24    29    22    1
    25    29    27    1
    26    28    27    1
    27    22    23    1
    28    27    26    1
    29    23    24   am
    30    23    30    1
    31    26    24    1
    32    24    25    2
    33    30    31    1
    34    32    31   ar
    35    32    33   ar
    36    31    44   ar
    37    33    34   ar
    38    37    36    1
    39    44    43   ar
    40    34    43   ar
    41    34    35   ar
    42    36    35    1
    43    43    42   ar
    44    35    38   ar
    45    42    41   ar
    46    38    41   ar
    47    38    39    1
    48    39    40    1
