@<TRIPOS>MOLECULE
1xdg_AB8_A_1.pdb
 43 46 0 0 0
SMALL
GASTEIGER

@<TRIPOS>ATOM
      1  C88       52.3630   28.6250   15.9210 C.3   401  AB8401      0.2526
      2  O87       52.5730   27.3410   15.3170 O.3   401  AB8401     -0.4682
      3  C79       51.8920   26.2280   15.8440 C.ar  401  AB8401      0.1771
      4  C80       52.4520   24.9700   15.6120 C.ar  401  AB8401      0.2293
      5  O85       53.6390   24.8870   14.8940 O.3   401  AB8401     -0.2833
      6  C81       51.8460   23.8140   16.0970 C.ar  401  AB8401      0.0449
      7  C83       50.6520   23.9320   16.8020 C.ar  401  AB8401      0.0009
      8  C77       50.6960   26.3310   16.5530 C.ar  401  AB8401      0.0376
      9  C76       50.0780   25.1760   17.0270 C.ar  401  AB8401      0.0010
     10  C73       48.7890   25.2370   17.8210 C.3   401  AB8401      0.1235
     11  N1        49.1770   24.9150   19.1820 N.am  401  AB8401     -0.2429
     12  C2        50.0450   25.8080   19.9570 C.3   401  AB8401      0.0916
     13  C62       49.4100   27.2390   20.0940 C.3   401  AB8401      0.1068
     14  C65       50.2460   28.2340   20.8980 C.2   401  AB8401      0.2431
     15  N67       49.6660   28.8840   21.9410 N.am  401  AB8401     -0.2035
     16  C69       50.2230   30.1400   22.4440 C.3   401  AB8401      0.1385
     17  O66       51.4270   28.3480   20.6040 O.2   401  AB8401     -0.2733
     18  C4        50.3930   25.2780   21.3610 C.3   401  AB8401      0.0641
     19  C7        50.2810   23.7130   21.3480 C.3   401  AB8401      0.1721
     20  O9        48.9460   23.4010   20.9540 O.3   401  AB8401     -0.4383
     21  C10       48.6170   23.8250   19.7410 C.2   401  AB8401      0.4050
     22  O11       47.7690   23.1620   19.1460 O.2   401  AB8401     -0.2262
     23  C12       50.4940   23.1640   22.7740 C.3   401  AB8401      0.0438
     24  C15       50.4640   21.6040   22.8590 C.3   401  AB8401      0.0045
     25  C18       50.5260   21.1490   24.3320 C.3   401  AB8401      0.0117
     26  C20       50.4130   19.6130   24.2710 C.3   401  AB8401      0.0624
     27  C31       50.3750   19.0710   25.6630 C.2   401  AB8401     -0.0236
     28  C32       49.7220   19.8650   26.7270 C.2   401  AB8401     -0.0091
     29  C34       49.2360   21.0690   26.4890 C.2   401  AB8401     -0.0268
     30  C36       49.3550   21.7450   25.1440 C.3   401  AB8401      0.0224
     31  C38       48.0080   21.5930   24.3960 C.3   401  AB8401      0.0047
     32  C29       50.9060   17.8810   25.9450 C.2   401  AB8401     -0.0305
     33  C27       51.5800   16.9720   24.9510 C.3   401  AB8401      0.0253
     34  C42       53.0570   16.7870   25.3610 C.3   401  AB8401      0.0048
     35  C24       51.4730   17.4780   23.4940 C.3   401  AB8401      0.0483
     36  C22       51.5830   19.0300   23.4400 C.3   401  AB8401      0.1730
     37  O46       52.8050   19.4970   24.0220 O.3   401  AB8401     -0.4519
     38  C47       53.8870   19.4220   23.2590 C.2   401  AB8401      0.3163
     39  O48       53.8590   19.0910   22.0770 O.2   401  AB8401     -0.2501
     40  C49       55.1550   19.7600   24.0160 C.3   401  AB8401      0.0991
     41  C58       56.1400   18.5710   23.9800 C.3   401  AB8401      0.0116
     42  C51       55.8090   20.9630   23.3690 C.3   401  AB8401      0.0111
     43  C54       54.8630   22.1630   23.5780 C.3   401  AB8401      0.0006
@<TRIPOS>BOND
     1     5     4    1
     2     2     3    1
     3     2     1    1
     4     4     3   ar
     5     4     6   ar
     6     3     8   ar
     7     6     7   ar
     8     8     9   ar
     9     7     9   ar
    10     9    10    1
    11    10    11    1
    12    22    21    2
    13    11    21   am
    14    11    12    1
    15    21    20    1
    16    12    13    1
    17    12    18    1
    18    13    14    1
    19    17    14    2
    20    14    15   am
    21    20    19    1
    22    19    18    1
    23    19    23    1
    24    15    16    1
    25    39    38    2
    26    23    24    1
    27    24    25    1
    28    38    40    1
    29    38    37    1
    30    42    43    1
    31    42    40    1
    32    36    35    1
    33    36    37    1
    34    36    26    1
    35    35    33    1
    36    41    40    1
    37    26    25    1
    38    26    27    1
    39    25    30    1
    40    31    30    1
    41    33    34    1
    42    33    32    1
    43    30    29    1
    44    27    32    2
    45    27    28    1
    46    29    28    2
