@<TRIPOS>MOLECULE
1xdh_III_C_1.pdb
 48 47 0 0 0
SMALL
GASTEIGER

@<TRIPOS>ATOM
      1  CA        12.4350   70.0730   28.5110 C.3   1347  IVA1347     0.0868
      2  CB        12.9070   69.7170   29.9090 C.3   1347  IVA1347     0.0091
      3  CG1       13.2190   70.9900   30.6970 C.3   1347  IVA1347     0.0005
      4  CG2       14.1320   68.8190   29.8720 C.3   1347  IVA1347     0.0005
      5  C         12.2360   68.8270   27.6810 C.2   1347  IVA1347     0.2418
      6  O         11.2450   68.1400   27.8550 O.2   1347  IVA1347    -0.2733
      7  N         13.1870   68.5500   26.7940 N.am  1348  VAL1348    -0.1978
      8  CA        13.1810   67.3890   25.9360 C.3   1348  VAL1348     0.1726
      9  C         14.4120   66.5660   26.2040 C.2   1348  VAL1348     0.2616
     10  O         15.4790   67.1400   26.2600 O.2   1348  VAL1348    -0.2715
     11  CB        13.1100   67.8760   24.4980 C.3   1348  VAL1348     0.0290
     12  CG1       13.3550   66.7400   23.5160 C.3   1348  VAL1348     0.0023
     13  CG2       11.7590   68.5410   24.2340 C.3   1348  VAL1348     0.0023
     14  N         14.2390   65.2690   26.3820 N.am  1349  VAL1349    -0.1963
     15  CA        15.3040   64.3250   26.6930 C.3   1349  VAL1349     0.1727
     16  C         15.1490   63.1420   25.7760 C.2   1349  VAL1349     0.2612
     17  O         14.1690   62.4050   25.8510 O.2   1349  VAL1349    -0.2715
     18  CB        15.2960   63.8870   28.1500 C.3   1349  VAL1349     0.0290
     19  CG1       16.4390   62.9280   28.4730 C.3   1349  VAL1349     0.0023
     20  CG2       15.3680   65.0890   29.0810 C.3   1349  VAL1349     0.0023
     21  N         16.1250   62.9860   24.8820 N.am  1350  STA1350    -0.2031
     22  CA        16.0620   61.9900   23.8290 C.3   1350  STA1350     0.1261
     23  CB        15.7970   62.6580   22.4830 C.3   1350  STA1350     0.0243
     24  CG        14.5270   63.5090   22.4300 C.3   1350  STA1350     0.0018
     25  CD1       13.2640   62.6570   22.5010 C.3   1350  STA1350     0.0001
     26  CD2       14.5590   64.4000   21.1970 C.3   1350  STA1350     0.0001
     27  CH        17.3780   61.2140   23.8000 C.3   1350  STA1350     0.1809
     28  OH        18.4440   62.1170   23.6550 O.3   1350  STA1350    -0.2208
     29  CM        17.6090   60.3850   25.0510 C.3   1350  STA1350     0.1214
     30  C         16.7670   59.1390   24.9910 C.2   1350  STA1350     0.2444
     31  O         15.7060   59.0750   25.5900 O.2   1350  STA1350    -0.2732
     32  N         17.2570   58.1110   24.3000 N.am  1351  ALA1351    -0.1977
     33  CA        16.5830   56.8330   24.2690 C.3   1351  ALA1351     0.1728
     34  C         16.5600   56.1580   25.6150 C.2   1351  ALA1351     0.2612
     35  O         17.4580   56.3820   26.4180 O.2   1351  ALA1351    -0.2715
     36  CB        17.2710   55.9100   23.2680 C.3   1351  ALA1351     0.0334
     37  N         15.5520   55.3130   25.8320 N.am  1352  STA1352    -0.2031
     38  CA        15.4060   54.4850   27.0210 C.3   1352  STA1352     0.1262
     39  CB        13.9670   54.5220   27.5250 C.3   1352  STA1352     0.0243
     40  CG        13.5950   55.6860   28.4360 C.3   1352  STA1352     0.0018
     41  CD1       14.4280   55.7170   29.7090 C.3   1352  STA1352     0.0001
     42  CD2       12.1150   55.5940   28.7950 C.3   1352  STA1352     0.0001
     43  CH        15.7680   53.0340   26.6940 C.3   1352  STA1352     0.1830
     44  OH        14.7240   52.4710   25.9080 O.3   1352  STA1352    -0.2207
     45  CM        17.0910   52.8670   25.9420 C.3   1352  STA1352     0.1486
     46  C         17.2890   51.4160   25.5560 C.2   1352  STA1352     0.3675
     47  O         16.9890   50.4560   26.4220 O.co2 1352  STA1352    -0.2456
     48  OXT       17.7120   51.1110   24.4490 O.co2 1352  STA1352    -0.2456
@<TRIPOS>BOND
     1    26    24    1
     2    24    23    1
     3    24    25    1
     4    23    22    1
     5    36    33    1
     6    12    11    1
     7    28    27    1
     8    27    22    1
     9    27    29    1
    10    22    21    1
    11    13    11    1
    12    33    32    1
    13    33    34    1
    14    32    30   am
    15    48    46   ar
    16    11     8    1
    17    21    16   am
    18    30    29    1
    19    30    31    2
    20    46    45    1
    21    46    47   ar
    22    34    37   am
    23    34    35    2
    24    16    17    2
    25    16    15    1
    26    37    38    1
    27    44    43    1
    28     8     9    1
    29     8     7    1
    30    45    43    1
    31     9    10    2
    32     9    14   am
    33    14    15    1
    34    15    18    1
    35    43    38    1
    36     7     5   am
    37    38    39    1
    38    39    40    1
    39     5     6    2
    40     5     1    1
    41    18    19    1
    42    18    20    1
    43    40    42    1
    44    40    41    1
    45     1     2    1
    46     4     2    1
    47     2     3    1
