@<TRIPOS>MOLECULE
1xdk_REA_A_1.pdb
 22 22 0 0 0
SMALL
GASTEIGER

@<TRIPOS>ATOM
      1  C1        40.9090   22.1030   82.2580 C.3   500  REA500      0.0183
      2  C2        40.4120   20.7260   81.6770 C.3   500  REA500      0.0044
      3  C3        38.9800   20.6340   81.1550 C.3   500  REA500      0.0047
      4  C4        38.6370   21.7300   80.1830 C.3   500  REA500      0.0217
      5  C5        39.2730   23.1220   80.4300 C.2   500  REA500     -0.0479
      6  C6        40.3170   23.3240   81.3650 C.2   500  REA500     -0.0307
      7  C7        40.9060   24.6610   81.5940 C.2   500  REA500     -0.0052
      8  C8        41.4730   25.4510   80.6800 C.2   500  REA500     -0.0046
      9  C9        42.0020   26.7400   80.6980 C.2   500  REA500     -0.0219
     10  C10       42.4960   27.2600   79.5600 C.2   500  REA500     -0.0043
     11  C11       42.6510   26.7310   78.2000 C.2   500  REA500     -0.0006
     12  C12       43.1030   27.4590   77.1490 C.2   500  REA500     -0.0041
     13  C13       43.2740   26.9060   75.7620 C.2   500  REA500     -0.0153
     14  C14       43.6590   27.7750   74.8580 C.2   500  REA500      0.0819
     15  C15       43.9190   27.7180   73.3960 C.2   500  REA500      0.3876
     16  C16       42.4520   21.9330   82.2810 C.3   500  REA500      0.0043
     17  C17       40.4510   22.2100   83.7060 C.3   500  REA500      0.0043
     18  C18       38.5540   24.0850   79.5130 C.3   500  REA500      0.0260
     19  C19       41.9630   27.5260   81.9740 C.3   500  REA500      0.0310
     20  C20       42.9820   25.4510   75.4480 C.3   500  REA500      0.0312
     21  O1        43.5660   28.7440   72.7300 O.co2 500  REA500     -0.2406
     22  O2        44.4230   26.6880   72.8250 O.co2 500  REA500     -0.2406
@<TRIPOS>BOND
     1    21    15   ar
     2    22    15   ar
     3    15    14    1
     4    14    13    2
     5    20    13    1
     6    13    12    1
     7    12    11    2
     8    11    10    1
     9    18     5    1
    10    10     9    2
    11     4     5    1
    12     4     3    1
    13     5     6    2
    14     8     9    1
    15     8     7    2
    16     9    19    1
    17     3     2    1
    18     6     7    1
    19     6     1    1
    20     2     1    1
    21     1    16    1
    22     1    17    1
