@<TRIPOS>MOLECULE
1xdn_ATP_A_1.pdb
 31 33 0 0 0
SMALL
GASTEIGER

@<TRIPOS>ATOM
      1  PG        46.0340   17.4420   14.6490 P.3   501  ATP501      0.5373
      2  O1G       46.5540   18.2510   13.4860 O.2   501  ATP501     -0.2221
      3  O2G       47.0120   16.4400   15.2140 O.3   501  ATP501     -0.1143
      4  O3G       45.4150   18.2890   15.7590 O.3   501  ATP501     -0.1143
      5  PB        44.1660   16.6690   12.6400 P.3   501  ATP501      0.2277
      6  O1B       44.8460   15.7670   11.6960 O.2   501  ATP501     -0.5168
      7  O2B       44.0150   18.0920   12.2140 O.3   501  ATP501     -0.4368
      8  O3B       44.8070   16.5620   14.0920 O.3   501  ATP501     -0.2258
      9  PA        41.4410   16.0040   12.0240 P.3   501  ATP501      0.2189
     10  O1A       41.8680   15.9770   10.6070 O.2   501  ATP501     -0.5170
     11  O2A       40.5730   14.9110   12.5970 O.3   501  ATP501     -0.4371
     12  O3A       42.7200   16.0730   13.0040 O.3   501  ATP501     -0.2700
     13  O5'       40.7610   17.4210   12.2300 O.3   501  ATP501     -0.3112
     14  C5'       40.2280   17.8310   13.4740 C.3   501  ATP501      0.1813
     15  C4'       41.0340   18.9780   14.0300 C.3   501  ATP501      0.1821
     16  O4'       41.0420   20.0830   13.1380 O.3   501  ATP501     -0.3135
     17  C3'       40.3820   19.5680   15.2680 C.3   501  ATP501      0.2184
     18  O3'       40.5750   18.8030   16.4260 O.3   501  ATP501     -0.2174
     19  C2'       40.9730   20.9670   15.3420 C.3   501  ATP501      0.2570
     20  O2'       42.1170   20.9930   16.1720 O.3   501  ATP501     -0.2130
     21  C1'       41.3430   21.2650   13.8920 C.3   501  ATP501      0.3186
     22  N9        40.6020   22.3540   13.2400 N.pl3 501  ATP501     -0.1439
     23  C8        41.1710   23.3100   12.4420 C.3   501  ATP501      0.3377
     24  N7        40.2490   24.1450   11.9420 N.2   501  ATP501     -0.2095
     25  C5        39.0580   23.6790   12.4180 C.2   501  ATP501      0.2526
     26  C6        37.7440   24.1210   12.2640 C.2   501  ATP501      0.4393
     27  N6        37.3820   25.1030   11.4300 N.pl3 501  ATP501      0.2180
     28  N1        36.7600   23.4580   12.9350 N.2   501  ATP501      0.0021
     29  C2        37.0570   22.4010   13.7400 C.3   501  ATP501      0.5254
     30  N3        38.2970   21.9030   13.9090 N.2   501  ATP501     -0.0055
     31  C4        39.2670   22.5690   13.2440 C.2   501  ATP501      0.3518
@<TRIPOS>BOND
     1    10     9    2
     2    27    26    1
     3     6     5    2
     4    24    25    2
     5    24    23    1
     6     9    13    1
     7     9    11    1
     8     9    12    1
     9     7     5    1
    10    13    14    1
    11    26    25    1
    12    26    28    2
    13    25    31    1
    14    23    22    1
    15     5    12    1
    16     5     8    1
    17    28    29    1
    18    16    21    1
    19    16    15    1
    20    22    31    1
    21    22    21    1
    22    31    30    2
    23    14    15    1
    24     2     1    2
    25    29    30    1
    26    21    19    1
    27    15    17    1
    28     8     1    1
    29     1     3    1
    30     1     4    1
    31    17    19    1
    32    17    18    1
    33    19    20    1
