@<TRIPOS>MOLECULE
1xdp_ATP_A_1.pdb
 31 33 0 0 0
SMALL
GASTEIGER

@<TRIPOS>ATOM
      1  PG       -31.1810  -82.1200   38.9660 P.3   701  ATP701      0.5373
      2  O1G      -30.0840  -81.9040   37.8530 O.2   701  ATP701     -0.2221
      3  O2G      -32.1700  -83.3180   38.7800 O.3   701  ATP701     -0.1143
      4  O3G      -30.5070  -82.1770   40.3670 O.3   701  ATP701     -0.1143
      5  PB       -31.7030  -79.1800   39.0820 P.3   701  ATP701      0.2277
      6  O1B      -32.5960  -78.1330   39.7650 O.3   701  ATP701     -0.4368
      7  O2B      -30.2680  -78.8400   38.5960 O.2   701  ATP701     -0.5168
      8  O3B      -32.1140  -80.7670   39.1920 O.3   701  ATP701     -0.2258
      9  PA       -33.0120  -79.6330   36.2270 P.3   701  ATP701      0.2189
     10  O1A      -34.5140  -79.8680   36.0000 O.3   701  ATP701     -0.4371
     11  O2A      -31.8090  -80.2420   35.2680 O.2   701  ATP701     -0.5170
     12  O3A      -32.4610  -78.8130   37.5290 O.3   701  ATP701     -0.2700
     13  O5'      -33.3370  -78.2380   35.5410 O.3   701  ATP701     -0.3112
     14  C5'      -32.7010  -77.3590   35.0780 C.3   701  ATP701      0.1813
     15  C4'      -32.3320  -76.0110   34.3960 C.3   701  ATP701      0.1821
     16  O4'      -33.1810  -75.4780   33.2650 O.3   701  ATP701     -0.3135
     17  C3'      -32.3300  -75.3130   35.6250 C.3   701  ATP701      0.2184
     18  O3'      -31.0270  -75.2170   36.3140 O.3   701  ATP701     -0.2174
     19  C2'      -33.1480  -73.9730   35.3230 C.3   701  ATP701      0.2570
     20  O2'      -32.4540  -72.8020   35.6660 O.3   701  ATP701     -0.2130
     21  C1'      -33.6150  -74.1390   33.7430 C.3   701  ATP701      0.3186
     22  N9       -35.0970  -73.8270   33.4200 N.pl3 701  ATP701     -0.1439
     23  C8       -35.8390  -74.3160   32.2820 C.3   701  ATP701      0.3377
     24  N7       -37.1000  -73.8350   32.2890 N.2   701  ATP701     -0.2095
     25  C5       -37.1980  -73.0340   33.4150 C.2   701  ATP701      0.2526
     26  C6       -38.3070  -72.2260   34.0180 C.2   701  ATP701      0.4393
     27  N6       -39.5530  -72.2190   33.3880 N.pl3 701  ATP701      0.2180
     28  N1       -38.0410  -71.4840   35.1960 N.2   701  ATP701      0.0021
     29  C2       -36.8040  -71.5040   35.7570 C.3   701  ATP701      0.5254
     30  N3       -35.6850  -72.2080   35.3480 N.2   701  ATP701     -0.0055
     31  C4       -35.9930  -72.9750   34.1200 C.2   701  ATP701      0.3518
@<TRIPOS>BOND
     1    23    24    1
     2    23    22    1
     3    24    25    2
     4    16    21    1
     5    16    15    1
     6    27    26    1
     7    25    26    1
     8    25    31    1
     9    22    21    1
    10    22    31    1
    11    21    19    1
    12    26    28    2
    13    31    30    2
    14    15    14    1
    15    15    17    1
    16    14    13    1
    17    28    29    1
    18    11     9    2
    19    19    17    1
    20    19    20    1
    21    30    29    1
    22    13     9    1
    23    17    18    1
    24    10     9    1
    25     9    12    1
    26    12     5    1
    27     2     1    2
    28     7     5    2
    29     3     1    1
    30     1     8    1
    31     1     4    1
    32     5     8    1
    33     5     6    1
