@<TRIPOS>MOLECULE
1xds_SAM_A_1.pdb
 27 29 0 0 0
SMALL
GASTEIGER

@<TRIPOS>ATOM
      1  N         46.2240   44.9880  115.9250 N.3   5635  SAM5635    -0.1208
      2  CA        45.1880   44.1300  115.3710 C.3   5635  SAM5635     0.1952
      3  C         45.2910   42.7000  115.8620 C.2   5635  SAM5635     0.3819
      4  O         46.4090   42.1550  115.9900 O.co2 5635  SAM5635    -0.2441
      5  OXT       44.2340   42.0720  116.1180 O.co2 5635  SAM5635    -0.2441
      6  CB        45.3770   44.1600  113.8650 C.3   5635  SAM5635     0.0414
      7  CG        44.0920   43.8920  113.1340 C.3   5635  SAM5635     0.0503
      8  SD        44.2750   43.9930  111.4790 S.3   5635  SAM5635    -0.1761
      9  CE        45.2690   42.7470  111.0010 C.3   5635  SAM5635     0.0590
     10  C5'       44.7700   45.4670  110.8430 C.3   5635  SAM5635     0.0806
     11  C4'       43.9140   46.5860  111.4220 C.3   5635  SAM5635     0.1622
     12  O4'       44.3450   47.9070  111.0790 O.3   5635  SAM5635    -0.3153
     13  C3'       42.4170   46.5200  111.0810 C.3   5635  SAM5635     0.2168
     14  O3'       41.7160   46.2560  112.2840 O.3   5635  SAM5635    -0.2175
     15  C2'       42.0100   47.8900  110.5420 C.3   5635  SAM5635     0.2569
     16  O2'       40.8760   48.4960  111.0860 O.3   5635  SAM5635    -0.2130
     17  C1'       43.2290   48.7500  110.7770 C.3   5635  SAM5635     0.3185
     18  N9        43.4260   49.8780  109.8360 N.pl3 5635  SAM5635    -0.1439
     19  C8        43.5400   49.8970  108.4890 C.3   5635  SAM5635     0.3377
     20  N7        43.7140   51.1610  108.0110 N.2   5635  SAM5635    -0.2095
     21  C5        43.7090   51.9700  109.0790 C.2   5635  SAM5635     0.2526
     22  C6        43.8210   53.3160  109.3650 C.2   5635  SAM5635     0.4393
     23  N6        43.9940   54.1340  108.3170 N.pl3 5635  SAM5635     0.2180
     24  N1        43.7440   53.7910  110.6520 N.2   5635  SAM5635     0.0021
     25  C2        43.5550   52.9890  111.7130 C.3   5635  SAM5635     0.5254
     26  N3        43.4210   51.6550  111.5700 N.2   5635  SAM5635    -0.0055
     27  C4        43.5020   51.1230  110.2300 C.2   5635  SAM5635     0.3518
@<TRIPOS>BOND
     1    20    19    1
     2    20    21    2
     3    23    22    1
     4    19    18    1
     5    21    22    1
     6    21    27    1
     7    22    24    2
     8    18    27    1
     9    18    17    1
    10    27    26    2
    11    15    17    1
    12    15    13    1
    13    15    16    1
    14    24    25    1
    15    17    12    1
    16    10    11    1
    17    10     8    1
    18     9     8    1
    19    12    11    1
    20    13    11    1
    21    13    14    1
    22     8     7    1
    23    26    25    1
    24     7     6    1
    25     6     2    1
    26     2     3    1
    27     2     1    1
    28     3     4   ar
    29     3     5   ar
