@<TRIPOS>MOLECULE
1xdu_SFG_A_1.pdb
 27 29 0 0 0
SMALL
GASTEIGER

@<TRIPOS>ATOM
      1  N          6.3560   58.3260   45.0260 N.3   5635  SFG5635    -0.1208
      2  CA         6.8220   57.8320   43.7380 C.3   5635  SFG5635     0.1944
      3  C          6.3530   56.4100   43.5690 C.2   5635  SFG5635     0.3819
      4  O          5.2990   56.0460   44.0730 O.co2 5635  SFG5635    -0.2441
      5  OXT        7.0820   55.5380   42.8830 O.co2 5635  SFG5635    -0.2441
      6  CB         8.3540   57.9220   43.6880 C.3   5635  SFG5635     0.0321
      7  CG         8.8930   58.2690   42.3030 C.3   5635  SFG5635     0.0212
      8  CD        10.4150   58.4850   42.2910 C.3   5635  SFG5635     0.0944
      9  NE        11.0740   57.2610   42.7160 N.3   5635  SFG5635    -0.1328
     10  C5'       10.9040   59.6650   43.1580 C.3   5635  SFG5635     0.0514
     11  C4'       10.1680   60.9750   42.8610 C.3   5635  SFG5635     0.1537
     12  O4'       10.4910   62.0940   43.7090 O.3   5635  SFG5635    -0.3161
     13  C3'       10.3900   61.4160   41.4250 C.3   5635  SFG5635     0.2159
     14  O3'        9.1630   61.2900   40.7220 O.3   5635  SFG5635    -0.2175
     15  C2'       10.8430   62.8610   41.4620 C.3   5635  SFG5635     0.2569
     16  O2'       10.0830   63.7040   40.6160 O.3   5635  SFG5635    -0.2130
     17  C1'       10.7720   63.2720   42.9300 C.3   5635  SFG5635     0.3185
     18  N9        11.8910   64.1590   43.3300 N.pl3 5635  SFG5635    -0.1439
     19  C8        13.2090   64.0520   43.0570 C.3   5635  SFG5635     0.3377
     20  N7        13.9370   65.0970   43.5610 N.2   5635  SFG5635    -0.2095
     21  C5        13.0620   65.9120   44.1620 C.2   5635  SFG5635     0.2526
     22  C6        13.0550   67.1890   44.9100 C.2   5635  SFG5635     0.4393
     23  N6        14.2280   67.8230   45.1150 N.pl3 5635  SFG5635     0.2180
     24  N1        11.8810   67.6870   45.3760 N.2   5635  SFG5635     0.0021
     25  C2        10.6920   67.0730   45.1840 C.3   5635  SFG5635     0.5254
     26  N3        10.5750   65.9080   44.5150 N.2   5635  SFG5635    -0.0055
     27  C4        11.7680   65.2980   43.9820 C.2   5635  SFG5635     0.3518
@<TRIPOS>BOND
     1    16    15    1
     2    14    13    1
     3    13    15    1
     4    13    11    1
     5    15    17    1
     6     8     7    1
     7     8     9    1
     8     8    10    1
     9     7     6    1
    10    11    10    1
    11    11    12    1
    12     5     3   ar
    13    17    18    1
    14    17    12    1
    15    19    18    1
    16    19    20    1
    17    18    27    1
    18    20    21    2
    19     3     2    1
    20     3     4   ar
    21     6     2    1
    22     2     1    1
    23    27    21    1
    24    27    26    2
    25    21    22    1
    26    26    25    1
    27    22    23    1
    28    22    24    2
    29    25    24    1
