@<TRIPOS>MOLECULE
1xe5_5FE_A_1.pdb
 49 48 0 0 0
SMALL
GASTEIGER

@<TRIPOS>ATOM
      1  C22       67.4940   24.1350   11.8440 C.3   500  5FE500      0.0868
      2  C23       67.2460   23.4280   13.1770 C.3   500  5FE500      0.0091
      3  C39       67.0900   21.9150   13.0100 C.3   500  5FE500      0.0005
      4  C24       68.3640   23.7780   14.1550 C.3   500  5FE500      0.0005
      5  C21       66.3310   24.0720   10.8610 C.2   500  5FE500      0.2418
      6  O21       65.2060   24.3410   11.2700 O.2   500  5FE500     -0.2733
      7  N20       66.5130   23.2160    9.7040 N.am  500  5FE500     -0.1978
      8  C19       65.4060   22.5390    9.0460 C.3   500  5FE500      0.1726
      9  C18       65.3700   21.1390    9.6630 C.2   500  5FE500      0.2616
     10  O18       66.3330   20.4110    9.4740 O.2   500  5FE500     -0.2715
     11  C36       65.5600   22.5130    7.5150 C.3   500  5FE500      0.0290
     12  C37       65.6360   23.9220    6.9170 C.3   500  5FE500      0.0023
     13  C38       64.4420   21.7060    6.8530 C.3   500  5FE500      0.0023
     14  N17       64.1220   20.6110   10.1880 N.am  500  5FE500     -0.1963
     15  C16       63.8790   19.2020   10.4720 C.3   500  5FE500      0.1727
     16  C15       62.7180   18.7680    9.5750 C.2   500  5FE500      0.2615
     17  O15       61.6090   19.3080    9.6510 O.2   500  5FE500     -0.2715
     18  C33       63.5790   18.9240   11.9530 C.3   500  5FE500      0.0290
     19  C34       64.7130   19.4020   12.8590 C.3   500  5FE500      0.0023
     20  C35       63.2530   17.4500   12.2070 C.3   500  5FE500      0.0023
     21  N14       62.9920   17.7620    8.5710 N.am  500  5FE500     -0.1943
     22  C9        59.8080   15.2310    8.7110 C.2   500  5FE500      0.2444
     23  F1        63.3640   17.8280    5.7770 F     500  5FE500     -0.1681
     24  C10       61.3260   15.1100    8.7840 C.3   500  5FE500      0.1217
     25  F2        61.2570   17.4950    5.4340 F     500  5FE500     -0.1681
     26  O9        59.2270   16.0450    9.4410 O.2   500  5FE500     -0.2732
     27  C11       62.0270   15.7470    7.5820 C.3   500  5FE500      0.1894
     28  F3        61.9380   19.3020    6.4240 F     500  5FE500     -0.1681
     29  O11       63.3650   15.2640    7.5600 O.3   500  5FE500     -0.2205
     30  C12       61.9860   17.2910    7.6360 C.3   500  5FE500      0.2203
     31  C13       62.1480   17.9970    6.2760 C.3   500  5FE500      0.4180
     32  N8        59.0790   14.2180    7.9590 N.am  500  5FE500     -0.1977
     33  C7        57.6310   14.0840    8.0020 C.3   500  5FE500      0.1728
     34  C6        57.1550   13.8480    9.4350 C.2   500  5FE500      0.2615
     35  O6        57.7480   13.0660   10.1810 O.2   500  5FE500     -0.2715
     36  C29       57.1190   12.9900    7.0640 C.3   500  5FE500      0.0334
     37  N5        55.9050   14.4810    9.8120 N.am  500  5FE500     -0.1943
     38  C1        52.7720   11.8760    9.3310 C.2   500  5FE500      0.3198
     39  F4        54.6100   15.5520   12.9560 F     500  5FE500     -0.1681
     40  O1        51.6740   12.5170    9.3540 O.3   500  5FE500     -0.4443
     41  C2        53.9100   12.2630   10.2760 C.3   500  5FE500      0.1444
     42  F5        56.5030   16.0130   12.0350 F     500  5FE500     -0.1681
     43  O2        52.9970   10.9120    8.5450 O.2   500  5FE500     -0.2500
     44  C3        53.8360   13.6970   10.8420 C.3   500  5FE500      0.1914
     45  F6        54.6930   16.6140   11.0810 F     500  5FE500     -0.1681
     46  O3        53.0760   14.5490    9.9900 O.3   500  5FE500     -0.2204
     47  C4        55.2380   14.2940   11.0820 C.3   500  5FE500      0.2204
     48  C25       55.2520   15.6520   11.8070 C.3   500  5FE500      0.4180
     49  CA        50.6620   11.7750    9.2610 C.3   500  5FE500      0.2556
@<TRIPOS>BOND
     1    25    31    1
     2    23    31    1
     3    31    28    1
     4    31    30    1
     5    13    11    1
     6    12    11    1
     7    36    33    1
     8    11     8    1
     9    29    27    1
    10    27    30    1
    11    27    24    1
    12    30    21    1
    13    32    33    1
    14    32    22   am
    15    33    34    1
    16    43    38    2
    17    21    16   am
    18    22    24    1
    19    22    26    2
    20     8     9    1
    21     8     7    1
    22    49    40    1
    23    38    40    1
    24    38    41    1
    25    34    37   am
    26    34    35    2
    27    10     9    2
    28    16    17    2
    29    16    15    1
    30     9    14   am
    31     7     5   am
    32    37    47    1
    33    46    44    1
    34    14    15    1
    35    41    44    1
    36    15    18    1
    37    44    47    1
    38     5     6    2
    39     5     1    1
    40    45    48    1
    41    47    48    1
    42    48    42    1
    43    48    39    1
    44     1     2    1
    45    18    20    1
    46    18    19    1
    47     3     2    1
    48     2     4    1
