@<TRIPOS>MOLECULE
1xe6_5FP_A_1.pdb
 48 47 0 0 0
SMALL
GASTEIGER

@<TRIPOS>ATOM
      1  C22       66.4350   24.3990   12.6610 C.3   400  5FP400      0.0868
      2  C23       66.5490   23.5310   13.9170 C.3   400  5FP400      0.0091
      3  C39       67.7130   22.5510   13.7840 C.3   400  5FP400      0.0005
      4  C24       65.2340   22.8360   14.2880 C.3   400  5FP400      0.0005
      5  C21       65.5420   23.7580   11.6000 C.2   400  5FP400      0.2418
      6  O21       64.3920   24.1680   11.4120 O.2   400  5FP400     -0.2733
      7  N20       66.1140   22.7240   10.7570 N.am  400  5FP400     -0.1978
      8  C19       65.3270   22.1140    9.7000 C.3   400  5FP400      0.1726
      9  C18       65.1150   20.6450   10.0750 C.2   400  5FP400      0.2616
     10  O18       66.0770   19.8900   10.2320 O.2   400  5FP400     -0.2715
     11  C36       65.9390   22.3280    8.3070 C.3   400  5FP400      0.0290
     12  C37       67.0260   23.4130    8.2650 C.3   400  5FP400      0.0023
     13  C38       64.8480   22.6210    7.2790 C.3   400  5FP400      0.0023
     14  N17       63.7920   20.2120   10.4830 N.am  400  5FP400     -0.1963
     15  C16       63.5500   18.8840   11.0280 C.3   400  5FP400      0.1727
     16  C15       62.4400   18.2750   10.1660 C.2   400  5FP400      0.2615
     17  O15       61.2970   18.7490   10.2140 O.2   400  5FP400     -0.2715
     18  C33       63.2270   18.8720   12.5350 C.3   400  5FP400      0.0290
     19  C34       64.4050   19.3150   13.3950 C.3   400  5FP400      0.0023
     20  C35       62.7750   17.4970   13.0150 C.3   400  5FP400      0.0023
     21  N14       62.7970   17.3070    9.1360 N.am  400  5FP400     -0.1943
     22  C9        59.5820   14.7820    9.2000 C.2   400  5FP400      0.2444
     23  F1        61.5460   18.8410    6.8860 F     400  5FP400     -0.1681
     24  C10       61.1030   14.6720    9.2770 C.3   400  5FP400      0.1217
     25  F2        61.1530   16.9710    5.9060 F     400  5FP400     -0.1681
     26  O9        59.0330   15.8050    9.6280 O.2   400  5FP400     -0.2732
     27  C11       61.7860   15.3320    8.0720 C.3   400  5FP400      0.1894
     28  F3        63.1790   17.5990    6.3350 F     400  5FP400     -0.1681
     29  O11       63.1200   14.8690    7.9530 O.3   400  5FP400     -0.2205
     30  C12       61.8020   16.8670    8.1600 C.3   400  5FP400      0.2203
     31  C13       61.9330   17.5790    6.7880 C.3   400  5FP400      0.4180
     32  N8        58.8090   13.6130    8.7900 N.am  400  5FP400     -0.1977
     33  C7        57.3480   13.5480    8.8340 C.3   400  5FP400      0.1728
     34  C6        56.7970   13.3070   10.2500 C.2   400  5FP400      0.2615
     35  O6        57.4330   12.7050   11.1120 O.2   400  5FP400     -0.2715
     36  C29       56.8100   12.5520    7.8080 C.3   400  5FP400      0.0334
     37  N5        55.4750   13.8210   10.5390 N.am  400  5FP400     -0.1943
     38  C1        52.7420   12.3420    9.3740 C.2   400  5FP400      0.3675
     39  F4        54.0040   15.3640   13.3960 F     400  5FP400     -0.1681
     40  O2        53.6110   12.3240    8.4640 O.co2 400  5FP400     -0.2456
     41  C2        53.1880   12.0430   10.8030 C.3   400  5FP400      0.1489
     42  F5        56.1370   15.2110   13.0610 F     400  5FP400     -0.1681
     43  O1        51.5270   12.5900    9.1400 O.co2 400  5FP400     -0.2456
     44  C3        53.3500   13.3040   11.6790 C.3   400  5FP400      0.1915
     45  F6        54.8730   16.1260   11.5890 F     400  5FP400     -0.1681
     46  O3        52.5160   14.3870   11.2360 O.3   400  5FP400     -0.2204
     47  C4        54.8140   13.7590   11.8310 C.3   400  5FP400      0.2204
     48  C25       54.9490   15.1490   12.4880 C.3   400  5FP400      0.4180
@<TRIPOS>BOND
     1    25    31    1
     2    28    31    1
     3    31    23    1
     4    31    30    1
     5    13    11    1
     6    36    33    1
     7    29    27    1
     8    27    30    1
     9    27    24    1
    10    30    21    1
    11    12    11    1
    12    11     8    1
    13    40    38   ar
    14    32    33    1
    15    32    22   am
    16    33    34    1
    17    21    16   am
    18    43    38   ar
    19    22    24    1
    20    22    26    2
    21    38    41    1
    22     8     9    1
    23     8     7    1
    24     9    10    2
    25     9    14   am
    26    16    17    2
    27    16    15    1
    28    34    37   am
    29    34    35    2
    30    14    15    1
    31    37    47    1
    32     7     5   am
    33    41    44    1
    34    15    18    1
    35    46    44    1
    36     6     5    2
    37    45    48    1
    38     5     1    1
    39    44    47    1
    40    47    48    1
    41    48    42    1
    42    48    39    1
    43    18    20    1
    44    18    19    1
    45     1     2    1
    46     3     2    1
    47     2     4    1
