@<TRIPOS>MOLECULE
1xe8_ADE_A_1.pdb
 10 11 0 0 0
SMALL
GASTEIGER

@<TRIPOS>ATOM
      1  N9       186.3010  151.6460   13.0920 N.2   500  ADE500     -0.1914
      2  C8       185.6360  150.4550   13.2340 C.3   500  ADE500      0.2618
      3  N7       185.6220  149.7220   12.1440 N.2   500  ADE500     -0.2267
      4  C5       186.3240  150.4850   11.2210 C.2   500  ADE500      0.2303
      5  C6       186.6560  150.2700    9.8650 C.2   500  ADE500      0.4393
      6  N6       186.2870  149.1870    9.1720 N.pl3 500  ADE500      0.2185
      7  N1       187.3810  151.2260    9.2350 N.2   500  ADE500     -0.0265
      8  C2       187.7280  152.3220    9.9240 C.3   500  ADE500      0.4008
      9  N3       187.4620  152.6430   11.1910 N.2   500  ADE500     -0.1640
     10  C4       186.7520  151.6710   11.7920 C.1   500  ADE500      0.0579
@<TRIPOS>BOND
     1     6     5    1
     2     7     5    2
     3     7     8    1
     4     5     4    1
     5     8     9    1
     6     9    10    2
     7     4    10    1
     8     4     3    2
     9    10     1    2
    10     3     2    1
    11     1     2    1
