@<TRIPOS>MOLECULE
1xef_ATP_A_1.pdb
 31 33 0 0 0
SMALL
GASTEIGER

@<TRIPOS>ATOM
      1  PG        -2.1730    5.7660   -4.2940 P.3   800  ATP800      0.5373
      2  O1G       -2.7300    6.7510   -3.3040 O.3   800  ATP800     -0.1143
      3  O2G       -0.6770    5.8080   -4.4520 O.2   800  ATP800     -0.2221
      4  O3G       -2.7550    4.3800   -4.1600 O.3   800  ATP800     -0.1143
      5  PB        -2.4640    5.6220   -7.1230 P.3   800  ATP800      0.2277
      6  O1B       -1.1080    6.0470   -7.6310 O.2   800  ATP800     -0.5168
      7  O2B       -2.7960    4.1530   -7.0200 O.3   800  ATP800     -0.4368
      8  O3B       -2.7260    6.3250   -5.6980 O.3   800  ATP800     -0.2258
      9  PA        -4.8730    5.7020   -8.6650 P.3   800  ATP800      0.2189
     10  O1A       -5.6170    4.9050   -7.6240 O.3   800  ATP800     -0.4371
     11  O2A       -4.4680    5.0290   -9.9490 O.2   800  ATP800     -0.5170
     12  O3A       -3.5690    6.3910   -8.0090 O.3   800  ATP800     -0.2700
     13  O5'       -5.7420    7.0060   -9.0390 O.3   800  ATP800     -0.3112
     14  C5'       -5.2080    8.0080   -9.9090 C.3   800  ATP800      0.1813
     15  C4'       -6.2380    9.1020  -10.1870 C.3   800  ATP800      0.1821
     16  O4'       -7.4880    8.5200  -10.5760 O.3   800  ATP800     -0.3135
     17  C3'       -6.5160    9.9560   -8.9600 C.3   800  ATP800      0.2184
     18  O3'       -6.6500   11.3190   -9.3730 O.3   800  ATP800     -0.2174
     19  C2'       -7.8310    9.4180   -8.4260 C.3   800  ATP800      0.2570
     20  O2'       -8.5980   10.4270   -7.7660 O.3   800  ATP800     -0.2130
     21  C1'       -8.5310    8.9220   -9.6800 C.3   800  ATP800      0.3186
     22  N9        -9.4380    7.7760   -9.4300 N.pl3 800  ATP800     -0.1439
     23  C8        -9.1300    6.6140   -8.8220 C.3   800  ATP800      0.3377
     24  N7       -10.2060    5.7880   -8.7760 N.2   800  ATP800     -0.2095
     25  C5       -11.2290    6.4240   -9.3740 C.2   800  ATP800      0.2526
     26  C6       -12.6520    6.1260   -9.6770 C.2   800  ATP800      0.4393
     27  N6       -13.2100    4.9470   -9.3170 N.pl3 800  ATP800      0.2180
     28  N1       -13.3760    7.0730  -10.3200 N.2   800  ATP800      0.0021
     29  C2       -12.8380    8.2550  -10.6850 C.3   800  ATP800      0.5254
     30  N3       -11.5560    8.5900  -10.4440 N.2   800  ATP800     -0.0055
     31  C4       -10.7170    7.7340   -9.8030 C.2   800  ATP800      0.3518
@<TRIPOS>BOND
     1    29    30    1
     2    29    28    1
     3    16    15    1
     4    16    21    1
     5    30    31    2
     6    28    26    2
     7    15    14    1
     8    15    17    1
     9    11     9    2
    10    14    13    1
    11    31    22    1
    12    31    25    1
    13    21    22    1
    14    21    19    1
    15    26    25    1
    16    26    27    1
    17    22    23    1
    18    25    24    2
    19    18    17    1
    20    13     9    1
    21    17    19    1
    22    23    24    1
    23     9    12    1
    24     9    10    1
    25    19    20    1
    26    12     5    1
    27     6     5    2
    28     5     7    1
    29     5     8    1
    30     8     1    1
    31     3     1    2
    32     1     4    1
    33     1     2    1
