@<TRIPOS>MOLECULE
1xel_NAD_A_1.pdb
 44 48 0 0 0
SMALL
GASTEIGER

@<TRIPOS>ATOM
      1  PA        31.0420    4.9120   37.7170 P.3   340  NAD340      0.2189
      2  O1A       31.4240    6.0350   36.8510 O.2   340  NAD340     -0.5170
      3  O2A       31.2500    5.1750   39.1780 O.3   340  NAD340     -0.4371
      4  O5B       31.7990    3.5360   37.3630 O.3   340  NAD340     -0.3112
      5  C5B       32.3190    3.3750   36.0240 C.3   340  NAD340      0.1813
      6  C4B       33.7830    2.9720   36.1380 C.3   340  NAD340      0.1821
      7  O4B       34.1990    2.7100   34.7670 O.3   340  NAD340     -0.3135
      8  C3B       34.6710    4.1220   36.6010 C.3   340  NAD340      0.2184
      9  O3B       35.4660    3.7320   37.6990 O.3   340  NAD340     -0.2174
     10  C2B       35.4550    4.4820   35.3330 C.3   340  NAD340      0.2570
     11  O2B       36.7690    5.0100   35.5940 O.3   340  NAD340     -0.2130
     12  C1B       35.4850    3.1810   34.5850 C.3   340  NAD340      0.3186
     13  N9A       35.6100    3.3610   33.1190 N.pl3 340  NAD340     -0.1439
     14  C8A       34.9150    4.1910   32.2930 C.3   340  NAD340      0.3377
     15  N7A       35.2080    4.0350   31.0100 N.2   340  NAD340     -0.2095
     16  C5A       36.1570    3.0270   31.0060 C.2   340  NAD340      0.2526
     17  C6A       36.8360    2.3830   29.9380 C.2   340  NAD340      0.4393
     18  N6A       36.7090    2.7020   28.6480 N.pl3 340  NAD340      0.2180
     19  N1A       37.7850    1.4380   30.2670 N.2   340  NAD340      0.0021
     20  C2A       37.9560    1.1570   31.6130 C.3   340  NAD340      0.5254
     21  N3A       37.3420    1.6760   32.6780 N.2   340  NAD340     -0.0055
     22  C4A       36.4290    2.6120   32.3000 C.2   340  NAD340      0.3518
     23  O3        29.5460    4.5930   37.4550 O.3   340  NAD340     -0.2703
     24  PN        28.5160    3.5740   38.1770 P.3   340  NAD340      0.2189
     25  O1N       27.5120    4.4470   38.8330 O.2   340  NAD340     -0.5170
     26  O2N       29.2610    2.6820   39.0780 O.3   340  NAD340     -0.4371
     27  O5D       27.9540    2.7700   36.9100 O.3   340  NAD340     -0.3112
     28  C5D       28.4350    1.4490   36.7020 C.3   340  NAD340      0.1813
     29  C4D       27.7990    0.9680   35.4440 C.3   340  NAD340      0.1799
     30  O4D       26.3690    0.8940   35.7160 O.3   340  NAD340     -0.3327
     31  C3D       27.9340    1.8610   34.1760 C.3   340  NAD340      0.2158
     32  O3D       27.8790    1.0590   33.0090 O.3   340  NAD340     -0.2175
     33  C2D       26.6310    2.6790   34.1980 C.3   340  NAD340      0.2309
     34  O2D       26.2830    3.1260   32.8750 O.3   340  NAD340     -0.2158
     35  C1D       25.6720    1.6190   34.7280 C.3   340  NAD340      0.2261
     36  N1N       24.4970    2.2130   35.3140 N.pl3 340  NAD340     -0.2828
     37  C2N       24.5660    3.0280   36.4650 C.3   340  NAD340      0.1025
     38  C3N       23.4220    3.8670   36.8370 C.3   340  NAD340      0.1040
     39  C7N       23.5950    4.8200   37.9400 C.2   340  NAD340      0.2623
     40  O7N       22.6430    5.5970   38.1840 O.2   340  NAD340     -0.2716
     41  N7N       24.7150    4.8860   38.6660 N.am  340  NAD340     -0.0877
     42  C4N       22.0380    3.3830   36.4220 C.3   340  NAD340      0.0383
     43  C5N       22.0680    2.5250   35.1890 C.2   340  NAD340     -0.0098
     44  C6N       23.2020    1.9470   34.7240 C.2   340  NAD340      0.0584
@<TRIPOS>BOND
     1    18    17    1
     2    17    19    2
     3    17    16    1
     4    19    20    1
     5    16    15    2
     6    16    22    1
     7    15    14    1
     8    20    21    1
     9    14    13    1
    10    22    21    2
    11    22    13    1
    12    34    33    1
    13    32    31    1
    14    13    12    1
    15    31    33    1
    16    31    29    1
    17    33    35    1
    18    12     7    1
    19    12    10    1
    20    44    43    2
    21    44    36    1
    22    35    36    1
    23    35    30    1
    24     7     6    1
    25    43    42    1
    26    36    37    1
    27    10    11    1
    28    10     8    1
    29    29    30    1
    30    29    28    1
    31     5     6    1
    32     5     4    1
    33     6     8    1
    34    42    38    1
    35    37    38    1
    36     8     9    1
    37    28    27    1
    38    38    39    1
    39     2     1    2
    40    27    24    1
    41     4     1    1
    42    23     1    1
    43    23    24    1
    44     1     3    1
    45    39    40    2
    46    39    41   am
    47    24    25    2
    48    24    26    1
