@<TRIPOS>MOLECULE
1xel_UPG_A_1.pdb
 36 38 0 0 0
SMALL
GASTEIGER

@<TRIPOS>ATOM
      1  N1        15.9660   15.2790   39.8140 N.am  341  UPG341     -0.1766
      2  C2        15.6800   16.5580   40.2480 C.1   341  UPG341      0.2845
      3  N3        16.7960   17.3340   40.4790 N.2   341  UPG341     -0.2452
      4  C4        18.1370   16.9120   40.3160 C.1   341  UPG341      0.2182
      5  C5        18.3430   15.5560   39.8580 C.2   341  UPG341      0.1242
      6  C6        17.2930   14.7960   39.6610 C.2   341  UPG341      0.0929
      7  O2        14.5480   16.9770   40.3860 O.2   341  UPG341     -0.1918
      8  O4        18.9850   17.7420   40.5430 O.2   341  UPG341     -0.2085
      9  C1C       14.8060   14.3880   39.5590 C.3   341  UPG341      0.2401
     10  C2C       14.6770   13.9370   38.0890 C.3   341  UPG341      0.2319
     11  O2C       13.8580   14.9280   37.3830 O.3   341  UPG341     -0.2157
     12  C3C       13.9520   12.5470   38.2380 C.3   341  UPG341      0.2158
     13  C4C       14.5760   11.9760   39.5140 C.3   341  UPG341      0.1799
     14  O4C       14.9830   13.1710   40.2830 O.3   341  UPG341     -0.3320
     15  O3C       12.5130   12.6800   38.4050 O.3   341  UPG341     -0.2175
     16  C5C       15.7810   11.0990   39.3860 C.3   341  UPG341      0.1813
     17  O5C       16.7080   11.8360   38.5220 O.3   341  UPG341     -0.3112
     18  PA        18.1680   11.2400   38.3770 P.3   341  UPG341      0.2189
     19  O1A       18.9250   12.1070   37.4570 O.2   341  UPG341     -0.5170
     20  O2A       18.8300   10.9260   39.6480 O.3   341  UPG341     -0.4371
     21  O3A       18.0740    9.7800   37.6690 O.3   341  UPG341     -0.2703
     22  PB        17.3740    9.2960   36.3360 P.3   341  UPG341      0.2208
     23  O1B       17.2230   10.4360   35.3250 O.2   341  UPG341     -0.5170
     24  O2B       16.0500    8.5780   36.5810 O.3   341  UPG341     -0.4371
     25  O3B       18.4790    8.2890   35.7100 O.3   341  UPG341     -0.2857
     26  C1'       19.2080    7.3040   36.4590 C.3   341  UPG341      0.2742
     27  C2'       20.6720    7.1570   35.9210 C.3   341  UPG341      0.2409
     28  C3'       20.7210    6.5470   34.4630 C.3   341  UPG341      0.2198
     29  C4'       19.7330    5.3700   34.2350 C.3   341  UPG341      0.2144
     30  C5'       18.3460    5.5830   34.9310 C.3   341  UPG341      0.1835
     31  C6'       17.5030    4.2770   35.0170 C.3   341  UPG341      0.2142
     32  O2'       21.3820    8.4350   35.8970 O.3   341  UPG341     -0.2149
     33  O3'       22.1000    6.0840   34.1050 O.3   341  UPG341     -0.2174
     34  O4'       19.5150    5.1790   32.8260 O.3   341  UPG341     -0.2176
     35  O5'       18.5080    6.0410   36.2900 O.3   341  UPG341     -0.3254
     36  O6'       16.2480    4.4940   35.7910 O.3   341  UPG341     -0.2176
@<TRIPOS>BOND
     1    34    29    1
     2    33    28    1
     3    29    28    1
     4    29    30    1
     5    28    27    1
     6    30    31    1
     7    30    35    1
     8    31    36    1
     9    23    22    2
    10    25    22    1
    11    25    26    1
    12    32    27    1
    13    27    26    1
    14    35    26    1
    15    22    24    1
    16    22    21    1
    17    11    10    1
    18    19    18    2
    19    21    18    1
    20    10    12    1
    21    10     9    1
    22    12    15    1
    23    12    13    1
    24    18    17    1
    25    18    20    1
    26    17    16    1
    27    16    13    1
    28    13    14    1
    29     9     1    1
    30     9    14    1
    31     6     1    1
    32     6     5    2
    33     1     2   am
    34     5     4    1
    35     2     7    2
    36     2     3    2
    37     4     3    2
    38     4     8    2
