@<TRIPOS>MOLECULE
1xes_3IO_A_1.pdb
 15 16 0 0 0
SMALL
GASTEIGER

@<TRIPOS>ATOM
      1  CAO       30.4630   49.7460  100.0060 C.2   2000  3IO2000     0.0118
      2  CAG       29.1730   49.6720   99.4850 C.2   2000  3IO2000     0.0006
      3  CAE       28.3510   48.6000   99.8190 C.2   2000  3IO2000    -0.0042
      4  CAD       28.8210   47.6030  100.6700 C.2   2000  3IO2000    -0.0198
      5  CAF       30.1100   47.6760  101.1900 C.3   2000  3IO2000     0.0717
      6  CAN       30.9300   48.7510  100.8570 C.2   2000  3IO2000     0.0631
      7  NAJ       32.1730   49.0760  101.2050 N.2   2000  3IO2000    -0.2481
      8  CAH       32.5080   50.2220  100.6160 C.2   2000  3IO2000     0.0946
      9  CAM       31.4970   50.6640   99.8710 C.2   2000  3IO2000     0.0061
     10  CAI       31.5380   51.8800   98.9420 C.3   2000  3IO2000     0.1041
     11  CAL       30.5500   52.9780   99.3480 C.2   2000  3IO2000     0.2564
     12  OAB       29.4840   52.7150   99.9030 O.2   2000  3IO2000    -0.2839
     13  CAK       30.9190   54.4400   99.0830 C.2   2000  3IO2000     0.4222
     14  OAC       32.1320   54.7420   99.0410 O.co2 2000  3IO2000    -0.2373
     15  OAA       29.9860   55.2630   98.9580 O.co2 2000  3IO2000    -0.2373
@<TRIPOS>BOND
     1    10    11    1
     2    10     9    1
     3    15    13   ar
     4    14    13   ar
     5    13    11    1
     6    11    12    2
     7     2     3    1
     8     2     1    2
     9     3     4    2
    10     9     1    1
    11     9     8    2
    12     1     6    1
    13     8     7    1
    14     4     5    1
    15     6     5    1
    16     6     7    2
