@<TRIPOS>MOLECULE
1xet_MCA_D_1.pdb
 48 50 0 0 0
SMALL
GASTEIGER

@<TRIPOS>ATOM
      1  C8        19.7200   64.9840   69.8480 C.3   4001  MCA4001     0.3377
      2  N9        19.9100   64.7800   71.1500 N.pl3 4001  MCA4001    -0.1439
      3  C4        21.0100   64.0450   71.2920 C.2   4001  MCA4001     0.3518
      4  C5        21.5010   63.7980   70.0190 C.2   4001  MCA4001     0.2526
      5  N7        20.6850   64.3850   69.1520 N.2   4001  MCA4001    -0.2095
      6  N3        21.6560   63.5510   72.3560 N.2   4001  MCA4001    -0.0055
      7  C2        22.7530   62.8310   72.1980 C.3   4001  MCA4001     0.5254
      8  N1        23.2500   62.5730   71.0010 N.2   4001  MCA4001     0.0021
      9  C6        22.6590   63.0380   69.8920 C.2   4001  MCA4001     0.4393
     10  N6        23.1750   62.7880   68.6920 N.pl3 4001  MCA4001     0.2180
     11  C1'       19.0500   65.2720   72.2490 C.3   4001  MCA4001     0.3185
     12  C2'       19.1620   66.7870   72.4110 C.3   4001  MCA4001     0.2543
     13  O2'       20.3750   67.1100   73.0970 O.3   4001  MCA4001    -0.2131
     14  C3'       17.9750   66.9980   73.3510 C.3   4001  MCA4001     0.1928
     15  O3'       18.3640   66.7160   74.6980 O.3   4001  MCA4001    -0.2673
     16  C4'       16.9720   65.9440   72.8730 C.3   4001  MCA4001     0.1795
     17  O4'       17.6650   65.1410   71.9010 O.3   4001  MCA4001    -0.3136
     18  C5'       15.7820   66.6420   72.2140 C.3   4001  MCA4001     0.1812
     19  O5'       16.2350   67.5410   71.2000 O.3   4001  MCA4001    -0.3112
     20  P1        15.2780   68.7300   70.6910 P.3   4001  MCA4001     0.2189
     21  O11       16.1140   69.7850   70.0760 O.2   4001  MCA4001    -0.5170
     22  O12       14.3530   69.1070   71.7830 O.3   4001  MCA4001    -0.4371
     23  O6        14.4030   68.0310   69.5350 O.3   4001  MCA4001    -0.2703
     24  P2        15.0500   67.6660   68.1070 P.3   4001  MCA4001     0.2188
     25  O21       16.3910   68.2800   67.9890 O.3   4001  MCA4001    -0.4371
     26  O22       14.0520   67.9490   67.0520 O.2   4001  MCA4001    -0.5170
     27  O7        15.2770   66.0790   68.2430 O.3   4001  MCA4001    -0.3138
     28  CPB       14.5170   65.1590   67.4570 C.3   4001  MCA4001     0.1519
     29  CPA       15.4530   64.2440   66.6660 C.3   4001  MCA4001     0.0646
     30  CP7       16.3620   65.0800   65.7620 C.3   4001  MCA4001     0.2315
     31  CP9       14.6020   63.3010   65.8140 C.3   4001  MCA4001     0.0056
     32  CP8       16.3180   63.4270   67.6290 C.3   4001  MCA4001     0.0056
     33  OP3       17.2110   65.9090   66.5610 O.3   4001  MCA4001    -0.2131
     34  CP6       17.2390   64.1200   64.9570 C.2   4001  MCA4001     0.2758
     35  OP2       16.7410   63.4210   64.0760 O.2   4001  MCA4001    -0.2702
     36  NP2       18.5350   64.1680   65.2530 N.am  4001  MCA4001    -0.1800
     37  CP5       19.4210   63.3750   64.6770 C.2   4001  MCA4001     0.0720
     38  CP4       19.0560   62.4220   63.7330 C.3   4001  MCA4001     0.1309
     39  CP3       20.0300   61.6090   63.1640 C.2   4001  MCA4001     0.2473
     40  OP1       21.3410   61.8250   63.4530 O.2   4001  MCA4001    -0.2729
     41  NP1       19.6850   60.6370   62.3240 N.am  4001  MCA4001    -0.2041
     42  CP2       20.8920   59.9980   61.7780 C.3   4001  MCA4001     0.1276
     43  CP1       21.0780   58.7480   62.3560 C.3   4001  MCA4001     0.0920
     44  P3        17.7080   67.5650   75.8990 P.3   4001  MCA4001     0.5327
     45  O31       18.3910   69.0220   75.8550 O.3   4001  MCA4001    -0.1145
     46  O32       17.8730   66.8920   77.2080 O.3   4001  MCA4001    -0.1145
     47  O33       16.1630   67.7550   75.4850 O.2   4001  MCA4001    -0.2224
     48  S         22.4880   57.9040   62.0360 S.3   4001  MCA4001    -0.0802
@<TRIPOS>BOND
     1    42    41    1
     2    42    43    1
     3    48    43    1
     4    41    39   am
     5    39    40    2
     6    39    38    1
     7    38    37    1
     8    35    34    2
     9    37    36    2
    10    34    36    1
    11    34    30    1
    12    30    33    1
    13    30    29    1
    14    31    29    1
    15    29    28    1
    16    29    32    1
    17    26    24    2
    18    28    27    1
    19    25    24    1
    20    24    27    1
    21    24    23    1
    22    10     9    1
    23     5     1    1
    24     5     4    2
    25    23    20    1
    26     1     2    1
    27     9     4    1
    28     9     8    2
    29     4     3    1
    30    21    20    2
    31    20    19    1
    32    20    22    1
    33     8     7    1
    34     2     3    1
    35     2    11    1
    36    19    18    1
    37     3     6    2
    38    17    11    1
    39    17    16    1
    40     7     6    1
    41    18    16    1
    42    11    12    1
    43    12    13    1
    44    12    14    1
    45    16    14    1
    46    14    15    1
    47    15    44    1
    48    47    44    2
    49    45    44    1
    50    44    46    1
