@<TRIPOS>MOLECULE
1xet_3IO_B_1.pdb
 15 16 0 0 0
SMALL
GASTEIGER

@<TRIPOS>ATOM
      1  CAO       17.5060   36.3300  121.4210 C.2   2000  3IO2000     0.0118
      2  CAG       18.8550   36.0520  121.6140 C.2   2000  3IO2000     0.0006
      3  CAE       19.7120   36.0040  120.5180 C.2   2000  3IO2000    -0.0042
      4  CAD       19.2160   36.2300  119.2370 C.2   2000  3IO2000    -0.0198
      5  CAF       17.8660   36.5050  119.0460 C.3   2000  3IO2000     0.0717
      6  CAN       17.0080   36.5590  120.1430 C.2   2000  3IO2000     0.0631
      7  NAJ       15.7110   36.8240  120.2580 N.2   2000  3IO2000    -0.2481
      8  CAH       15.3650   36.7750  121.5450 C.2   2000  3IO2000     0.0946
      9  CAM       16.4270   36.4730  122.2870 C.2   2000  3IO2000     0.0061
     10  CAI       16.4270   36.2260  123.7980 C.3   2000  3IO2000     0.1041
     11  CAL       17.1470   37.3360  124.5690 C.2   2000  3IO2000     0.2564
     12  OAB       18.1240   37.9180  124.0970 O.2   2000  3IO2000    -0.2839
     13  CAK       16.6090   37.7470  125.9410 C.2   2000  3IO2000     0.4222
     14  OAC       17.4270   38.1660  126.7890 O.co2 2000  3IO2000    -0.2373
     15  OAA       15.3850   37.6050  126.1520 O.co2 2000  3IO2000    -0.2373
@<TRIPOS>BOND
     1     5     4    1
     2     5     6    1
     3     4     3    2
     4     6     7    2
     5     6     1    1
     6     7     8    1
     7     3     2    1
     8     1     2    2
     9     1     9    1
    10     8     9    2
    11     9    10    1
    12    10    11    1
    13    12    11    2
    14    11    13    1
    15    13    15   ar
    16    13    14   ar
