@<TRIPOS>MOLECULE
1xex_ATP_A_1.pdb
 31 33 0 0 0
SMALL
GASTEIGER

@<TRIPOS>ATOM
      1  PG        77.1410  -62.2750   -5.9010 P.3   1001  ATP1001     0.5373
      2  O1G       76.7850  -63.1770   -4.8230 O.3   1001  ATP1001    -0.1143
      3  O2G       76.1370  -62.1280   -6.9480 O.2   1001  ATP1001    -0.2221
      4  O3G       77.6150  -60.9710   -5.3690 O.3   1001  ATP1001    -0.1143
      5  PB        79.7820  -63.5240   -6.1390 P.3   1001  ATP1001     0.2277
      6  O1B       79.5640  -64.0820   -4.7540 O.3   1001  ATP1001    -0.4368
      7  O2B       80.8030  -62.4660   -6.2750 O.2   1001  ATP1001    -0.5168
      8  O3B       78.3560  -62.9950   -6.7000 O.3   1001  ATP1001    -0.2258
      9  PA        80.5250  -66.2380   -6.7880 P.3   1001  ATP1001     0.2189
     10  O1A       81.7620  -66.1860   -6.0010 O.3   1001  ATP1001    -0.4371
     11  O2A       79.3870  -66.9860   -6.2620 O.2   1001  ATP1001    -0.5170
     12  O3A       80.1550  -64.7320   -7.0680 O.3   1001  ATP1001    -0.2700
     13  O5'       80.8940  -66.8010   -8.1890 O.3   1001  ATP1001    -0.3112
     14  C5'       79.9940  -67.0690   -9.2450 C.3   1001  ATP1001     0.1813
     15  C4'       80.7810  -67.2450  -10.4960 C.3   1001  ATP1001     0.1821
     16  O4'       81.7270  -68.3470  -10.3120 O.3   1001  ATP1001    -0.3135
     17  C3'       79.9260  -67.5840  -11.7130 C.3   1001  ATP1001     0.2184
     18  O3'       80.1720  -66.5630  -12.6960 O.3   1001  ATP1001    -0.2174
     19  C2'       80.4480  -68.9290  -12.1040 C.3   1001  ATP1001     0.2570
     20  O2'       80.4780  -69.1010  -13.4980 O.3   1001  ATP1001    -0.2130
     21  C1'       81.8850  -69.0130  -11.5570 C.3   1001  ATP1001     0.3186
     22  N9        82.3090  -70.4310  -11.3490 N.pl3 1001  ATP1001    -0.1439
     23  C8        81.8580  -71.3470  -10.4250 C.3   1001  ATP1001     0.3377
     24  N7        82.4100  -72.5220  -10.4920 N.2   1001  ATP1001    -0.2095
     25  C5        83.2910  -72.3780  -11.5420 C.2   1001  ATP1001     0.2526
     26  C6        84.2140  -73.2840  -12.1440 C.2   1001  ATP1001     0.4393
     27  N6        84.3250  -74.5340  -11.7060 N.pl3 1001  ATP1001     0.2180
     28  N1        84.9720  -72.8500  -13.1820 N.2   1001  ATP1001     0.0021
     29  C2        84.8370  -71.5820  -13.6090 C.3   1001  ATP1001     0.5254
     30  N3        84.0010  -70.6260  -13.1320 N.2   1001  ATP1001    -0.0055
     31  C4        83.2510  -71.1060  -12.0750 C.2   1001  ATP1001     0.3518
@<TRIPOS>BOND
     1    29    28    1
     2    29    30    1
     3    20    19    1
     4    28    26    2
     5    30    31    2
     6    18    17    1
     7    26    27    1
     8    26    25    1
     9    19    17    1
    10    19    21    1
    11    31    25    1
    12    31    22    1
    13    17    15    1
    14    21    22    1
    15    21    16    1
    16    25    24    2
    17    22    23    1
    18    15    16    1
    19    15    14    1
    20    24    23    1
    21    14    13    1
    22    13     9    1
    23    12     9    1
    24    12     5    1
    25     3     1    2
    26     9    11    2
    27     9    10    1
    28     8     5    1
    29     8     1    1
    30     7     5    2
    31     5     6    1
    32     1     4    1
    33     1     2    1
