@<TRIPOS>MOLECULE
1xey_PLP_A_1.pdb
 15 15 0 0 0
SMALL
GASTEIGER

@<TRIPOS>ATOM
      1  N1        30.0000   45.2070   -2.0480 N.2   500  PLP500     -0.2458
      2  C2        28.9070   44.8330   -1.3010 C.2   500  PLP500      0.0942
      3  C2A       29.1190   44.0800    0.0010 C.3   500  PLP500      0.0552
      4  C3        27.6220   45.1640   -1.7470 C.2   500  PLP500      0.1899
      5  O3        26.6240   44.8160   -1.0770 O.2   500  PLP500     -0.2898
      6  C4        27.4680   45.8710   -2.9420 C.3   500  PLP500      0.0852
      7  C4A       26.1030   46.2870   -3.4590 C.3   500  PLP500      0.0127
      8  C5        28.6170   46.2170   -3.7060 C.2   500  PLP500      0.0118
      9  C6        29.8910   45.8890   -3.2500 C.2   500  PLP500      0.0929
     10  C5A       28.4560   46.9750   -4.9910 C.3   500  PLP500      0.1779
     11  O4P       28.0260   48.3550   -4.8290 O.3   500  PLP500     -0.2656
     12  P         27.1480   49.0910   -5.9180 P.3   500  PLP500      0.5329
     13  O1P       26.5530   50.1340   -5.0320 O.3   500  PLP500     -0.1145
     14  O2P       26.1800   48.0900   -6.4630 O.3   500  PLP500     -0.1145
     15  O3P       28.1360   49.5490   -6.9410 O.2   500  PLP500     -0.2224
@<TRIPOS>BOND
     1    15    12    2
     2    14    12    1
     3    12    13    1
     4    12    11    1
     5    10    11    1
     6    10     8    1
     7     8     9    2
     8     8     6    1
     9     7     6    1
    10     9     1    1
    11     6     4    1
    12     1     2    2
    13     4     2    1
    14     4     5    2
    15     2     3    1
