@<TRIPOS>MOLECULE
1xez_BOG_A_1.pdb
 20 20 0 0 0
SMALL
GASTEIGER

@<TRIPOS>ATOM
      1  C1        53.5150   87.3780   52.1410 C.3   999  BOG999      0.2695
      2  O1        53.6860   88.2730   53.2600 O.3   999  BOG999     -0.3286
      3  C2        52.0170   87.0320   51.9370 C.3   999  BOG999      0.2406
      4  O2        51.5130   86.4620   53.1430 O.3   999  BOG999     -0.2149
      5  C3        51.8950   86.0320   50.7400 C.3   999  BOG999      0.2198
      6  O3        50.5430   85.6700   50.5330 O.3   999  BOG999     -0.2174
      7  C4        52.4500   86.6990   49.4740 C.3   999  BOG999      0.2144
      8  O4        52.3540   85.8150   48.3540 O.3   999  BOG999     -0.2176
      9  C5        53.9410   87.1060   49.6980 C.3   999  BOG999      0.1835
     10  O5        54.0500   87.9830   50.8720 O.3   999  BOG999     -0.3256
     11  C6        54.5130   87.8130   48.4530 C.3   999  BOG999      0.2142
     12  O6        53.6840   88.9080   48.0230 O.3   999  BOG999     -0.2176
     13  C1'       55.0740   88.5750   53.5560 C.3   999  BOG999      0.1449
     14  C2'       55.7400   87.3370   54.1850 C.3   999  BOG999      0.0322
     15  C3'       56.4040   86.5500   53.0590 C.3   999  BOG999      0.0026
     16  C4'       57.1100   85.2390   53.4210 C.3   999  BOG999      0.0001
     17  C5'       57.7310   84.5400   52.1670 C.3   999  BOG999      0.0000
     18  C6'       57.0760   84.9590   50.8300 C.3   999  BOG999      0.0000
     19  C7'       57.6820   84.2910   49.6330 C.3   999  BOG999      0.0000
     20  C8'       56.9990   84.7500   48.3600 C.3   999  BOG999      0.0000
@<TRIPOS>BOND
     1    12    11    1
     2     8     7    1
     3    20    19    1
     4    11     9    1
     5     7     9    1
     6     7     5    1
     7    19    18    1
     8     9    10    1
     9     6     5    1
    10     5     3    1
    11    18    17    1
    12    10     1    1
    13     3     1    1
    14     3     4    1
    15     1     2    1
    16    17    16    1
    17    15    16    1
    18    15    14    1
    19     2    13    1
    20    13    14    1
