@<TRIPOS>MOLECULE
1xf0_NAP_A_1.pdb
 48 52 0 0 0
SMALL
GASTEIGER

@<TRIPOS>ATOM
      1  PA        15.4060   44.1090    4.9180 P.3   500  NAP500      0.2189
      2  O1A       16.7140   44.5410    5.5600 O.3   500  NAP500     -0.4371
      3  O2A       15.2910   43.8580    3.4770 O.2   500  NAP500     -0.5170
      4  O5B       14.3340   45.1330    5.3740 O.3   500  NAP500     -0.3112
      5  C5B       14.2120   45.7580    6.6420 C.3   500  NAP500      0.1813
      6  C4B       13.0190   46.6870    6.7510 C.3   500  NAP500      0.1820
      7  O4B       13.2870   47.7790    5.8520 O.3   500  NAP500     -0.3136
      8  C3B       11.7270   46.0840    6.2050 C.3   500  NAP500      0.2157
      9  O3B       11.0270   45.4850    7.3010 O.3   500  NAP500     -0.2175
     10  C2B       11.0220   47.2790    5.5850 C.3   500  NAP500      0.2314
     11  O2B        9.9130   47.7400    6.3980 O.3   500  NAP500     -0.2630
     12  C1B       12.0390   48.4300    5.5420 C.3   500  NAP500      0.3158
     13  N9A       12.1620   49.0940    4.2670 N.pl3 500  NAP500     -0.1439
     14  C8A       12.1210   48.5700    3.0070 C.3   500  NAP500      0.3377
     15  N7A       12.3040   49.5510    2.1100 N.2   500  NAP500     -0.2095
     16  C5A       12.4520   50.6690    2.8200 C.2   500  NAP500      0.2526
     17  C6A       12.6500   51.9410    2.3660 C.2   500  NAP500      0.4393
     18  N6A       12.7380   52.2360    1.0860 N.pl3 500  NAP500      0.2180
     19  N1A       12.7730   52.9660    3.2800 N.2   500  NAP500      0.0021
     20  C2A       12.6980   52.6780    4.5800 C.3   500  NAP500      0.5254
     21  N3A       12.4950   51.4450    5.0290 N.2   500  NAP500     -0.0055
     22  C4A       12.3670   50.4140    4.1490 C.2   500  NAP500      0.3518
     23  O3        14.7500   42.8120    5.5680 O.3   500  NAP500     -0.2703
     24  PN        15.0860   41.3280    5.8730 P.3   500  NAP500      0.2189
     25  O1N       16.0610   41.1480    6.9550 O.3   500  NAP500     -0.4371
     26  O2N       13.7590   40.7980    6.0110 O.2   500  NAP500     -0.5170
     27  O5D       15.7420   40.6370    4.5630 O.3   500  NAP500     -0.3112
     28  C5D       14.9960   40.7860    3.3470 C.3   500  NAP500      0.1813
     29  C4D       14.6800   39.3950    2.8390 C.3   500  NAP500      0.1799
     30  O4D       15.8680   38.6030    2.7860 O.3   500  NAP500     -0.3327
     31  C3D       13.7730   38.5510    3.7790 C.3   500  NAP500      0.2158
     32  O3D       12.3840   38.9170    3.5810 O.3   500  NAP500     -0.2175
     33  C2D       14.0530   37.1270    3.2130 C.3   500  NAP500      0.2309
     34  O2D       13.4320   36.9860    1.8940 O.3   500  NAP500     -0.2158
     35  C1D       15.5440   37.2210    3.0980 C.3   500  NAP500      0.2263
     36  N1N       16.2670   36.7550    4.2830 N.pl3 500  NAP500     -0.2787
     37  C2N       16.9760   35.5440    4.1870 C.3   500  NAP500      0.1244
     38  C3N       17.6700   35.0840    5.3100 C.2   500  NAP500      0.0544
     39  C7N       18.4590   33.7670    5.2530 C.2   500  NAP500      0.2818
     40  O7N       18.8170   33.2310    6.2990 O.2   500  NAP500     -0.2670
     41  N7N       18.7100   33.3590    4.0070 N.am  500  NAP500     -0.0839
     42  C4N       17.6380   35.8210    6.5230 C.2   500  NAP500      0.0033
     43  C5N       16.9210   37.0590    6.5930 C.2   500  NAP500      0.0157
     44  C6N       16.2450   37.5290    5.4760 C.2   500  NAP500      0.0633
     45  P2B        8.4300   47.9410    5.7090 P.3   500  NAP500      0.5328
     46  O1X        8.0360   46.5120    5.3840 O.3   500  NAP500     -0.1145
     47  O2X        7.5930   48.6640    6.6860 O.3   500  NAP500     -0.1145
     48  O3X        8.6690   48.7800    4.4790 O.2   500  NAP500     -0.2224
@<TRIPOS>BOND
     1    18    17    1
     2    34    33    1
     3    15    16    2
     4    15    14    1
     5    17    16    1
     6    17    19    2
     7    30    29    1
     8    30    35    1
     9    16    22    1
    10    29    28    1
    11    29    31    1
    12    14    13    1
    13    35    33    1
    14    35    36    1
    15    33    31    1
    16    19    20    1
    17    28    27    1
    18     3     1    2
    19    32    31    1
    20    41    39   am
    21    22    13    1
    22    22    21    2
    23    37    36    1
    24    37    38    1
    25    13    12    1
    26    36    44    1
    27    48    45    2
    28    27    24    1
    29    20    21    1
    30     1     4    1
    31     1     2    1
    32     1    23    1
    33    39    38    1
    34    39    40    2
    35    38    42    2
    36     4     5    1
    37    46    45    1
    38    44    43    2
    39    12    10    1
    40    12     7    1
    41    23    24    1
    42    10     8    1
    43    10    11    1
    44    45    11    1
    45    45    47    1
    46     7     6    1
    47    24    26    2
    48    24    25    1
    49     8     6    1
    50     8     9    1
    51    42    43    1
    52     5     6    1
