@<TRIPOS>MOLECULE
1xf0_ASD_A_1.pdb
 21 24 0 0 0
SMALL
GASTEIGER

@<TRIPOS>ATOM
      1  C1        15.5740   31.1860   11.8510 C.2   600  ASD600     -0.0197
      2  C10       16.6790   32.2150   12.3500 C.3   600  ASD600      0.0339
      3  C11       18.3590   31.5100   10.3470 C.3   600  ASD600      0.0010
      4  C12       19.8210   30.9920   10.3110 C.3   600  ASD600      0.0069
      5  C13       20.8010   32.2210   10.5740 C.3   600  ASD600      0.0515
      6  C14       20.7410   32.4930   11.9950 C.3   600  ASD600      0.0070
      7  C15       21.7480   33.5970   12.2850 C.3   600  ASD600      0.0082
      8  C16       22.9570   32.9620   11.5140 C.3   600  ASD600      0.0645
      9  C17       22.2930   32.0470   10.3910 C.2   600  ASD600      0.1498
     10  C18       20.3960   33.3920    9.6220 C.3   600  ASD600      0.0073
     11  C19       16.2450   33.5710   11.7360 C.3   600  ASD600      0.0084
     12  C2        14.5860   30.4990   12.8250 C.2   600  ASD600      0.0377
     13  C3        14.7600   30.8020   14.3020 C.2   600  ASD600      0.1948
     14  C4        15.8500   31.7100   14.7090 C.2   600  ASD600      0.0338
     15  C5        16.6920   32.3720   13.9140 C.2   600  ASD600     -0.0379
     16  C6        17.7350   33.3370   14.4970 C.3   600  ASD600      0.0224
     17  C7        19.1290   33.1250   13.9750 C.3   600  ASD600      0.0044
     18  C8        19.2510   32.9010   12.3960 C.3   600  ASD600      0.0013
     19  C9        18.1790   31.7660   11.9400 C.3   600  ASD600      0.0072
     20  O1        14.0430   30.2840   15.1380 O.2   600  ASD600     -0.2866
     21  O2        22.8710   31.3050    9.6060 O.2   600  ASD600     -0.2961
@<TRIPOS>BOND
     1    21     9    2
     2    10     5    1
     3     4     3    1
     4     4     5    1
     5     3    19    1
     6     9     5    1
     7     9     8    1
     8     5     6    1
     9     8     7    1
    10    11     2    1
    11     1     2    1
    12     1    12    2
    13    19     2    1
    14    19    18    1
    15     6     7    1
    16     6    18    1
    17     2    15    1
    18    18    17    1
    19    12    13    1
    20    15    16    1
    21    15    14    2
    22    17    16    1
    23    13    14    1
    24    13    20    2
