@<TRIPOS>MOLECULE
1xf2_NUC_T_1.pdb
 41 44 0 0 0
SMALL
GASTEIGER

@<TRIPOS>ATOM
      1  O5'       67.3160   85.4820   -9.0180 O.3     1  DT1        -0.2176
      2  C5'       68.1890   84.6470   -8.2000 C.3     1  DT1         0.2140
      3  C4'       69.6210   85.1710   -8.1400 C.3     1  DT1         0.1774
      4  O4'       70.2520   85.0520   -9.4420 O.3     1  DT1        -0.3339
      5  C3'       69.8210   86.6280   -7.7330 C.3     1  DT1         0.1557
      6  O3'       71.0110   86.7360   -6.9390 O.3     1  DT1        -0.3139
      7  C2'       69.9370   87.3520   -9.0680 C.3     1  DT1         0.0845
      8  C1'       70.7050   86.3170   -9.8740 C.3     1  DT1         0.2089
      9  N1        70.5090   86.2250  -11.3300 N.am    1  DT1        -0.1794
     10  C2        71.5980   86.3900  -12.1720 C.1     1  DT1         0.2844
     11  O2        72.7270   86.6610  -11.8400 O.2     1  DT1        -0.1918
     12  N3        71.3230   86.2660  -13.4910 N.2     1  DT1        -0.2455
     13  C4        70.1250   85.9310  -14.0530 C.1     1  DT1         0.2134
     14  O4        70.0610   85.8150  -15.2560 O.2     1  DT1        -0.2088
     15  C5        69.0150   85.7590  -13.1470 C.2     1  DT1         0.0891
     16  C7        67.6470   85.4130  -13.6650 C.3     1  DT1         0.0462
     17  C6        69.2600   85.9030  -11.8350 C.2     1  DT1         0.0877
     18  P         71.0450   87.7640   -5.6880 P.3     2  DT2         0.2141
     19  OP1       69.7450   87.7060   -4.9740 O.3     2  DT2        -0.4373
     20  OP2       71.4920   89.0790   -6.1640 O.2     2  DT2        -0.5172
     21  O5'       72.1700   87.1750   -4.7270 O.3     2  DT2        -0.3114
     22  C5'       71.9170   86.0140   -3.9560 C.3     2  DT2         0.1811
     23  C4'       73.1830   85.5160   -3.2630 C.3     2  DT2         0.1746
     24  O4'       74.1060   84.9430   -4.2320 O.3     2  DT2        -0.3340
     25  C3'       73.9940   86.5600   -2.4960 C.3     2  DT2         0.1600
     26  O3'       74.5330   85.9450   -1.3630 O.3     2  DT2        -0.2700
     27  C2'       75.1210   86.9410   -3.4510 C.3     2  DT2         0.0847
     28  C1'       75.3500   85.6250   -4.1870 C.3     2  DT2         0.2089
     29  N1        75.8230   85.7910   -5.5870 N.am    2  DT2        -0.1794
     30  C2        77.0960   85.3740   -5.9220 C.1     2  DT2         0.2844
     31  O2        77.8850   84.8830   -5.1350 O.2     2  DT2        -0.1918
     32  N3        77.4420   85.5580   -7.2410 N.2     2  DT2        -0.2455
     33  C4        76.6790   86.0980   -8.2440 C.1     2  DT2         0.2134
     34  O4        77.1240   86.2260   -9.3900 O.2     2  DT2        -0.2088
     35  C5        75.3570   86.5360   -7.8400 C.2     2  DT2         0.0891
     36  C7        74.4410   87.1420   -8.8690 C.3     2  DT2         0.0462
     37  C6        74.9850   86.3520   -6.5550 C.2     2  DT2         0.0877
     38  P         74.0750   86.3720    0.0960 P.3     3  DT3         0.5326
     39  OP1       72.5880   86.4480    0.0390 O.2     3  DT3        -0.2224
     40  OP2       74.9380   87.5270    0.4570 O.3     3  DT3        -0.1145
     41  O5'       74.4670   85.1170    1.0120 O.3     3  DT3        -0.1145
@<TRIPOS>BOND
     1    14    13    2
     2    13    12    2
     3    13    15    1
     4    16    15    1
     5    12    10    2
     6    15    17    2
     7    10    11    2
     8    10     9   am
     9    17     9    1
    10     9     8    1
    11     8     4    1
    12     8     7    1
    13     4     3    1
    14    34    33    2
    15     7     5    1
    16     1     2    1
    17    36    35    1
    18    33    35    1
    19    33    32    2
    20     2     3    1
    21     3     5    1
    22    35    37    2
    23     5     6    1
    24    32    30    2
    25     6    18    1
    26    37    29    1
    27    20    18    2
    28    30    29   am
    29    30    31    2
    30    18    19    1
    31    18    21    1
    32    29    28    1
    33    21    22    1
    34    24    28    1
    35    24    23    1
    36    28    27    1
    37    22    23    1
    38    27    25    1
    39    23    25    1
    40    25    26    1
    41    26    38    1
    42    39    38    2
    43    38    40    1
    44    38    41    1
