@<TRIPOS>MOLECULE
1xf6_DBV_A_1.pdb
 43 46 0 0 0
SMALL
GASTEIGER

@<TRIPOS>ATOM
      1  NA         1.1190   19.7430    6.0060 N.2   219  DBV219     -0.3375
      2  C1A        0.2760   18.6890    5.8450 C.1   219  DBV219      0.2000
      3  C2A        0.9430   17.4840    6.3180 C.2   219  DBV219      0.0710
      4  C3A        2.1960   17.8760    6.7570 C.2   219  DBV219      0.0125
      5  C4A        2.3050   19.3170    6.5810 C.2   219  DBV219      0.1254
      6  CMA        0.3090   16.1510    6.3140 C.3   219  DBV219      0.0445
      7  CBA        3.6900   17.2750    8.7420 C.3   219  DBV219      0.0051
      8  OA        -0.8560   18.7680    5.3320 O.2   219  DBV219     -0.2096
      9  CHA        3.3730   20.1250    6.8810 C.3   219  DBV219      0.1181
     10  CAA        3.2930   17.0000    7.2750 C.3   219  DBV219      0.0291
     11  NB         4.6320   22.1550    6.4210 N.2   219  DBV219     -0.4104
     12  C1B        3.4340   21.5550    6.7180 C.2   219  DBV219      0.1114
     13  C2B        2.4250   22.5550    6.8200 C.2   219  DBV219      0.0021
     14  C3B        3.0410   23.7620    6.5150 C.2   219  DBV219      0.0024
     15  C4B        4.4300   23.5190    6.2750 C.2   219  DBV219      0.1114
     16  CHB        5.3750   24.4910    6.0090 C.3   219  DBV219      0.1170
     17  CMB        1.0690   22.4150    7.3940 C.3   219  DBV219      0.0331
     18  CAB        2.3790   25.1030    6.4730 C.3   219  DBV219      0.0402
     19  CBB        1.5730   25.2820    5.1590 C.3   219  DBV219      0.1188
     20  CGB        2.4640   25.0530    3.9700 C.2   219  DBV219      0.3652
     21  O1B        3.3650   25.8530    3.7130 O.co2 219  DBV219     -0.2456
     22  O2B        2.2800   23.9500    3.2930 O.co2 219  DBV219     -0.2456
     23  CHC       10.0120   22.8620    6.4380 C.3   219  DBV219      0.0879
     24  NC         7.6090   23.3960    6.2020 N.2   219  DBV219     -0.4107
     25  C1C        6.7670   24.4680    5.9550 C.2   219  DBV219      0.1114
     26  C2C        7.6040   25.6150    5.7780 C.2   219  DBV219      0.0024
     27  C3C        8.9290   25.1900    5.9300 C.2   219  DBV219      0.0018
     28  C4C        8.9040   23.8120    6.1970 C.2   219  DBV219      0.1067
     29  CMC       10.1610   26.0510    5.8790 C.3   219  DBV219      0.0331
     30  CAC        7.0940   26.9830    5.4420 C.3   219  DBV219      0.0402
     31  CBC        6.5200   27.7390    6.6310 C.3   219  DBV219      0.1188
     32  CGC        7.5100   28.3610    7.5650 C.2   219  DBV219      0.3652
     33  O1C        8.5660   28.8670    7.1190 O.co2 219  DBV219     -0.2456
     34  O2C        7.2060   28.3630    8.7960 O.co2 219  DBV219     -0.2456
     35  ND        10.7420   22.6270    4.0500 N.2   219  DBV219     -0.1999
     36  C1D       10.2730   21.9220    5.2270 C.3   219  DBV219      0.1408
     37  C2D       11.3540   20.9290    5.4580 C.2   219  DBV219     -0.0099
     38  C3D       12.3240   21.0480    4.5460 C.2   219  DBV219      0.0768
     39  C4D       11.9320   22.1870    3.6410 C.1   219  DBV219      0.1497
     40  CMD       11.2360   19.9060    6.5690 C.3   219  DBV219      0.0291
     41  CAD       13.5490   20.2330    4.4460 C.2   219  DBV219      0.0110
     42  CBD       14.3910   20.2530    3.4350 C.2   219  DBV219      0.0007
     43  OD        12.5640   22.5710    2.6530 O.2   219  DBV219     -0.2223
@<TRIPOS>BOND
     1    43    39    2
     2    22    20   ar
     3    42    41    2
     4    39    35    2
     5    39    38    1
     6    21    20   ar
     7    20    19    1
     8    35    36    1
     9    41    38    1
    10    38    37    2
    11    19    18    1
    12    36    37    1
    13    36    23    1
    14     8     2    2
    15    30    26    1
    16    30    31    1
    17    37    40    1
    18    26    27    2
    19    26    25    1
    20     2     1    2
    21     2     3    1
    22    29    27    1
    23    27    28    1
    24    25    16    1
    25    25    24    2
    26     1     5    2
    27    16    15    1
    28    28    24    2
    29    28    23    1
    30    15    11    2
    31    15    14    1
    32     6     3    1
    33     3     4    2
    34    11    12    2
    35    18    14    1
    36    14    13    2
    37     5     4    1
    38     5     9    1
    39    31    32    1
    40    12    13    1
    41    12     9    1
    42     4    10    1
    43    13    17    1
    44    33    32   ar
    45    10     7    1
    46    32    34   ar
