@<TRIPOS>MOLECULE
1xf6_PEB_C_1.pdb
 43 46 0 0 0
SMALL
GASTEIGER

@<TRIPOS>ATOM
      1  CHC        5.1810   28.6800   39.0770 C.3   250  PEB250      0.0879
      2  NC         6.4490   26.7880   38.0290 N.2   250  PEB250     -0.4107
      3  C1C        7.5490   25.9830   38.2680 C.2   250  PEB250      0.1114
      4  C2C        8.0510   26.3360   39.5490 C.2   250  PEB250      0.0024
      5  C3C        7.2170   27.3440   40.0560 C.2   250  PEB250      0.0018
      6  C4C        6.2290   27.5920   39.0910 C.2   250  PEB250      0.1067
      7  CMC        7.3360   28.0550   41.3870 C.3   250  PEB250      0.0331
      8  CAC        9.3130   25.8390   40.2030 C.3   250  PEB250      0.0402
      9  CBC       10.4990   26.7660   39.9100 C.3   250  PEB250      0.1188
     10  CGC       11.7480   26.3630   40.6110 C.2   250  PEB250      0.3652
     11  O1C       11.9830   25.1670   40.7610 O.co2 250  PEB250     -0.2456
     12  O2C       12.5810   27.2480   40.9120 O.co2 250  PEB250     -0.2456
     13  ND         3.8550   28.0520   41.1110 N.2   250  PEB250     -0.2002
     14  C1D        3.8040   28.2970   39.6850 C.3   250  PEB250      0.1405
     15  C2D        2.8560   29.4680   39.5840 C.2   250  PEB250     -0.0139
     16  C3D        2.4800   29.8590   40.8260 C.2   250  PEB250      0.0545
     17  C4D        3.0620   28.9110   41.8070 C.1   250  PEB250      0.1456
     18  CMD        2.4370   30.0260   38.2740 C.3   250  PEB250      0.0288
     19  CAD        1.5620   30.9700   41.2290 C.3   250  PEB250      0.0376
     20  CBD        0.3620   30.4880   42.0270 C.3   250  PEB250      0.0058
     21  OD         2.8210   28.8800   43.0140 O.2   250  PEB250     -0.2226
     22  NA         5.2120   22.5690   32.1000 N.2   250  PEB250     -0.3448
     23  C1A        4.3620   22.0900   31.1290 C.1   250  PEB250      0.1788
     24  C2A        3.7080   23.2810   30.4450 C.3   250  PEB250      0.1246
     25  C3A        4.4730   24.4970   30.9710 C.3   250  PEB250      0.0660
     26  C4A        5.3000   23.9530   32.1230 C.2   250  PEB250      0.1070
     27  CMA        3.5940   23.1170   28.9370 C.3   250  PEB250      0.0192
     28  CBA        2.7590   25.4660   32.6320 C.3   250  PEB250      0.0005
     29  OA         4.1740   20.9060   30.8800 O.2   250  PEB250     -0.2142
     30  CHA        5.9610   24.6990   33.0450 C.3   250  PEB250      0.1138
     31  CAA        3.6140   25.7170   31.3800 C.3   250  PEB250      0.0078
     32  NB         6.7630   24.9560   35.3240 N.2   250  PEB250     -0.4104
     33  C1B        6.7810   24.2770   34.1830 C.2   250  PEB250      0.1111
     34  C2B        7.7560   23.2330   34.2600 C.2   250  PEB250      0.0021
     35  C3B        8.3550   23.3660   35.5300 C.2   250  PEB250      0.0024
     36  C4B        7.7320   24.4630   36.1700 C.2   250  PEB250      0.1114
     37  CHB        8.0740   24.9650   37.4610 C.3   250  PEB250      0.1170
     38  CMB        8.1720   22.2870   33.1890 C.3   250  PEB250      0.0331
     39  CAB        9.4080   22.4810   36.0710 C.3   250  PEB250      0.0402
     40  CBB        8.8160   21.1340   36.5530 C.3   250  PEB250      0.1188
     41  CGB        9.7550   20.0650   37.0090 C.2   250  PEB250      0.3652
     42  O1B       10.8440   20.3670   37.4030 O.co2 250  PEB250     -0.2456
     43  O2B        9.4980   18.8280   36.7540 O.co2 250  PEB250     -0.2456
@<TRIPOS>BOND
     1    27    24    1
     2    24    25    1
     3    24    23    1
     4    29    23    2
     5    25    31    1
     6    25    26    1
     7    23    22    2
     8    31    28    1
     9    22    26    2
    10    26    30    1
    11    30    33    1
    12    38    34    1
    13    33    34    1
    14    33    32    2
    15    34    35    2
    16    32    36    2
    17    35    39    1
    18    35    36    1
    19    39    40    1
    20    36    37    1
    21    40    41    1
    22    43    41   ar
    23    41    42   ar
    24    37     3    1
    25     2     3    2
    26     2     6    2
    27     3     4    1
    28    18    15    1
    29     1     6    1
    30     1    14    1
    31     6     5    1
    32     4     5    2
    33     4     8    1
    34    15    14    1
    35    15    16    2
    36    14    13    1
    37     9     8    1
    38     9    10    1
    39     5     7    1
    40    10    11   ar
    41    10    12   ar
    42    16    19    1
    43    16    17    1
    44    13    17    2
    45    19    20    1
    46    17    21    2
