@<TRIPOS>MOLECULE
1xf9_ATP_A_1.pdb
 31 33 0 0 0
SMALL
GASTEIGER

@<TRIPOS>ATOM
      1  PG       159.1680    6.9510   29.1340 P.3     1  ATP1        0.5373
      2  O1G      159.4570    7.0680   27.6680 O.2     1  ATP1       -0.2221
      3  O2G      158.0500    6.0800   29.5900 O.3     1  ATP1       -0.1143
      4  O3G      160.2330    6.4130   30.0220 O.3     1  ATP1       -0.1143
      5  PB       157.7180    9.4690   29.3070 P.3     1  ATP1        0.2277
      6  O1B      157.9110    9.9960   27.9360 O.2     1  ATP1       -0.5168
      7  O2B      156.4310    8.8370   29.6920 O.3     1  ATP1       -0.4368
      8  O3B      158.8690    8.4320   29.6550 O.3     1  ATP1       -0.2258
      9  PA       157.7630   11.0260   31.7840 P.3     1  ATP1        0.2189
     10  O1A      157.6940    9.7850   32.5910 O.3     1  ATP1       -0.4371
     11  O2A      156.6440   12.0140   31.8100 O.2     1  ATP1       -0.5170
     12  O3A      158.1490   10.6490   30.2860 O.3     1  ATP1       -0.2700
     13  O5'      159.1130   11.7730   32.1550 O.3     1  ATP1       -0.3112
     14  C5'      159.3010   13.1700   31.9050 C.3     1  ATP1        0.1813
     15  C4'      160.5720   13.6380   32.5690 C.3     1  ATP1        0.1821
     16  O4'      160.5180   13.2410   33.9700 O.3     1  ATP1       -0.3135
     17  C3'      161.8450   13.0130   32.0240 C.3     1  ATP1        0.2184
     18  O3'      162.3640   13.7980   30.9600 O.3     1  ATP1       -0.2174
     19  C2'      162.7640   13.0290   33.2400 C.3     1  ATP1        0.2570
     20  O2'      163.3780   14.2930   33.4200 O.3     1  ATP1       -0.2130
     21  C1'      161.7880   12.7770   34.3820 C.3     1  ATP1        0.3186
     22  N9       161.6660   11.3990   34.9320 N.pl3   1  ATP1       -0.1439
     23  C8       160.6660   10.4840   34.7320 C.3     1  ATP1        0.3377
     24  N7       160.8540    9.3500   35.3810 N.2     1  ATP1       -0.2095
     25  C5       162.0610    9.5400   36.0420 C.2     1  ATP1        0.2526
     26  C6       162.8240    8.7040   36.8970 C.2     1  ATP1        0.4393
     27  N6       162.4710    7.4660   37.2450 N.pl3   1  ATP1        0.2180
     28  N1       163.9870    9.2040   37.3860 N.2     1  ATP1        0.0021
     29  C2       164.3440   10.4480   37.0290 C.3     1  ATP1        0.5254
     30  N3       163.7200   11.3190   36.2390 N.2     1  ATP1       -0.0055
     31  C4       162.5680   10.7990   35.7680 C.2     1  ATP1        0.3518
@<TRIPOS>BOND
     1     2     1    2
     2     6     5    2
     3     1     3    1
     4     1     8    1
     5     1     4    1
     6     5     8    1
     7     5     7    1
     8     5    12    1
     9    12     9    1
    10    18    17    1
    11     9    11    2
    12     9    13    1
    13     9    10    1
    14    14    13    1
    15    14    15    1
    16    17    15    1
    17    17    19    1
    18    15    16    1
    19    19    20    1
    20    19    21    1
    21    16    21    1
    22    21    22    1
    23    23    22    1
    24    23    24    1
    25    22    31    1
    26    24    25    2
    27    31    25    1
    28    31    30    2
    29    25    26    1
    30    30    29    1
    31    26    27    1
    32    26    28    2
    33    29    28    1
