@<TRIPOS>MOLECULE
1xfa_ATP_A_1.pdb
 31 33 0 0 0
SMALL
GASTEIGER

@<TRIPOS>ATOM
      1  PG         7.7270 -127.7270 -164.2590 P.3     1  ATP1        0.5373
      2  O1G        7.1390 -129.0740 -164.0840 O.3     1  ATP1       -0.1143
      3  O2G        7.1960 -126.6730 -163.1630 O.3     1  ATP1       -0.1143
      4  O3G        7.3760 -127.1060 -165.6990 O.2     1  ATP1       -0.2221
      5  PB        10.1260 -126.3960 -164.6610 P.3     1  ATP1        0.2277
      6  O1B        9.4570 -125.1840 -164.1420 O.3     1  ATP1       -0.4368
      7  O2B       10.2690 -126.5480 -166.1250 O.2     1  ATP1       -0.5168
      8  O3B        9.3310 -127.6920 -164.1370 O.3     1  ATP1       -0.2258
      9  PA        11.7330 -126.4560 -162.3570 P.3     1  ATP1        0.2189
     10  O1A       12.3780 -125.1570 -162.0590 O.2     1  ATP1       -0.5170
     11  O2A       10.4420 -126.7610 -161.7010 O.3     1  ATP1       -0.4371
     12  O3A       11.5660 -126.5470 -163.9550 O.3     1  ATP1       -0.2700
     13  O5'       12.7770 -127.6400 -162.0360 O.3     1  ATP1       -0.3112
     14  C5'       13.0970 -128.6550 -162.9930 C.3     1  ATP1        0.1813
     15  C4'       13.0520 -130.0350 -162.3350 C.3     1  ATP1        0.1821
     16  O4'       13.7310 -131.0510 -163.0970 O.3     1  ATP1       -0.3135
     17  C3'       13.7730 -129.9820 -160.9880 C.3     1  ATP1        0.2184
     18  O3'       12.8470 -129.5630 -159.9830 O.3     1  ATP1       -0.2174
     19  C2'       14.0860 -131.4660 -160.8180 C.3     1  ATP1        0.2570
     20  O2'       12.8750 -132.1970 -160.6110 O.3     1  ATP1       -0.2130
     21  C1'       14.6320 -131.7500 -162.2180 C.3     1  ATP1        0.3186
     22  N9        16.0030 -131.1990 -162.3840 N.pl3   1  ATP1       -0.1439
     23  C8        16.3250 -129.9360 -162.6610 C.3     1  ATP1        0.3377
     24  N7        17.6490 -129.8280 -162.7800 N.2     1  ATP1       -0.2095
     25  C5        18.1790 -131.0310 -162.5780 C.2     1  ATP1        0.2526
     26  C6        19.4730 -131.5300 -162.6070 C.2     1  ATP1        0.4393
     27  N6        20.5090 -130.7300 -162.8610 N.pl3   1  ATP1        0.2180
     28  N1        19.6790 -132.8970 -162.3780 N.2     1  ATP1        0.0021
     29  C2        18.5740 -133.7230 -162.1230 C.3     1  ATP1        0.5254
     30  N3        17.3560 -133.2130 -162.1020 N.2     1  ATP1       -0.0055
     31  C4        17.1230 -131.9070 -162.3210 C.2     1  ATP1        0.3518
@<TRIPOS>BOND
     1     7     5    2
     2     4     1    2
     3     5     6    1
     4     5     8    1
     5     5    12    1
     6     1     8    1
     7     1     2    1
     8     1     3    1
     9    12     9    1
    10    16    15    1
    11    16    21    1
    12    14    15    1
    13    14    13    1
    14    27    26    1
    15    24    23    1
    16    24    25    2
    17    23    22    1
    18    26    25    1
    19    26    28    2
    20    25    31    1
    21    22    31    1
    22    22    21    1
    23    28    29    1
    24     9    10    2
    25     9    13    1
    26     9    11    1
    27    15    17    1
    28    31    30    2
    29    21    19    1
    30    29    30    1
    31    17    19    1
    32    17    18    1
    33    19    20    1
