@<TRIPOS>MOLECULE
1xfc_PLP_A_1.pdb
 15 15 0 0 0
SMALL
GASTEIGER

@<TRIPOS>ATOM
      1  N1        25.5930   -6.8990    2.5490 N.ar  390  PLP390     -0.2452
      2  C2        26.9100   -6.8760    2.2190 C.ar  390  PLP390      0.0978
      3  C2A       27.5810   -8.0850    1.5610 C.3   390  PLP390      0.0555
      4  C3        27.6440   -5.7560    2.4690 C.ar  390  PLP390      0.2049
      5  O3        28.9620   -5.7240    2.1420 O.3   390  PLP390     -0.2857
      6  C4        27.0750   -4.6490    3.0580 C.ar  390  PLP390      0.0182
      7  C4A       27.9670   -3.4180    3.3180 C.3   390  PLP390      0.0342
      8  C5        25.7270   -4.6650    3.3910 C.ar  390  PLP390      0.0261
      9  C6        25.0160   -5.8180    3.1360 C.ar  390  PLP390      0.0965
     10  C5A       25.0280   -3.4660    4.0230 C.3   390  PLP390      0.1815
     11  O4P       24.5780   -2.6100    2.9720 O.3   390  PLP390     -0.2653
     12  P         23.8090   -1.2540    3.2300 P.3   390  PLP390      0.5329
     13  O1P       24.6130   -0.5760    4.2680 O.3   390  PLP390     -0.1145
     14  O2P       23.6880   -0.5270    1.9600 O.2   390  PLP390     -0.2224
     15  O3P       22.4850   -1.6550    3.7950 O.3   390  PLP390     -0.1145
@<TRIPOS>BOND
     1     3     2    1
     2    14    12    2
     3     5     4    1
     4     2     4   ar
     5     2     1   ar
     6     4     6   ar
     7     1     9   ar
     8    11    12    1
     9    11    10    1
    10     6     7    1
    11     6     8   ar
    12     9     8   ar
    13    12    15    1
    14    12    13    1
    15     8    10    1
