@<TRIPOS>MOLECULE
1xff_GLU_A_1.pdb
 10 9 0 0 0
SMALL
GASTEIGER

@<TRIPOS>ATOM
      1  N          6.4050   30.7060   29.8130 N.3   5300  GLU5300    -0.1208
      2  CA         5.5520   30.4970   28.5940 C.3   5300  GLU5300     0.1949
      3  C          4.9540   29.1030   28.5460 C.2   5300  GLU5300     0.3819
      4  O          4.0110   28.8530   27.7710 O.co2 5300  GLU5300    -0.2441
      5  CB         6.3450   30.7490   27.3220 C.3   5300  GLU5300     0.0424
      6  CG         7.5250   29.8070   27.0560 C.3   5300  GLU5300     0.1161
      7  CD         8.1800   30.1280   25.7280 C.2   5300  GLU5300     0.3649
      8  OE1        8.8920   31.1610   25.6620 O.co2 5300  GLU5300    -0.2457
      9  OE2        8.0170   29.3580   24.7530 O.co2 5300  GLU5300    -0.2457
     10  OXT        5.4220   28.2370   29.3110 O.co2 5300  GLU5300    -0.2441
@<TRIPOS>BOND
     1     9     7   ar
     2     8     7   ar
     3     7     6    1
     4     6     5    1
     5     5     2    1
     6     4     3   ar
     7     3     2    1
     8     3    10   ar
     9     2     1    1
