@<TRIPOS>MOLECULE
1xfg_HGA_A_1.pdb
 11 10 0 0 0
SMALL
GASTEIGER

@<TRIPOS>ATOM
      1  N          6.4330   30.7810   29.7370 N.3   5300  HGA5300    -0.1208
      2  CA         5.5960   30.5710   28.5270 C.3   5300  HGA5300     0.1947
      3  CB         6.3820   30.8330   27.2490 C.3   5300  HGA5300     0.0373
      4  CG         7.6460   29.9750   27.2620 C.3   5300  HGA5300     0.0533
      5  CD         8.5740   30.1840   26.0890 C.2   5300  HGA5300     0.0869
      6  OE1        9.1390   31.2480   25.8470 O.2   5300  HGA5300    -0.5396
      7  NE2        8.7920   29.1290   25.3310 N.am  5300  HGA5300    -0.2030
      8  OZ2        9.6880   29.2780   24.2720 O.3   5300  HGA5300    -0.4026
      9  C          5.0350   29.1820   28.4960 C.2   5300  HGA5300     0.3819
     10  O          4.1110   28.9260   27.7080 O.co2 5300  HGA5300    -0.2441
     11  OXT        5.4720   28.2990   29.2620 O.co2 5300  HGA5300    -0.2441
@<TRIPOS>BOND
     1     8     7    1
     2     7     5   am
     3     6     5    2
     4     5     4    1
     5     3     4    1
     6     3     2    1
     7    10     9   ar
     8     9     2    1
     9     9    11   ar
    10     2     1    1
