@<TRIPOS>MOLECULE
1xfv_3AT_A_1.pdb
 30 32 0 0 0
SMALL
GASTEIGER

@<TRIPOS>ATOM
      1  PG        64.1200  293.1510   37.0150 P.3   903  3AT903      0.5373
      2  O1G       63.1460  292.8380   38.0660 O.3   903  3AT903     -0.1143
      3  O2G       65.1840  293.8870   37.6320 O.3   903  3AT903     -0.1143
      4  O3G       64.6200  291.8820   36.3420 O.2   903  3AT903     -0.2221
      5  PB        63.6320  295.7340   35.2210 P.3   903  3AT903      0.2277
      6  O1B       62.2990  296.1110   34.4800 O.3   903  3AT903     -0.4368
      7  O2B       64.8680  295.7790   34.3890 O.2   903  3AT903     -0.5168
      8  O3B       63.4830  294.1900   35.8960 O.3   903  3AT903     -0.2258
      9  PA        64.2970  296.9320   37.8740 P.3   903  3AT903      0.2189
     10  O1A       63.3830  296.0230   38.5900 O.3   903  3AT903     -0.4371
     11  O2A       65.7720  296.7020   38.0760 O.2   903  3AT903     -0.5170
     12  O3A       63.7110  296.8800   36.3370 O.3   903  3AT903     -0.2700
     13  O5'       64.0340  298.4170   38.3150 O.3   903  3AT903     -0.3113
     14  C5'       62.7360  299.0430   38.3200 C.3   903  3AT903      0.1787
     15  C4'       62.2430  299.3590   39.7100 C.3   903  3AT903      0.1520
     16  O4'       61.9540  300.7490   39.8100 O.3   903  3AT903     -0.3163
     17  C3'       60.9820  298.6380   40.1250 C.3   903  3AT903      0.0722
     18  C2'       60.2850  299.6910   40.9250 C.3   903  3AT903      0.2270
     19  O2'       59.9770  299.2790   42.2370 O.3   903  3AT903     -0.2158
     20  C1'       61.1780  300.9390   40.9570 C.3   903  3AT903      0.3159
     21  N9        60.4250  302.2090   40.8110 N.pl3 903  3AT903     -0.1439
     22  C8        60.3910  303.0880   39.7430 C.3   903  3AT903      0.3377
     23  N7        59.6400  304.1290   39.9040 N.2   903  3AT903     -0.2095
     24  C5        59.1400  303.9320   41.1550 C.2   903  3AT903      0.2526
     25  C6        58.2630  304.6930   41.9530 C.2   903  3AT903      0.4393
     26  N6        57.7720  305.8150   41.4970 N.pl3 903  3AT903      0.2180
     27  N1        57.9230  304.2430   43.2080 N.2   903  3AT903      0.0021
     28  C2        58.4450  303.0740   43.6660 C.3   903  3AT903      0.5254
     29  N3        59.3010  302.2540   43.0000 N.2   903  3AT903     -0.0055
     30  C4        59.6130  302.7610   41.7340 C.2   903  3AT903      0.3518
@<TRIPOS>BOND
     1     7     5    2
     2     6     5    1
     3     5     8    1
     4     5    12    1
     5     8     1    1
     6    12     9    1
     7     4     1    2
     8     1     3    1
     9     1     2    1
    10     9    11    2
    11     9    13    1
    12     9    10    1
    13    13    14    1
    14    14    15    1
    15    15    16    1
    16    15    17    1
    17    22    23    1
    18    22    21    1
    19    16    20    1
    20    23    24    2
    21    17    18    1
    22    21    20    1
    23    21    30    1
    24    18    20    1
    25    18    19    1
    26    24    30    1
    27    24    25    1
    28    26    25    1
    29    30    29    2
    30    25    27    2
    31    29    28    1
    32    27    28    1
