@<TRIPOS>MOLECULE
1xfw_CMP_A_1.pdb
 22 25 0 0 0
SMALL
GASTEIGER

@<TRIPOS>ATOM
      1  P         48.3430  -33.5090   43.3160 P.3   901  CMP901      0.2141
      2  O1P       49.4110  -34.4900   43.7210 O.3   901  CMP901     -0.4373
      3  O2P       46.9260  -34.0150   43.2800 O.2   901  CMP901     -0.5172
      4  O5'       48.3840  -32.3230   44.5400 O.3   901  CMP901     -0.3114
      5  C5'       48.9220  -30.9560   44.3860 C.3   901  CMP901      0.1812
      6  C4'       49.4450  -30.5610   42.9760 C.3   901  CMP901      0.1793
      7  O4'       50.6000  -29.7700   42.9100 O.3   901  CMP901     -0.3136
      8  C3'       49.8060  -31.7580   42.1380 C.3   901  CMP901      0.1884
      9  O3'       48.7330  -32.7320   41.9620 O.3   901  CMP901     -0.3111
     10  C2'       50.2310  -31.1030   40.9390 C.3   901  CMP901      0.2541
     11  O2'       49.1480  -30.9590   40.0250 O.3   901  CMP901     -0.2131
     12  C1'       50.7540  -29.7350   41.4740 C.3   901  CMP901      0.3185
     13  N9        52.1690  -29.4470   41.0790 N.pl3 901  CMP901     -0.1439
     14  C8        52.7270  -29.6950   39.8230 C.3   901  CMP901      0.3377
     15  N7        53.9730  -29.3530   39.6810 N.2   901  CMP901     -0.2095
     16  C5        54.2870  -28.8420   40.9110 C.2   901  CMP901      0.2526
     17  C6        55.4880  -28.2880   41.4170 C.2   901  CMP901      0.4393
     18  N6        56.5730  -28.1790   40.6720 N.pl3 901  CMP901      0.2180
     19  N1        55.5000  -27.8570   42.7010 N.2   901  CMP901      0.0021
     20  C2        54.3580  -27.9750   43.4510 C.3   901  CMP901      0.5254
     21  N3        53.1560  -28.4700   43.1020 N.2   901  CMP901     -0.0055
     22  C4        53.1890  -28.8990   41.7960 C.2   901  CMP901      0.3518
@<TRIPOS>BOND
     1    15    14    1
     2    15    16    2
     3    14    13    1
     4    11    10    1
     5    18    17    1
     6    16    17    1
     7    16    22    1
     8    10    12    1
     9    10     8    1
    10    13    12    1
    11    13    22    1
    12    17    19    2
    13    12     7    1
    14    22    21    2
    15     9     8    1
    16     9     1    1
    17     8     6    1
    18    19    20    1
    19     7     6    1
    20     6     5    1
    21    21    20    1
    22     3     1    2
    23     1     2    1
    24     1     4    1
    25     5     4    1
