@<TRIPOS>MOLECULE
1xg0_DBV_A_1.pdb
 43 46 0 0 0
SMALL
GASTEIGER

@<TRIPOS>ATOM
      1  NA         1.1080   19.8370    5.9180 N.2   219  DBV219     -0.3375
      2  C1A        0.2520   18.7770    5.7450 C.1   219  DBV219      0.2000
      3  C2A        0.9320   17.5680    6.2450 C.2   219  DBV219      0.0710
      4  C3A        2.1830   17.9440    6.6630 C.2   219  DBV219      0.0125
      5  C4A        2.3060   19.4030    6.4920 C.2   219  DBV219      0.1254
      6  CMA        0.2740   16.2500    6.2170 C.3   219  DBV219      0.0445
      7  CBA        3.6820   17.3460    8.6570 C.3   219  DBV219      0.0051
      8  OA        -0.8780   18.8440    5.2420 O.2   219  DBV219     -0.2096
      9  CHA        3.3610   20.2110    6.7920 C.3   219  DBV219      0.1181
     10  CAA        3.2790   17.0560    7.1900 C.3   219  DBV219      0.0291
     11  NB         4.6260   22.2290    6.3390 N.2   219  DBV219     -0.4104
     12  C1B        3.4190   21.6350    6.6470 C.2   219  DBV219      0.1114
     13  C2B        2.4250   22.6400    6.7570 C.2   219  DBV219      0.0021
     14  C3B        3.0490   23.8360    6.4520 C.2   219  DBV219      0.0024
     15  C4B        4.4400   23.6220    6.1940 C.2   219  DBV219      0.1114
     16  CHB        5.3940   24.5750    5.9220 C.3   219  DBV219      0.1170
     17  CMB        1.0560   22.5080    7.3350 C.3   219  DBV219      0.0331
     18  CAB        2.4000   25.1970    6.3980 C.3   219  DBV219      0.0402
     19  CBB        1.5610   25.3970    5.0850 C.3   219  DBV219      0.1188
     20  CGB        2.4740   25.1270    3.9060 C.2   219  DBV219      0.3652
     21  O1B        3.3930   25.9320    3.6410 O.co2 219  DBV219     -0.2456
     22  O2B        2.2900   24.0520    3.2160 O.co2 219  DBV219     -0.2456
     23  CHC       10.0150   22.9150    6.3450 C.3   219  DBV219      0.0879
     24  NC         7.6030   23.4700    6.1190 N.2   219  DBV219     -0.4107
     25  C1C        6.7680   24.5510    5.8800 C.2   219  DBV219      0.1114
     26  C2C        7.6180   25.6870    5.6970 C.2   219  DBV219      0.0024
     27  C3C        8.9210   25.2680    5.8600 C.2   219  DBV219      0.0018
     28  C4C        8.9030   23.8860    6.1250 C.2   219  DBV219      0.1067
     29  CMC       10.1580   26.1330    5.8090 C.3   219  DBV219      0.0331
     30  CAC        7.1170   27.0780    5.3660 C.3   219  DBV219      0.0402
     31  CBC        6.5420   27.8320    6.5680 C.3   219  DBV219      0.1188
     32  CGC        7.5180   28.4450    7.5090 C.2   219  DBV219      0.3652
     33  O1C        8.5680   28.9440    7.0570 O.co2 219  DBV219     -0.2456
     34  O2C        7.2130   28.4250    8.7500 O.co2 219  DBV219     -0.2456
     35  ND        10.7450   22.7150    3.9600 N.2   219  DBV219     -0.1999
     36  C1D       10.2630   21.9820    5.1410 C.3   219  DBV219      0.1408
     37  C2D       11.3480   20.9980    5.3820 C.2   219  DBV219     -0.0099
     38  C3D       12.3090   21.1170    4.4600 C.2   219  DBV219      0.0768
     39  C4D       11.9490   22.2520    3.5510 C.1   219  DBV219      0.1497
     40  CMD       11.2290   19.9930    6.4880 C.3   219  DBV219      0.0291
     41  CAD       13.5380   20.2970    4.3450 C.2   219  DBV219      0.0110
     42  CBD       14.3830   20.2830    3.3170 C.2   219  DBV219      0.0007
     43  OD        12.5440   22.6380    2.5420 O.2   219  DBV219     -0.2223
@<TRIPOS>BOND
     1    43    39    2
     2    22    20   ar
     3    42    41    2
     4    39    35    2
     5    39    38    1
     6    21    20   ar
     7    20    19    1
     8    35    36    1
     9    41    38    1
    10    38    37    2
    11    19    18    1
    12    36    37    1
    13    36    23    1
    14     8     2    2
    15    30    26    1
    16    30    31    1
    17    37    40    1
    18    26    27    2
    19    26    25    1
    20     2     1    2
    21     2     3    1
    22    29    27    1
    23    27    28    1
    24    25    16    1
    25    25    24    2
    26     1     5    2
    27    16    15    1
    28    24    28    2
    29    28    23    1
    30    15    11    2
    31    15    14    1
    32     6     3    1
    33     3     4    2
    34    11    12    2
    35    18    14    1
    36    14    13    2
    37     5     4    1
    38     5     9    1
    39    31    32    1
    40    12    13    1
    41    12     9    1
    42     4    10    1
    43    13    17    1
    44    33    32   ar
    45    10     7    1
    46    32    34   ar
