@<TRIPOS>MOLECULE
1xg0_PEB_C_1.pdb
 43 46 0 0 0
SMALL
GASTEIGER

@<TRIPOS>ATOM
      1  CHC        5.1590   28.7440   39.0520 C.3   250  PEB250      0.0879
      2  NC         6.4210   26.8550   38.0100 N.2   250  PEB250     -0.4107
      3  C1C        7.5340   26.0490   38.2350 C.2   250  PEB250      0.1114
      4  C2C        8.0250   26.4150   39.5230 C.2   250  PEB250      0.0024
      5  C3C        7.1840   27.4130   40.0340 C.2   250  PEB250      0.0018
      6  C4C        6.2120   27.6690   39.0800 C.2   250  PEB250      0.1067
      7  CMC        7.3100   28.1250   41.3670 C.3   250  PEB250      0.0331
      8  CAC        9.3000   25.8990   40.1720 C.3   250  PEB250      0.0402
      9  CBC       10.4920   26.8330   39.8740 C.3   250  PEB250      0.1188
     10  CGC       11.7620   26.4200   40.5730 C.2   250  PEB250      0.3652
     11  O1C       12.0180   25.1930   40.6250 O.co2 250  PEB250     -0.2456
     12  O2C       12.5660   27.3110   40.9380 O.co2 250  PEB250     -0.2456
     13  ND         3.8410   28.1100   41.1130 N.2   250  PEB250     -0.2002
     14  C1D        3.7880   28.3860   39.6690 C.3   250  PEB250      0.1405
     15  C2D        2.8210   29.5460   39.5750 C.2   250  PEB250     -0.0139
     16  C3D        2.4540   29.9220   40.8210 C.2   250  PEB250      0.0545
     17  C4D        3.0340   28.9910   41.8060 C.1   250  PEB250      0.1456
     18  CMD        2.4160   30.0810   38.2760 C.3   250  PEB250      0.0288
     19  CAD        1.5480   31.0400   41.2370 C.3   250  PEB250      0.0376
     20  CBD        0.3510   30.5620   42.0390 C.3   250  PEB250      0.0058
     21  OD         2.8010   28.9260   43.0050 O.2   250  PEB250     -0.2226
     22  NA         5.2260   22.6150   32.0700 N.2   250  PEB250     -0.3448
     23  C1A        4.3920   22.1280   31.0880 C.1   250  PEB250      0.1788
     24  C2A        3.7260   23.3120   30.4130 C.3   250  PEB250      0.1246
     25  C3A        4.4810   24.5490   30.9310 C.3   250  PEB250      0.0660
     26  C4A        5.3200   24.0100   32.0930 C.2   250  PEB250      0.1070
     27  CMA        3.6300   23.1370   28.8880 C.3   250  PEB250      0.0192
     28  CBA        2.7730   25.5160   32.6030 C.3   250  PEB250      0.0005
     29  OA         4.2070   20.9450   30.8460 O.2   250  PEB250     -0.2142
     30  CHA        5.9730   24.7660   33.0260 C.3   250  PEB250      0.1138
     31  CAA        3.6230   25.7530   31.3450 C.3   250  PEB250      0.0078
     32  NB         6.7520   25.0230   35.2940 N.2   250  PEB250     -0.4104
     33  C1B        6.7830   24.3300   34.1520 C.2   250  PEB250      0.1111
     34  C2B        7.7580   23.3000   34.2540 C.2   250  PEB250      0.0021
     35  C3B        8.3700   23.4590   35.5110 C.2   250  PEB250      0.0024
     36  C4B        7.7270   24.5520   36.1490 C.2   250  PEB250      0.1114
     37  CHB        8.0680   25.0600   37.4290 C.3   250  PEB250      0.1170
     38  CMB        8.1760   22.3440   33.1620 C.3   250  PEB250      0.0331
     39  CAB        9.4410   22.5610   36.0490 C.3   250  PEB250      0.0402
     40  CBB        8.8990   21.2050   36.5160 C.3   250  PEB250      0.1188
     41  CGB        9.7810   20.1430   37.0060 C.2   250  PEB250      0.3652
     42  O1B       10.8720   20.4540   37.3940 O.co2 250  PEB250     -0.2456
     43  O2B        9.4950   18.8950   36.7650 O.co2 250  PEB250     -0.2456
@<TRIPOS>BOND
     1    27    24    1
     2    24    25    1
     3    24    23    1
     4    29    23    2
     5    25    31    1
     6    25    26    1
     7    23    22    2
     8    31    28    1
     9    22    26    2
    10    26    30    1
    11    30    33    1
    12    38    34    1
    13    33    34    1
    14    33    32    2
    15    34    35    2
    16    32    36    2
    17    35    39    1
    18    35    36    1
    19    39    40    1
    20    36    37    1
    21    40    41    1
    22    43    41   ar
    23    41    42   ar
    24    37     3    1
    25     2     3    2
    26     2     6    2
    27     3     4    1
    28    18    15    1
    29     1     6    1
    30     1    14    1
    31     6     5    1
    32     4     5    2
    33     4     8    1
    34    15    14    1
    35    15    16    2
    36    14    13    1
    37     9     8    1
    38     9    10    1
    39     5     7    1
    40    10    11   ar
    41    10    12   ar
    42    16    19    1
    43    16    17    1
    44    13    17    2
    45    19    20    1
    46    17    21    2
