@<TRIPOS>MOLECULE
1xg4_ICT_A_1.pdb
 13 12 0 0 0
SMALL
GASTEIGER

@<TRIPOS>ATOM
      1  C1        24.8850   -5.2160    7.3870 C.2   1105  ICT1105     0.3952
      2  O1        25.4220   -4.3200    6.6990 O.co2 1105  ICT1105    -0.2428
      3  O2        25.4030   -5.7700    8.3670 O.co2 1105  ICT1105    -0.2428
      4  C2        23.5010   -5.6350    6.9860 C.3   1105  ICT1105     0.2651
      5  O7        22.6790   -5.8620    8.1580 O.3   1105  ICT1105    -0.2103
      6  C3        23.5820   -6.8510    6.1170 C.3   1105  ICT1105     0.1561
      7  C4        23.9520   -6.3430    4.7160 C.3   1105  ICT1105     0.1285
      8  C5        24.3190   -7.4700    3.7510 C.2   1105  ICT1105     0.3655
      9  O3        24.4030   -7.2170    2.5390 O.co2 1105  ICT1105    -0.2456
     10  O4        24.5320   -8.6030    4.1410 O.co2 1105  ICT1105    -0.2456
     11  C6        22.1880   -7.6140    6.1400 C.2   1105  ICT1105     0.3680
     12  O5        21.3590   -7.3450    5.2500 O.co2 1105  ICT1105    -0.2455
     13  O6        21.9980   -8.4430    7.0870 O.co2 1105  ICT1105    -0.2455
@<TRIPOS>BOND
     1     9     8   ar
     2     8    10   ar
     3     8     7    1
     4     7     6    1
     5    12    11   ar
     6     6    11    1
     7     6     4    1
     8    11    13   ar
     9     2     1   ar
    10     4     1    1
    11     4     5    1
    12     1     3   ar
