@<TRIPOS>MOLECULE
1xg5_NAP_A_1.pdb
 48 52 0 0 0
SMALL
GASTEIGER

@<TRIPOS>ATOM
      1  PA        18.2380   50.5310   20.8270 P.3   1301  NAP1301     0.2189
      2  O1A       18.2580   49.3550   19.9060 O.2   1301  NAP1301    -0.5170
      3  O2A       19.4090   50.6970   21.7040 O.3   1301  NAP1301    -0.4371
      4  O5B       16.9560   50.4760   21.8080 O.3   1301  NAP1301    -0.3112
      5  C5B       15.6830   50.2180   21.2370 C.3   1301  NAP1301     0.1813
      6  C4B       14.6940   49.9900   22.3630 C.3   1301  NAP1301     0.1820
      7  O4B       13.4150   49.7340   21.7990 O.3   1301  NAP1301    -0.3136
      8  C3B       15.0990   48.8070   23.2210 C.3   1301  NAP1301     0.2157
      9  O3B       14.9920   49.2220   24.5800 O.3   1301  NAP1301    -0.2175
     10  C2B       14.0730   47.7440   22.8820 C.3   1301  NAP1301     0.2314
     11  O2B       13.9300   46.9150   24.0290 O.3   1301  NAP1301    -0.2630
     12  C1B       12.8630   48.6010   22.4250 C.3   1301  NAP1301     0.3158
     13  N9A       12.0300   47.7900   21.5310 N.pl3 1301  NAP1301    -0.1439
     14  C8A       12.2850   47.3330   20.2500 C.3   1301  NAP1301     0.3377
     15  N7A       11.2860   46.4920   19.8590 N.2   1301  NAP1301    -0.2095
     16  C5A       10.3900   46.4160   20.8820 C.2   1301  NAP1301     0.2526
     17  C6A        9.1940   45.7240   21.0430 C.2   1301  NAP1301     0.4393
     18  N6A        8.7640   44.8270   20.1370 N.pl3 1301  NAP1301     0.2180
     19  N1A        8.5140   45.8570   22.2320 N.2   1301  NAP1301     0.0021
     20  C2A        9.0050   46.6100   23.2750 C.3   1301  NAP1301     0.5254
     21  N3A       10.1870   47.3120   23.1260 N.2   1301  NAP1301    -0.0055
     22  C4A       10.8560   47.2110   21.9350 C.2   1301  NAP1301     0.3518
     23  O3        18.0560   51.8010   19.8660 O.3   1301  NAP1301    -0.2703
     24  PN        17.9560   53.3690   20.2340 P.3   1301  NAP1301     0.2189
     25  O1N       19.0550   54.0190   19.4190 O.2   1301  NAP1301    -0.5170
     26  O2N       17.8740   53.6420   21.7070 O.3   1301  NAP1301    -0.4371
     27  O5D       16.4940   53.6130   19.5940 O.3   1301  NAP1301    -0.3112
     28  C5D       15.4520   54.3980   20.2020 C.3   1301  NAP1301     0.1813
     29  C4D       14.7640   55.2920   19.1540 C.3   1301  NAP1301     0.1799
     30  O4D       15.7230   56.2440   18.6600 O.3   1301  NAP1301    -0.3327
     31  C3D       14.1920   54.5490   17.9420 C.3   1301  NAP1301     0.2158
     32  O3D       12.9430   55.1300   17.6360 O.3   1301  NAP1301    -0.2175
     33  C2D       15.1920   54.9020   16.8640 C.3   1301  NAP1301     0.2309
     34  O2D       14.6220   54.8010   15.5590 O.3   1301  NAP1301    -0.2158
     35  C1D       15.5940   56.3230   17.2750 C.3   1301  NAP1301     0.2263
     36  N1N       16.8720   56.7780   16.6830 N.pl3 1301  NAP1301    -0.2787
     37  C2N       18.0380   56.1170   16.8910 C.3   1301  NAP1301     0.1244
     38  C3N       19.2010   56.6040   16.3130 C.2   1301  NAP1301     0.0544
     39  C7N       20.5020   55.9100   16.5990 C.2   1301  NAP1301     0.2818
     40  O7N       21.4820   56.1500   15.6710 O.2   1301  NAP1301    -0.2670
     41  N7N       20.7030   55.1000   17.6540 N.am  1301  NAP1301    -0.0839
     42  C4N       19.2220   57.8060   15.5550 C.2   1301  NAP1301     0.0033
     43  C5N       18.0170   58.4990   15.3810 C.2   1301  NAP1301     0.0157
     44  C6N       16.8590   57.9700   15.9560 C.2   1301  NAP1301     0.0633
     45  P2B       13.6400   45.3110   24.0790 P.3   1301  NAP1301     0.5328
     46  O1X       14.4550   44.6500   22.9930 O.2   1301  NAP1301    -0.2224
     47  O2X       14.0500   44.8600   25.4610 O.3   1301  NAP1301    -0.1145
     48  O3X       12.1710   45.1350   23.7810 O.3   1301  NAP1301    -0.1145
@<TRIPOS>BOND
     1    43    42    1
     2    43    44    2
     3    42    38    2
     4    34    33    1
     5    40    39    2
     6    44    36    1
     7    38    39    1
     8    38    37    1
     9    39    41   am
    10    36    37    1
    11    36    35    1
    12    33    35    1
    13    33    31    1
    14    35    30    1
    15    32    31    1
    16    31    29    1
    17    30    29    1
    18    29    28    1
    19    25    24    2
    20    27    28    1
    21    27    24    1
    22    15    14    1
    23    15    16    2
    24    23    24    1
    25    23     1    1
    26     2     1    2
    27    18    17    1
    28    24    26    1
    29    14    13    1
    30     1     3    1
    31     1     4    1
    32    16    17    1
    33    16    22    1
    34    17    19    2
    35     5     4    1
    36     5     6    1
    37    13    22    1
    38    13    12    1
    39     7     6    1
    40     7    12    1
    41    22    21    2
    42    19    20    1
    43     6     8    1
    44    12    10    1
    45    10     8    1
    46    10    11    1
    47    46    45    2
    48    21    20    1
    49     8     9    1
    50    48    45    1
    51    11    45    1
    52    45    47    1
