@<TRIPOS>MOLECULE
1xge_NCD_B_1.pdb
 12 11 0 0 0
SMALL
GASTEIGER

@<TRIPOS>ATOM
      1  C6         7.0380   18.6810   61.0970 C.3   2410  NCD2410     0.2106
      2  C61        5.6770   19.3170   61.3450 C.2   2410  NCD2410     0.3848
      3  O61        4.6350   18.6440   61.1240 O.co2 2410  NCD2410    -0.2437
      4  O62        5.6060   20.4970   61.8040 O.co2 2410  NCD2410    -0.2437
      5  N1         8.0890   19.5840   61.5520 N.am  2410  NCD2410    -0.1754
      6  C2         9.4130   19.4760   61.3510 C.2   2410  NCD2410     0.3594
      7  O2        10.1890   20.2670   61.8750 O.2   2410  NCD2410    -0.2474
      8  N3         9.9360   18.5150   60.6030 N.am  2410  NCD2410    -0.0679
      9  C5         7.0660   17.3570   61.8670 C.3   2410  NCD2410     0.1473
     10  C4         8.0530   16.2870   61.4000 C.2   2410  NCD2410     0.3672
     11  O4         8.2230   15.9920   60.1700 O.co2 2410  NCD2410    -0.2456
     12  O5         8.6870   15.6900   62.3070 O.co2 2410  NCD2410    -0.2456
@<TRIPOS>BOND
     1    11    10   ar
     2     8     6   am
     3     1     2    1
     4     1     5    1
     5     1     9    1
     6     3     2   ar
     7     2     4   ar
     8     6     5   am
     9     6     7    2
    10    10     9    1
    11    10    12   ar
