@<TRIPOS>MOLECULE
1xge_DOR_A_1.pdb
 11 11 0 0 0
SMALL
GASTEIGER

@<TRIPOS>ATOM
      1  O2        24.9080   37.3920   72.7780 O.2   1410  DOR1410    -0.1881
      2  C2        25.6880   38.3340   72.6590 C.1   1410  DOR1410     0.3067
      3  N1        25.2210   39.5770   72.5990 N.2   1410  DOR1410    -0.1649
      4  N3        27.0050   38.1320   72.5030 N.2   1410  DOR1410    -0.2467
      5  C4        27.8820   39.1010   72.1160 C.1   1410  DOR1410     0.1951
      6  O4        29.0800   38.8910   71.8900 O.2   1410  DOR1410    -0.2133
      7  C5        27.3820   40.5310   71.9870 C.3   1410  DOR1410     0.1724
      8  C6        26.1050   40.7070   72.7980 C.3   1410  DOR1410     0.2370
      9  C7        25.4200   41.9610   72.3630 C.2   1410  DOR1410     0.3887
     10  O72       26.0130   43.0460   72.4880 O.co2 1410  DOR1410    -0.2434
     11  O71       24.2740   41.8500   71.8910 O.co2 1410  DOR1410    -0.2434
@<TRIPOS>BOND
     1     6     5    2
     2    11     9   ar
     3     7     5    1
     4     7     8    1
     5     5     4    2
     6     9    10   ar
     7     9     8    1
     8     4     2    2
     9     3     2    2
    10     3     8    1
    11     2     1    2
