@<TRIPOS>MOLECULE
1xgi_NST_B_1.pdb
 21 22 0 0 0
SMALL
GASTEIGER

@<TRIPOS>ATOM
      1  N1        79.3860    4.2620   31.1130 N.pl3 416  NST416     -0.0965
      2  C2        80.6400    4.5900   31.6620 C.ar  416  NST416      0.0927
      3  C3        80.8560    4.5430   33.0920 C.ar  416  NST416      0.0182
      4  C4        81.7000    4.9560   30.7720 C.ar  416  NST416      0.0421
      5  C5        82.1570    4.8730   33.6220 C.ar  416  NST416      0.0031
      6  C6        83.0010    5.2820   31.2920 C.ar  416  NST416      0.1442
      7  C7        83.2260    5.2380   32.7230 C.ar  416  NST416      0.0242
      8  N2        84.0180    5.6230   30.4340 N.pl3 416  NST416      0.0577
      9  S13       78.2550    5.4970   30.6710 S.O2  416  NST416      0.0935
     10  C15       78.6570    6.3530   29.0760 C.ar  416  NST416      0.1399
     11  O16       76.9680    4.8510   30.5130 O.2   416  NST416     -0.1483
     12  O17       78.1730    6.4570   31.7230 O.2   416  NST416     -0.1483
     13  C18       78.8410    5.7610   27.8110 C.ar  416  NST416      0.1282
     14  C19       78.8350    7.7460   28.9260 C.ar  416  NST416      0.0280
     15  S20       79.1370    6.8230   26.8680 S.2   416  NST416     -0.0786
     16  C21       78.7460    4.2950   27.4830 C.2   416  NST416      0.3950
     17  C22       79.1300    8.0340   27.5850 C.ar  416  NST416      0.0371
     18  O23       78.4750    3.3870   28.4250 O.co2 416  NST416     -0.2399
     19  O24       78.9280    3.9280   26.3350 O.co2 416  NST416     -0.2399
     20  O1        83.8260    5.6600   29.2240 O.2   416  NST416     -0.1261
     21  O2        85.1260    5.8890   30.8690 O.2   416  NST416     -0.1261
@<TRIPOS>BOND
     1    19    16   ar
     2    15    17   ar
     3    15    13   ar
     4    16    13    1
     5    16    18   ar
     6    17    14   ar
     7    13    10   ar
     8    14    10   ar
     9    10     9    1
    10    20     8    2
    11     8    21    2
    12     8     6    1
    13    11     9    2
    14     9     1    1
    15     9    12    2
    16     4     6   ar
    17     4     2   ar
    18     1     2    1
    19     6     7   ar
    20     2     3   ar
    21     7     5   ar
    22     3     5   ar
