@<TRIPOS>MOLECULE
1xgj_HTC_A_1.pdb
 22 23 0 0 0
SMALL
GASTEIGER

@<TRIPOS>ATOM
      1  N1       -57.1590    4.3260   57.5820 N.pl3 777  HTC777     -0.0933
      2  S13      -55.8260    5.4620   57.7050 S.O2  777  HTC777      0.0936
      3  O17      -55.7900    6.1800   56.4740 O.2   777  HTC777     -0.1483
      4  O16      -54.5950    4.7130   57.9000 O.2   777  HTC777     -0.1483
      5  C15      -56.0630    6.6900   59.0860 C.ar  777  HTC777      0.1399
      6  C19      -56.1900    8.0750   58.8870 C.ar  777  HTC777      0.0280
      7  C22      -56.3550    8.7000   60.1290 C.ar  777  HTC777      0.0371
      8  S20      -56.3320    7.7090   61.1400 S.2   777  HTC777     -0.0786
      9  C18      -56.1480    6.4450   60.4850 C.ar  777  HTC777      0.1282
     10  C21      -56.0690    5.1360   61.1990 C.2   777  HTC777      0.3950
     11  O24      -56.1500    5.1270   62.4350 O.co2 777  HTC777     -0.2399
     12  O23      -55.9160    3.9960   60.5310 O.co2 777  HTC777     -0.2399
     13  C2       -58.4610    4.7900   57.2240 C.ar  777  HTC777      0.1298
     14  C4       -58.9700    4.5860   55.8810 C.ar  777  HTC777      0.2125
     15  C6       -60.2830    5.0410   55.5340 C.ar  777  HTC777      0.0500
     16  C7       -61.1020    5.7060   56.5330 C.ar  777  HTC777      0.0830
     17  C5       -60.5980    5.9170   57.8720 C.ar  777  HTC777      0.0082
     18  C3       -59.2830    5.4620   58.2180 C.ar  777  HTC777      0.0215
     19  O1       -58.2030    3.9530   54.9360 O.3   777  HTC777     -0.2851
     20  C        -62.4940    6.1810   56.1690 C.2   777  HTC777      0.3879
     21  O        -63.2610    6.7990   57.0820 O.co2 777  HTC777     -0.2406
     22  O25      -62.9260    5.9960   55.0270 O.co2 777  HTC777     -0.2406
@<TRIPOS>BOND
     1    19    14    1
     2    22    20   ar
     3    15    14   ar
     4    15    16   ar
     5    14    13   ar
     6    20    16    1
     7    20    21   ar
     8     3     2    2
     9    16    17   ar
    10    13     1    1
    11    13    18   ar
    12     1     2    1
    13     2     4    2
    14     2     5    1
    15    17    18   ar
    16     6     5   ar
    17     6     7   ar
    18     5     9   ar
    19     7     8   ar
    20     9     8   ar
    21     9    10    1
    22    12    10   ar
    23    10    11   ar
