@<TRIPOS>MOLECULE
1xgy_III_P_1.pdb
 42 41 0 0 0
SMALL
GASTEIGER

@<TRIPOS>ATOM
      1  N         74.5140    0.6550   26.6290 N.3     1  THR1       -0.1203
      2  CA        75.9720    0.3680   26.5720 C.3     1  THR1        0.1994
      3  C         76.5380    0.6910   25.1960 C.2     1  THR1        0.2618
      4  O         75.9390    0.3680   24.1690 O.2     1  THR1       -0.2717
      5  CB        76.2660   -1.1220   26.9110 C.3     1  THR1        0.1784
      6  OG1       76.0710   -1.3460   28.3170 O.3     1  THR1       -0.2211
      7  CG2       77.6950   -1.4860   26.5380 C.3     1  THR1        0.0376
      8  N         77.7010    1.3310   25.1870 N.am    2  GLY2       -0.1942
      9  CA        78.3310    1.6910   23.9290 C.3     2  GLY2        0.2014
     10  C         78.8660    0.4850   23.1750 C.2     2  GLY2        0.2639
     11  O         79.0380    0.5180   21.9460 O.2     2  GLY2       -0.2714
     12  N         79.1320   -0.5880   23.9130 N.am    3  ALA3       -0.1963
     13  CA        79.6560   -1.8060   23.3190 C.3     3  ALA3        0.1728
     14  C         78.5600   -2.5370   22.5800 C.2     3  ALA3        0.2616
     15  O         78.8310   -3.4510   21.8000 O.2     3  ALA3       -0.2715
     16  CB        80.2320   -2.6950   24.3960 C.3     3  ALA3        0.0334
     17  N         77.3180   -2.1360   22.8410 N.am    4  LEU4       -0.1963
     18  CA        76.1530   -2.7480   22.2160 C.3     4  LEU4        0.1728
     19  C         75.5990   -1.8260   21.1380 C.2     4  LEU4        0.2619
     20  O         75.3170   -2.2660   20.0200 O.2     4  LEU4       -0.2715
     21  CB        75.0700   -3.0060   23.2690 C.3     4  LEU4        0.0311
     22  CG        73.7970   -3.7580   22.8480 C.3     4  LEU4        0.0022
     23  CD1       74.1350   -5.2200   22.6120 C.3     4  LEU4        0.0001
     24  CD2       72.7430   -3.6590   23.9300 C.3     4  LEU4        0.0001
     25  N         75.4740   -0.5440   21.4740 N.am    5  GLN5       -0.1918
     26  CA        74.9150    0.4470   20.5720 C.3     5  GLN5        0.1949
     27  C         75.8110    0.9200   19.4370 C.2     5  GLN5        0.2658
     28  O         75.3220    1.2460   18.3600 O.2     5  GLN5       -0.2711
     29  CB        74.4860    1.6610   21.3680 C.2     5  GLN5        0.0091
     30  CG        73.5470    1.4240   22.4660 C.2     5  GLN5        0.0587
     31  CD        72.8980    2.6380   23.0720 C.2     5  GLN5        0.2841
     32  OE1       72.4100    3.4490   22.2850 O.2     5  GLN5       -0.2667
     33  NE2       72.8910    2.8040   24.3950 N.am    5  GLN5       -0.0837
     34  N         77.1160    0.9650   19.6690 N.am    6  GLU6       -0.1974
     35  CA        78.0460    1.4210   18.6360 C.3     6  GLU6        0.1602
     36  C         78.3750    0.3730   17.5780 C.2     6  GLU6        0.2287
     37  O         77.4210   -0.3000   17.1380 O.2     6  GLU6       -0.2864
     38  CB        79.3350    1.9070   19.2850 C.3     6  GLU6        0.0415
     39  CG        79.0820    2.9880   20.3170 C.3     6  GLU6        0.1163
     40  CD        80.3450    3.6250   20.8450 C.2     6  GLU6        0.3649
     41  OE1       81.4370    3.1260   20.5160 O.co2   6  GLU6       -0.2457
     42  OE2       80.2370    4.6260   21.5890 O.co2   6  GLU6       -0.2457
@<TRIPOS>BOND
     1    37    36    2
     2    36    35    1
     3    28    27    2
     4    35    38    1
     5    35    34    1
     6    38    39    1
     7    27    34   am
     8    27    26    1
     9    20    19    2
    10    39    40    1
    11    41    40   ar
    12    26    29    1
    13    26    25    1
    14    40    42   ar
    15    19    25   am
    16    19    18    1
    17    29    30    2
    18    15    14    2
    19    11    10    2
    20    18    17    1
    21    18    21    1
    22    32    31    2
    23    30    31    1
    24    14    17   am
    25    14    13    1
    26    23    22    1
    27    22    21    1
    28    22    24    1
    29    31    33   am
    30    10    12   am
    31    10     9    1
    32    13    12    1
    33    13    16    1
    34     9     8    1
    35     4     3    2
    36     8     3   am
    37     3     2    1
    38     7     5    1
    39     2     1    1
    40     2     5    1
    41     5     6    1
