@<TRIPOS>MOLECULE
1xh5_R68_A_1.pdb
 43 47 0 0 0
SMALL
GASTEIGER

@<TRIPOS>ATOM
      1  O22        7.3900    9.4140    1.5240 O.2   1001  R681001    -0.2684
      2  C21        7.2020    9.3580    2.7540 C.2   1001  R681001     0.2649
      3  C14        5.8510    9.4950    3.3630 C.ar  1001  R681001     0.0581
      4  C13        4.7130    9.5200    2.5260 C.ar  1001  R681001     0.0252
      5  C12        3.4350    9.6350    3.0840 C.ar  1001  R681001     0.0990
      6  N11        3.2650    9.6370    4.4110 N.ar  1001  R681001    -0.2423
      7  C16        4.3100    9.5980    5.2250 C.ar  1001  R681001     0.0990
      8  C15        5.6310    9.5570    4.7490 C.ar  1001  R681001     0.0252
      9  N23        8.3090    9.1380    3.5610 N.am  1001  R681001    -0.2002
     10  C31        9.6570    8.8670    3.0180 C.3   1001  R681001     0.1328
     11  C32        9.9700    7.4310    3.4550 C.3   1001  R681001     0.1120
     12  N33       11.2460    6.9640    2.9110 N.3   1001  R681001    -0.2162
     13  C34       12.4100    7.1760    3.8330 C.3   1001  R681001     0.0888
     14  C35       12.8210    8.6380    3.8300 C.3   1001  R681001     0.0206
     15  C36       11.7480    9.5740    4.4550 C.3   1001  R681001     0.0250
     16  C37       10.6490    9.9820    3.4450 C.3   1001  R681001     0.1170
     17  N41       11.2460   10.6180    2.2920 N.am  1001  R681001    -0.2016
     18  C42       11.8060   11.8770    2.2920 C.2   1001  R681001     0.2648
     19  O43       11.6770   12.5820    3.3050 O.2   1001  R681001    -0.2684
     20  C51       12.7170   12.2980    1.2290 C.ar  1001  R681001     0.0550
     21  C52       13.1010   13.6530    1.1370 C.ar  1001  R681001     0.0047
     22  C53       14.0410   14.0660    0.2030 C.ar  1001  R681001     0.0033
     23  C56       13.3430   11.3620    0.3890 C.ar  1001  R681001     0.0047
     24  C55       14.2970   11.7750   -0.5250 C.ar  1001  R681001     0.0033
     25  C54       14.6260   13.1290   -0.6580 C.ar  1001  R681001     0.0391
     26  C61       15.7030   13.5010   -1.5770 C.2   1001  R681001     0.2008
     27  O62       16.2950   14.5900   -1.3850 O.2   1001  R681001    -0.2864
     28  C71       16.2360   12.5360   -2.5400 C.ar  1001  R681001     0.1049
     29  C72       15.5330   12.1720   -3.6690 C.ar  1001  R681001     0.2009
     30  O82       14.3630   12.7960   -3.8180 O.3   1001  R681001    -0.2864
     31  C73       16.0100   11.2560   -4.5970 C.ar  1001  R681001     0.0420
     32  C74       17.2520   10.6560   -4.3780 C.ar  1001  R681001     0.0026
     33  C75       17.9960   10.9600   -3.2200 C.ar  1001  R681001     0.0213
     34  C76       17.4550   11.9040   -2.3500 C.ar  1001  R681001     0.1436
     35  F89       18.1180   12.2450   -1.2520 F     1001  R681001    -0.2042
     36  C91       19.3580   10.3270   -2.9820 C.3   1001  R681001     0.0970
     37  C92       20.5590   11.1930   -3.5230 C.3   1001  R681001     0.0188
     38  C97       20.6750   12.5880   -2.8390 C.3   1001  R681001     0.0017
     39  C98       20.4400   11.3800   -5.0260 C.3   1001  R681001     0.0017
     40  C93       21.8990   10.4480   -3.2650 C.3   1001  R681001     0.0031
     41  C94       22.0320    9.9580   -1.7980 C.3   1001  R681001     0.0189
     42  C95       20.7710    9.1690   -1.3510 C.3   1001  R681001     0.0890
     43  N96       19.5140    9.9650   -1.5440 N.3   1001  R681001    -0.2150
@<TRIPOS>BOND
     1    39    37    1
     2    31    32   ar
     3    31    29   ar
     4    32    33   ar
     5    30    29    1
     6    29    28   ar
     7    37    40    1
     8    37    36    1
     9    37    38    1
    10    40    41    1
    11    33    36    1
    12    33    34   ar
    13    36    43    1
    14    28    34   ar
    15    28    26    1
    16    34    35    1
    17    41    42    1
    18    26    27    2
    19    26    25    1
    20    43    42    1
    21    25    24   ar
    22    25    22   ar
    23    24    23   ar
    24    22    21   ar
    25    23    20   ar
    26    21    20   ar
    27    20    18    1
    28     1     2    2
    29    18    17   am
    30    18    19    2
    31    17    16    1
    32     4     5   ar
    33     4     3   ar
    34     2     3    1
    35     2     9   am
    36    12    11    1
    37    12    13    1
    38    10    16    1
    39    10    11    1
    40    10     9    1
    41     5     6   ar
    42     3     8   ar
    43    16    15    1
    44    14    13    1
    45    14    15    1
    46     6     7   ar
    47     8     7   ar
