@<TRIPOS>MOLECULE
1xh6_R94_A_1.pdb
 40 44 0 0 0
SMALL
GASTEIGER

@<TRIPOS>ATOM
      1  O62        1.0590   37.0850   17.1780 O.2   351  R94351     -0.2865
      2  C61        2.0490   36.3820   16.9600 C.2   351  R94351      0.1987
      3  C71        2.9150   36.7430   15.8230 C.ar  351  R94351      0.0790
      4  C72        3.2520   35.8760   14.7710 C.ar  351  R94351      0.1988
      5  C73        4.0700   36.3320   13.7130 C.ar  351  R94351      0.0434
      6  C74        4.5570   37.6370   13.7220 C.ar  351  R94351      0.0178
      7  C75        4.2340   38.5370   14.7620 C.ar  351  R94351      0.0481
      8  N91        4.7240   39.8280   14.7530 N.pl3 351  R94351     -0.3075
      9  C92        5.0870   40.4190   13.4470 C.3   351  R94351      0.0908
     10  C93        6.1200   41.5400   13.6260 C.3   351  R94351      0.0215
     11  C94        5.6070   42.5680   14.6420 C.3   351  R94351      0.0035
     12  C95        5.3080   41.8820   15.9840 C.3   351  R94351      0.0215
     13  C96        4.2700   40.7680   15.7990 C.3   351  R94351      0.0908
     14  C76        3.4220   38.0680   15.8090 C.ar  351  R94351      0.0209
     15  O92        2.7830   34.5790   14.7380 O.3   351  R94351     -0.2865
     16  C54        2.3290   35.3920   17.9960 C.ar  351  R94351      0.0391
     17  C55        3.6400   34.9000   18.1880 C.ar  351  R94351      0.0033
     18  C56        3.8910   34.0040   19.2250 C.ar  351  R94351      0.0047
     19  C53        1.2890   34.9850   18.8480 C.ar  351  R94351      0.0033
     20  C52        1.5430   34.0910   19.8780 C.ar  351  R94351      0.0047
     21  C51        2.8420   33.5940   20.0710 C.ar  351  R94351      0.0550
     22  C42        3.1180   32.6760   21.1680 C.2   351  R94351      0.2648
     23  O43        2.3840   32.5910   22.1620 O.2   351  R94351     -0.2684
     24  N41        4.3020   31.9500   21.1250 N.am  351  R94351     -0.2016
     25  C37        4.8260   31.2720   22.3510 C.3   351  R94351      0.1170
     26  C36        5.3170   32.3850   23.3020 C.3   351  R94351      0.0250
     27  C35        6.3600   33.3590   22.7450 C.3   351  R94351      0.0206
     28  C34        7.7540   32.7450   22.7840 C.3   351  R94351      0.0888
     29  N33        7.8310   31.5730   21.8140 N.3   351  R94351     -0.2162
     30  C32        7.2760   30.2750   22.3610 C.3   351  R94351      0.1120
     31  C31        5.7950   30.1130   21.9840 C.3   351  R94351      0.1328
     32  N23        5.3390   28.8370   22.5820 N.am  351  R94351     -0.2002
     33  C21        5.1350   27.7290   21.7710 C.2   351  R94351      0.2649
     34  O22        5.0420   27.9100   20.5470 O.2   351  R94351     -0.2684
     35  C14        4.9520   26.3930   22.3360 C.ar  351  R94351      0.0581
     36  C13        4.7250   25.3160   21.4600 C.ar  351  R94351      0.0252
     37  C12        4.5500   24.0400   21.9890 C.ar  351  R94351      0.0990
     38  N11        4.5340   23.8190   23.3090 N.ar  351  R94351     -0.2423
     39  C16        4.7440   24.8330   24.1500 C.ar  351  R94351      0.0990
     40  C15        4.9400   26.1380   23.7050 C.ar  351  R94351      0.0252
@<TRIPOS>BOND
     1     9    10    1
     2     9     8    1
     3    10    11    1
     4     5     6   ar
     5     5     4   ar
     6     6     7   ar
     7    11    12    1
     8    15     4    1
     9     8     7    1
    10     8    13    1
    11     7    14   ar
    12     4     3   ar
    13    13    12    1
    14    14     3   ar
    15     3     2    1
    16     2     1    2
    17     2    16    1
    18    16    17   ar
    19    16    19   ar
    20    17    18   ar
    21    19    20   ar
    22    18    21   ar
    23    20    21   ar
    24    21    22    1
    25    34    33    2
    26    24    22   am
    27    24    25    1
    28    22    23    2
    29    36    37   ar
    30    36    35   ar
    31    33    35    1
    32    33    32   am
    33    29    30    1
    34    29    28    1
    35    31    25    1
    36    31    30    1
    37    31    32    1
    38    37    38   ar
    39    35    40   ar
    40    25    26    1
    41    27    28    1
    42    27    26    1
    43    38    39   ar
    44    40    39   ar
