@<TRIPOS>MOLECULE
1xh7_R96_A_1.pdb
 42 46 0 0 0
SMALL
GASTEIGER

@<TRIPOS>ATOM
      1  O22        7.2550    9.2200    1.5990 O.2   351  R96351     -0.2684
      2  C21        7.1140    9.2490    2.8150 C.2   351  R96351      0.2649
      3  C14        5.8160    9.4150    3.4710 C.ar  351  R96351      0.0581
      4  C13        4.6640    9.6220    2.7130 C.ar  351  R96351      0.0252
      5  C12        3.4280    9.7470    3.3420 C.ar  351  R96351      0.0990
      6  N11        3.3400    9.7130    4.6700 N.ar  351  R96351     -0.2423
      7  C16        4.4130    9.5140    5.4430 C.ar  351  R96351      0.0990
      8  C15        5.6650    9.3590    4.8640 C.ar  351  R96351      0.0252
      9  N23        8.2530    9.1150    3.5910 N.am  351  R96351     -0.2002
     10  C31        9.5620    8.7770    2.9980 C.3   351  R96351      0.1328
     11  C32        9.8560    7.3430    3.4360 C.3   351  R96351      0.1120
     12  N33       11.1320    6.8610    2.8810 N.3   351  R96351     -0.2162
     13  C34       12.2370    7.0400    3.8210 C.3   351  R96351      0.0888
     14  C35       12.8030    8.4720    3.7340 C.3   351  R96351      0.0206
     15  C36       11.7990    9.4990    4.2980 C.3   351  R96351      0.0250
     16  C37       10.6270    9.8850    3.3410 C.3   351  R96351      0.1170
     17  N41       11.1130   10.5010    2.0760 N.am  351  R96351     -0.2016
     18  C42       11.8290   11.6940    2.0960 C.2   351  R96351      0.2648
     19  O43       11.7920   12.4130    3.0990 O.2   351  R96351     -0.2684
     20  C51       12.6450   12.0500    0.9570 C.ar  351  R96351      0.0550
     21  C52       12.9490   13.4010    0.7040 C.ar  351  R96351      0.0047
     22  C53       13.7650   13.7430   -0.3730 C.ar  351  R96351      0.0033
     23  C56       13.1450   11.0400    0.1400 C.ar  351  R96351      0.0047
     24  C55       13.9490   11.3800   -0.9360 C.ar  351  R96351      0.0033
     25  C54       14.2490   12.7180   -1.2040 C.ar  351  R96351      0.0391
     26  C61       15.1220   13.0330   -2.3330 C.2   351  R96351      0.1987
     27  O62       15.8390   14.0520   -2.2330 O.2   351  R96351     -0.2865
     28  C71       15.3260   12.1950   -3.5210 C.ar  351  R96351      0.0790
     29  C72       14.4090   11.8770   -4.5530 C.ar  351  R96351      0.1988
     30  O92       13.1080   12.2590   -4.5980 O.3   351  R96351     -0.2865
     31  C73       14.8050   11.0920   -5.6290 C.ar  351  R96351      0.0434
     32  C74       16.1040   10.5870   -5.7060 C.ar  351  R96351      0.0178
     33  C76       16.6270   11.6820   -3.6080 C.ar  351  R96351      0.0209
     34  C75       17.0360   10.8890   -4.6980 C.ar  351  R96351      0.0481
     35  N91       18.3840   10.3860   -4.7750 N.pl3 351  R96351     -0.3075
     36  C92       18.8920    9.9130   -6.0970 C.3   351  R96351      0.0908
     37  C93       20.4130    9.6220   -6.2180 C.3   351  R96351      0.0215
     38  C94       21.2940   10.3330   -5.1880 C.3   351  R96351      0.0034
     39  C95       20.7660   10.0420   -3.7800 C.3   351  R96351      0.0183
     40  C97       21.7940   10.6660   -2.8030 C.3   351  R96351      0.0017
     41  C98       20.6980    8.5480   -3.4320 C.3   351  R96351      0.0017
     42  C96       19.3430   10.6340   -3.6400 C.3   351  R96351      0.0907
@<TRIPOS>BOND
     1    37    36    1
     2    37    38    1
     3    36    35    1
     4    32    31   ar
     5    32    34   ar
     6    31    29   ar
     7    38    39    1
     8    35    34    1
     9    35    42    1
    10    34    33   ar
    11    30    29    1
    12    29    28   ar
    13    39    42    1
    14    39    41    1
    15    39    40    1
    16    33    28   ar
    17    28    26    1
    18    26    27    2
    19    26    25    1
    20    25    24   ar
    21    25    22   ar
    22    24    23   ar
    23    22    21   ar
    24    23    20   ar
    25    21    20   ar
    26    20    18    1
    27     1     2    2
    28    17    18   am
    29    17    16    1
    30    18    19    2
    31     4     5   ar
    32     4     3   ar
    33     2     3    1
    34     2     9   am
    35    12    11    1
    36    12    13    1
    37    10    16    1
    38    10    11    1
    39    10     9    1
    40    16    15    1
    41     5     6   ar
    42     3     8   ar
    43    14    13    1
    44    14    15    1
    45     6     7   ar
    46     8     7   ar
