@<TRIPOS>MOLECULE
1xh8_R55_A_1.pdb
 42 46 0 0 0
SMALL
GASTEIGER

@<TRIPOS>ATOM
      1  O22        9.5910   23.3280   30.4020 O.2   351  R55351     -0.2684
      2  C21        9.4400   24.5770   30.3900 C.2   351  R55351      0.2649
      3  C14       10.5630   25.4860   30.6780 C.ar  351  R55351      0.0581
      4  C13       11.8060   24.8970   31.0070 C.ar  351  R55351      0.0252
      5  C12       12.9150   25.6600   31.2670 C.ar  351  R55351      0.0990
      6  N11       12.8290   27.0560   31.2310 N.ar  351  R55351     -0.2423
      7  C16       11.6220   27.6480   30.9480 C.ar  351  R55351      0.0990
      8  C15       10.4850   26.8940   30.6870 C.ar  351  R55351      0.0252
      9  N23        8.2020   25.1480   30.0800 N.am  351  R55351     -0.2002
     10  C31        7.1180   24.3660   29.4670 C.3   351  R55351      0.1328
     11  C32        6.9340   24.7440   27.9890 C.3   351  R55351      0.1120
     12  N33        5.9500   23.8690   27.3210 N.3   351  R55351     -0.2162
     13  C34        4.5980   24.4440   27.2800 C.3   351  R55351      0.0888
     14  C35        3.9510   24.3730   28.6650 C.3   351  R55351      0.0206
     15  C36        4.6330   25.2320   29.7280 C.3   351  R55351      0.0250
     16  C37        5.8580   24.5450   30.3480 C.3   351  R55351      0.1170
     17  N41        5.4100   23.2430   30.8730 N.am  351  R55351     -0.2016
     18  C42        4.6510   23.0960   32.0210 C.2   351  R55351      0.2648
     19  O43        4.3750   24.0660   32.7350 O.2   351  R55351     -0.2684
     20  C51        4.0490   21.8080   32.3040 C.ar  351  R55351      0.0550
     21  C52        3.6170   21.4870   33.5960 C.ar  351  R55351      0.0047
     22  C53        2.9930   20.2800   33.8300 C.ar  351  R55351      0.0033
     23  C56        3.8750   20.8860   31.2590 C.ar  351  R55351      0.0047
     24  C55        3.2270   19.6700   31.4940 C.ar  351  R55351      0.0033
     25  C54        2.8260   19.3450   32.7950 C.ar  351  R55351      0.0391
     26  C61        2.0950   18.1080   33.0630 C.2   351  R55351      0.1987
     27  O62        1.3050   18.1350   33.9870 O.2   351  R55351     -0.2865
     28  C71        2.1590   16.8570   32.2890 C.ar  351  R55351      0.0790
     29  C72        3.3190   16.1040   32.2800 C.ar  351  R55351      0.1988
     30  O99        4.4000   16.5690   32.9660 O.3   351  R55351     -0.2865
     31  C73        3.3990   14.9280   31.5560 C.ar  351  R55351      0.0434
     32  C74        2.3110   14.5170   30.8310 C.ar  351  R55351      0.0178
     33  C75        1.1180   15.2630   30.7970 C.ar  351  R55351      0.0481
     34  C76        1.0600   16.4430   31.5400 C.ar  351  R55351      0.0209
     35  N91        0.0010   14.8070   30.0360 N.pl3 351  R55351     -0.3075
     36  C92       -1.3000   15.5180   30.1670 C.3   351  R55351      0.0908
     37  C93       -2.5120   14.7300   29.6380 C.3   351  R55351      0.0215
     38  C94       -2.2610   13.7830   28.4420 C.3   351  R55351      0.0033
     39  C97       -2.5650   14.5180   27.1180 C.3   351  R55351      0.0001
     40  C98       -3.2550   12.6340   28.5440 C.3   351  R55351      0.0001
     41  C95       -0.8780   13.0860   28.5170 C.3   351  R55351      0.0215
     42  C96        0.2510   14.0720   28.7760 C.3   351  R55351      0.0908
@<TRIPOS>BOND
     1    39    38    1
     2    13    12    1
     3    13    14    1
     4    12    11    1
     5    11    10    1
     6    38    41    1
     7    38    40    1
     8    38    37    1
     9    41    42    1
    10    14    15    1
    11    42    35    1
    12    10     9    1
    13    10    16    1
    14    37    36    1
    15    15    16    1
    16    35    36    1
    17    35    33    1
    18     9     2   am
    19    16    17    1
    20     2     1    2
    21     2     3    1
    22     3     8   ar
    23     3     4   ar
    24     8     7   ar
    25    33    32   ar
    26    33    34   ar
    27    32    31   ar
    28    17    18   am
    29     7     6   ar
    30     4     5   ar
    31     6     5   ar
    32    23    24   ar
    33    23    20   ar
    34    24    25   ar
    35    34    28   ar
    36    31    29   ar
    37    18    20    1
    38    18    19    2
    39    29    28   ar
    40    29    30    1
    41    28    26    1
    42    20    21   ar
    43    25    26    1
    44    25    22   ar
    45    26    27    2
    46    21    22   ar
