@<TRIPOS>MOLECULE
1xh9_R69_A_1.pdb
 37 40 0 0 0
SMALL
GASTEIGER

@<TRIPOS>ATOM
      1  O22       10.0720   39.6130    9.4250 O.2   351  R69351     -0.2684
      2  C21       10.1020   40.8510    9.2840 C.2   351  R69351      0.2649
      3  C14       10.2490   41.4880    7.9680 C.ar  351  R69351      0.0581
      4  C13       10.0960   40.7380    6.8000 C.ar  351  R69351      0.0252
      5  C12       10.2090   41.3170    5.5390 C.ar  351  R69351      0.0990
      6  N11       10.4740   42.6110    5.4030 N.ar  351  R69351     -0.2423
      7  C16       10.6380   43.3550    6.5060 C.ar  351  R69351      0.0990
      8  C15       10.5300   42.8480    7.7990 C.ar  351  R69351      0.0252
      9  N23        9.9370   41.6510   10.4070 N.am  351  R69351     -0.2002
     10  C31        9.3990   41.1270   11.6700 C.3   351  R69351      0.1328
     11  C32        7.9570   41.6440   11.8140 C.3   351  R69351      0.1120
     12  N33        7.3140   41.0610   13.0440 N.3   351  R69351     -0.2162
     13  C34        7.5170   41.9130   14.2990 C.3   351  R69351      0.0888
     14  C35        8.9340   41.8200   14.8670 C.3   351  R69351      0.0206
     15  C36        9.9800   42.4120   13.9090 C.3   351  R69351      0.0250
     16  C37       10.4410   41.4570   12.7840 C.3   351  R69351      0.1170
     17  N41       10.9590   40.1770   13.3160 N.am  351  R69351     -0.2016
     18  C42       12.1220   40.1060   14.0600 C.2   351  R69351      0.2648
     19  O43       12.8560   41.0850   14.1060 O.2   351  R69351     -0.2684
     20  C51       12.4330   38.8970   14.8490 C.ar  351  R69351      0.0550
     21  C52       13.7470   38.6670   15.3180 C.ar  351  R69351      0.0047
     22  C53       14.0360   37.5560   16.0970 C.ar  351  R69351      0.0033
     23  C56       11.4330   37.9930   15.1920 C.ar  351  R69351      0.0047
     24  C55       11.7310   36.8840   15.9670 C.ar  351  R69351      0.0033
     25  C54       13.0190   36.6430   16.4290 C.ar  351  R69351      0.0391
     26  C61       13.3100   35.5040   17.2950 C.2   351  R69351      0.1987
     27  O62       14.2690   35.6380   18.0900 O.2   351  R69351     -0.2865
     28  C71       12.5680   34.2790   17.3660 C.ar  351  R69351      0.0790
     29  C72       12.4150   33.4450   16.2240 C.ar  351  R69351      0.1988
     30  O92       12.9030   33.7670   15.0670 O.3   351  R69351     -0.2865
     31  C73       11.6880   32.2340   16.3820 C.ar  351  R69351      0.0434
     32  C74       11.1520   31.8950   17.6050 C.ar  351  R69351      0.0178
     33  C76       12.0210   33.9220   18.6160 C.ar  351  R69351      0.0209
     34  C75       11.3170   32.7300   18.7380 C.ar  351  R69351      0.0482
     35  N95       10.7360   32.3640   19.9810 N.pl3 351  R69351     -0.3041
     36  C98       10.6010   30.9260   20.2820 C.3   351  R69351      0.1122
     37  C99        9.5650   33.1730   20.3690 C.3   351  R69351      0.1122
@<TRIPOS>BOND
     1     6     5   ar
     2     6     7   ar
     3     5     4   ar
     4     7     8   ar
     5     4     3   ar
     6     8     3   ar
     7     3     2    1
     8     2     1    2
     9     2     9   am
    10     9    10    1
    11    10    11    1
    12    10    16    1
    13    11    12    1
    14    16    17    1
    15    16    15    1
    16    12    13    1
    17    17    18   am
    18    15    14    1
    19    18    19    2
    20    18    20    1
    21    13    14    1
    22    20    23   ar
    23    20    21   ar
    24    30    29    1
    25    23    24   ar
    26    21    22   ar
    27    24    25   ar
    28    22    25   ar
    29    29    31   ar
    30    29    28   ar
    31    31    32   ar
    32    25    26    1
    33    26    28    1
    34    26    27    2
    35    28    33   ar
    36    32    34   ar
    37    33    34   ar
    38    34    35    1
    39    35    36    1
    40    35    37    1
