@<TRIPOS>MOLECULE
1xha_R68_A_1.pdb
 43 47 0 0 0
SMALL
GASTEIGER

@<TRIPOS>ATOM
      1  O22        6.5990   38.1980   42.4640 O.2   1001  R681001    -0.2684
      2  C21        6.6700   39.4110   42.6570 C.2   1001  R681001     0.2649
      3  C14        7.8350   40.0550   43.2890 C.ar  1001  R681001     0.0581
      4  C13        8.9950   39.3240   43.5120 C.ar  1001  R681001     0.0252
      5  C12       10.0750   39.9410   44.1060 C.ar  1001  R681001     0.0990
      6  N11       10.0610   41.2140   44.4910 N.ar  1001  R681001    -0.2423
      7  C16        8.9750   41.9460   44.2840 C.ar  1001  R681001     0.0990
      8  C15        7.8510   41.4010   43.6830 C.ar  1001  R681001     0.0252
      9  N23        5.5890   40.1640   42.2440 N.am  1001  R681001    -0.2002
     10  C31        4.6270   39.6180   41.2870 C.3   1001  R681001     0.1328
     11  C32        4.9330   40.1580   39.8570 C.3   1001  R681001     0.1120
     12  N33        4.0680   39.5310   38.8370 N.3   1001  R681001    -0.2162
     13  C34        2.8310   40.3140   38.6200 C.3   1001  R681001     0.0888
     14  C35        1.8090   40.2480   39.7590 C.3   1001  R681001     0.0206
     15  C36        2.3410   40.8780   41.0650 C.3   1001  R681001     0.0250
     16  C37        3.2390   39.9170   41.8690 C.3   1001  R681001     0.1170
     17  N41        2.5680   38.6430   42.1190 N.am  1001  R681001    -0.2016
     18  C42        1.4460   38.5720   42.9450 C.2   1001  R681001     0.2648
     19  O43        1.2450   39.5340   43.6820 O.2   1001  R681001    -0.2684
     20  C51        0.5900   37.3720   42.9310 C.ar  1001  R681001     0.0550
     21  C52       -0.1770   37.0400   44.0720 C.ar  1001  R681001     0.0047
     22  C53       -0.9860   35.9110   44.0800 C.ar  1001  R681001     0.0033
     23  C56        0.5180   36.5310   41.8070 C.ar  1001  R681001     0.0047
     24  C55       -0.2970   35.3990   41.7950 C.ar  1001  R681001     0.0033
     25  C54       -1.0500   35.0770   42.9460 C.ar  1001  R681001     0.0391
     26  C61       -1.9100   33.8920   42.9570 C.2   1001  R681001     0.2008
     27  O62       -2.7770   33.8530   43.8160 O.2   1001  R681001    -0.2864
     28  C71       -1.8380   32.7910   41.9990 C.ar  1001  R681001     0.1049
     29  C72       -0.9500   31.6930   42.0770 C.ar  1001  R681001     0.2009
     30  O82       -0.0430   31.6100   43.0920 O.3   1001  R681001    -0.2864
     31  C73       -0.9660   30.6710   41.1160 C.ar  1001  R681001     0.0420
     32  C74       -1.8740   30.7200   40.0450 C.ar  1001  R681001     0.0026
     33  C75       -2.7740   31.7900   39.9360 C.ar  1001  R681001     0.0213
     34  C76       -2.7210   32.7890   40.9190 C.ar  1001  R681001     0.1436
     35  F89       -3.5660   33.8090   40.8570 F     1001  R681001    -0.2042
     36  C91       -3.7780   31.8030   38.8060 C.3   1001  R681001     0.0970
     37  C92       -3.2990   32.4290   37.4570 C.3   1001  R681001     0.0188
     38  C97       -2.1300   31.6330   36.8560 C.3   1001  R681001     0.0017
     39  C98       -2.8540   33.8860   37.6320 C.3   1001  R681001     0.0017
     40  C93       -4.4970   32.3480   36.4620 C.3   1001  R681001     0.0031
     41  C94       -5.8120   33.0100   36.9760 C.3   1001  R681001     0.0189
     42  C95       -6.2180   32.2880   38.2720 C.3   1001  R681001     0.0890
     43  N96       -5.1070   32.3260   39.2810 N.3   1001  R681001    -0.2150
@<TRIPOS>BOND
     1    40    41    1
     2    40    37    1
     3    38    37    1
     4    41    42    1
     5    37    39    1
     6    37    36    1
     7    42    43    1
     8    13    12    1
     9    13    14    1
    10    36    43    1
    11    36    33    1
    12    12    11    1
    13    14    15    1
    14    11    10    1
    15    33    32   ar
    16    33    34   ar
    17    32    31   ar
    18    35    34    1
    19    34    28   ar
    20    15    16    1
    21    31    29   ar
    22    10    16    1
    23    10     9    1
    24    24    23   ar
    25    24    25   ar
    26    23    20   ar
    27    16    17    1
    28    28    29   ar
    29    28    26    1
    30    29    30    1
    31    17    18   am
    32     9     2   am
    33     1     2    2
    34     2     3    1
    35    20    18    1
    36    20    21   ar
    37    18    19    2
    38    25    26    1
    39    25    22   ar
    40    26    27    2
    41     3     4   ar
    42     3     8   ar
    43     4     5   ar
    44     8     7   ar
    45    21    22   ar
    46     5     6   ar
    47     7     6   ar
