@<TRIPOS>MOLECULE
1xhl_NDP_A_1.pdb
 48 52 0 0 0
SMALL
GASTEIGER

@<TRIPOS>ATOM
      1  PA         6.4720  107.7560   21.4280 P.3   1278  NDP1278     0.2189
      2  O1A        5.0390  107.7880   21.1900 O.2   1278  NDP1278    -0.5170
      3  O2A        7.4360  108.7570   21.7670 O.3   1278  NDP1278    -0.4371
      4  O5B        7.0740  106.4640   20.6920 O.3   1278  NDP1278    -0.3112
      5  C5B        8.5280  106.1580   20.7220 C.3   1278  NDP1278     0.1813
      6  C4B        8.5700  104.7780   20.0730 C.3   1278  NDP1278     0.1820
      7  O4B        9.9030  104.3260   19.7300 O.3   1278  NDP1278    -0.3136
      8  C3B        8.0130  103.6630   21.0240 C.3   1278  NDP1278     0.2157
      9  O3B        7.3220  102.6610   20.3240 O.3   1278  NDP1278    -0.2175
     10  C2B        9.3330  103.3200   21.7870 C.3   1278  NDP1278     0.2314
     11  O2B        9.3380  102.0480   22.4110 O.3   1278  NDP1278    -0.2630
     12  C1B       10.3610  103.4350   20.6200 C.3   1278  NDP1278     0.3158
     13  N9A       11.6830  103.6600   21.0710 N.pl3 1278  NDP1278    -0.1439
     14  C8A       12.3050  104.8200   21.5400 C.3   1278  NDP1278     0.3377
     15  N7A       13.5390  104.6280   21.8650 N.2   1278  NDP1278    -0.2095
     16  C5A       13.7910  103.2920   21.6130 C.2   1278  NDP1278     0.2526
     17  C6A       14.9310  102.4500   21.7550 C.2   1278  NDP1278     0.4393
     18  N6A       16.1490  102.8270   22.2090 N.pl3 1278  NDP1278     0.2180
     19  N1A       14.8260  101.0980   21.3940 N.2   1278  NDP1278     0.0021
     20  C2A       13.6070  100.6430   20.9210 C.3   1278  NDP1278     0.5254
     21  N3A       12.5160  101.3590   20.7640 N.2   1278  NDP1278    -0.0055
     22  C4A       12.6460  102.6900   21.1290 C.2   1278  NDP1278     0.3518
     23  O3         6.6190  108.5810   19.9810 O.3   1278  NDP1278    -0.2703
     24  PN         5.6860  108.9060   18.6470 P.3   1278  NDP1278     0.2189
     25  O1N        6.0240  109.7330   17.5290 O.2   1278  NDP1278    -0.5170
     26  O2N        4.7180  107.8770   18.3210 O.3   1278  NDP1278    -0.4371
     27  O5D        6.8850  107.9660   17.9810 O.3   1278  NDP1278    -0.3112
     28  C5D        8.2500  108.4170   17.8140 C.3   1278  NDP1278     0.1813
     29  C4D        8.7100  108.5910   16.3730 C.3   1278  NDP1278     0.1799
     30  O4D        7.9140  109.6560   15.7270 O.3   1278  NDP1278    -0.3327
     31  C3D       10.1760  109.0790   16.2330 C.3   1278  NDP1278     0.2158
     32  O3D       10.7780  108.5390   15.0430 O.3   1278  NDP1278    -0.2175
     33  C2D        9.9550  110.5670   16.2380 C.3   1278  NDP1278     0.2309
     34  O2D       11.0880  111.3710   15.8950 O.3   1278  NDP1278    -0.2158
     35  C1D        8.7580  110.6810   15.3080 C.3   1278  NDP1278     0.2263
     36  N1N        8.1310  112.0610   15.3930 N.pl3 1278  NDP1278    -0.2787
     37  C2N        7.1820  112.2910   16.4610 C.3   1278  NDP1278     0.1244
     38  C3N        6.5930  113.5630   16.5520 C.2   1278  NDP1278     0.0544
     39  C7N        5.5290  113.8720   17.7080 C.2   1278  NDP1278     0.2818
     40  O7N        5.0590  114.9910   17.7280 O.2   1278  NDP1278    -0.2670
     41  N7N        5.2720  112.8280   18.5360 N.am  1278  NDP1278    -0.0839
     42  C4N        6.8820  114.6380   15.6580 C.2   1278  NDP1278     0.0033
     43  C5N        7.8310  114.3000   14.6440 C.2   1278  NDP1278     0.0157
     44  C6N        8.4620  113.0720   14.4740 C.2   1278  NDP1278     0.0633
     45  P2B        9.0810  101.8590   24.0370 P.3   1278  NDP1278     0.5328
     46  O1X        9.1020  100.4740   24.5800 O.3   1278  NDP1278    -0.1145
     47  O2X        9.2690  103.1660   24.7550 O.3   1278  NDP1278    -0.1145
     48  O3X       10.5480  101.7920   24.0190 O.2   1278  NDP1278    -0.2224
@<TRIPOS>BOND
     1    44    43    2
     2    44    36    1
     3    43    42    1
     4    32    31    1
     5    35    36    1
     6    35    30    1
     7    35    33    1
     8    36    37    1
     9    42    38    2
    10    30    29    1
    11    34    33    1
    12    31    33    1
    13    31    29    1
    14    29    28    1
    15    37    38    1
    16    38    39    1
    17    25    24    2
    18    39    40    2
    19    39    41   am
    20    28    27    1
    21    27    24    1
    22    26    24    1
    23    24    23    1
    24     7     6    1
    25     7    12    1
    26    23     1    1
    27     6     5    1
    28     6     8    1
    29     9     8    1
    30    12    13    1
    31    12    10    1
    32     4     5    1
    33     4     1    1
    34    21    20    1
    35    21    22    2
    36    20    19    1
    37     8    10    1
    38    13    22    1
    39    13    14    1
    40    22    16    1
    41     2     1    2
    42    19    17    2
    43     1     3    1
    44    14    15    1
    45    16    17    1
    46    16    15    2
    47    17    18    1
    48    10    11    1
    49    11    45    1
    50    48    45    2
    51    45    46    1
    52    45    47    1
