@<TRIPOS>MOLECULE
1xhl_TNE_A_1.pdb
 10 11 0 0 0
SMALL
GASTEIGER

@<TRIPOS>ATOM
      1  C1         6.9790  119.8370   17.6310 C.3   1279  TNE1279     0.0649
      2  C2         6.0800  120.0870   18.9130 C.3   1279  TNE1279     0.0805
      3  C3         5.9670  118.7540   19.8150 C.2   1279  TNE1279     0.1534
      4  O3         5.1600  118.6910   20.7460 O.2   1279  TNE1279    -0.2960
      5  C4         6.9170  117.4960   19.4780 C.3   1279  TNE1279     0.0805
      6  C5         7.6550  117.6700   18.1030 C.3   1279  TNE1279     0.0649
      7  C6         8.9410  118.5140   18.3310 C.3   1279  TNE1279     0.0178
      8  C7         8.4960  119.9710   18.0080 C.3   1279  TNE1279     0.0178
      9  N8         6.7930  118.4380   17.1740 N.3   1279  TNE1279    -0.2732
     10  C9         7.2530  118.2800   15.7480 C.3   1279  TNE1279     0.0896
@<TRIPOS>BOND
     1    10     9    1
     2     9     1    1
     3     9     6    1
     4     1     8    1
     5     1     2    1
     6     8     7    1
     7     6     7    1
     8     6     5    1
     9     2     3    1
    10     5     3    1
    11     3     4    2
