@<TRIPOS>MOLECULE
1xhy_KAI_A_1.pdb
 15 15 0 0 0
SMALL
GASTEIGER

@<TRIPOS>ATOM
      1  N         12.5840    7.2410   24.6640 N.3   1001  KAI1001    -0.2084
      2  CD        13.0020    8.6420   24.3830 C.3   1001  KAI1001     0.0893
      3  CD1       15.0920   10.3470   22.8180 C.3   1001  KAI1001     0.0000
      4  CD2       16.9690    9.3740   24.2830 C.3   1001  KAI1001     0.0000
      5  CA        13.7070    6.3650   24.8550 C.3   1001  KAI1001     0.1762
      6  CB        14.9130    7.1570   24.4620 C.3   1001  KAI1001     0.0397
      7  CB1       15.0390    6.9700   22.9400 C.3   1001  KAI1001     0.1160
      8  CG        14.5200    8.5810   24.5590 C.3   1001  KAI1001     0.0199
      9  CG1       15.7450    5.7410   22.4050 C.2   1001  KAI1001     0.3649
     10  CG2       15.4890    9.6650   24.0820 C.3   1001  KAI1001     0.0015
     11  C         13.8130    6.1160   26.3680 C.2   1001  KAI1001     0.3803
     12  O         12.9650    6.4240   27.2290 O.co2 1001  KAI1001    -0.2441
     13  OD1       15.7330    5.5370   21.0590 O.co2 1001  KAI1001    -0.2457
     14  OD2       16.3310    4.9990   23.1790 O.co2 1001  KAI1001    -0.2457
     15  OXT       14.9050    5.5720   26.8230 O.co2 1001  KAI1001    -0.2441
@<TRIPOS>BOND
     1    13     9   ar
     2     9     7    1
     3     9    14   ar
     4     3    10    1
     5     7     6    1
     6    10     4    1
     7    10     8    1
     8     2     8    1
     9     2     1    1
    10     6     8    1
    11     6     5    1
    12     1     5    1
    13     5    11    1
    14    11    15   ar
    15    11    12   ar
