@<TRIPOS>MOLECULE
1xhz_NUC_F_1.pdb
 37 40 0 0 0
SMALL
GASTEIGER

@<TRIPOS>ATOM
      1  O5'       31.0780   12.3620  146.1900 O.3     4  DT4        -0.2176
      2  C5'       31.9800   11.2400  146.1660 C.3     4  DT4         0.2140
      3  C4'       31.3280    9.9860  145.6270 C.3     4  DT4         0.1774
      4  O4'       31.1230   10.1560  144.2040 O.3     4  DT4        -0.3339
      5  C3'       32.1370    8.6960  145.7960 C.3     4  DT4         0.1557
      6  O3'       31.3070    7.5830  146.1710 O.3     4  DT4        -0.3139
      7  C2'       32.7730    8.4750  144.4340 C.3     4  DT4         0.0845
      8  C1'       31.8720    9.2120  143.4480 C.3     4  DT4         0.2089
      9  N1        32.6620    9.9720  142.4510 N.am    4  DT4        -0.1794
     10  C2        32.4560    9.7720  141.0980 C.1     4  DT4         0.2844
     11  O2        31.6180    9.0050  140.6490 O.2     4  DT4        -0.1918
     12  N3        33.2810   10.5150  140.2820 N.2     4  DT4        -0.2455
     13  C4        34.2560   11.4170  140.6730 C.1     4  DT4         0.2134
     14  O4        34.9270   12.0030  139.8270 O.2     4  DT4        -0.2088
     15  C5        34.3990   11.5880  142.0980 C.2     4  DT4         0.0891
     16  C7        35.4150   12.5550  142.6160 C.3     4  DT4         0.0462
     17  C6        33.6080   10.8690  142.9010 C.2     4  DT4         0.0877
     18  P         31.9270    6.3880  147.0630 P.3     5  DT5         0.2141
     19  OP1       30.8280    5.7810  147.8650 O.3     5  DT5        -0.4373
     20  OP2       33.1380    6.8980  147.7550 O.2     5  DT5        -0.5172
     21  O5'       32.3940    5.3130  145.9820 O.3     5  DT5        -0.3114
     22  C5'       33.5160    4.4530  146.2200 C.3     5  DT5         0.1812
     23  C4'       34.0830    3.9610  144.9060 C.3     5  DT5         0.1773
     24  O4'       34.6040    5.0890  144.1590 O.3     5  DT5        -0.3339
     25  C3'       35.2500    2.9810  145.0240 C.3     5  DT5         0.1857
     26  O3'       35.3360    2.2350  143.8100 O.3     5  DT5        -0.2203
     27  C2'       36.4560    3.8980  144.9840 C.3     5  DT5         0.0874
     28  C1'       36.0080    4.9450  143.9770 C.3     5  DT5         0.2090
     29  N1        36.6350    6.2680  144.1640 N.am    5  DT5        -0.1794
     30  C2        37.8470    6.4910  143.5550 C.1     5  DT5         0.2844
     31  O2        38.4060    5.6580  142.8600 O.2     5  DT5        -0.1918
     32  N3        38.3850    7.7320  143.7870 N.2     5  DT5        -0.2455
     33  C4        37.8400    8.7510  144.5460 C.1     5  DT5         0.2134
     34  O4        38.4440    9.8120  144.6700 O.2     5  DT5        -0.2088
     35  C5        36.5600    8.4540  145.1470 C.2     5  DT5         0.0891
     36  C7        35.8900    9.5010  145.9800 C.3     5  DT5         0.0462
     37  C6        36.0290    7.2430  144.9290 C.2     5  DT5         0.0877
@<TRIPOS>BOND
     1    14    13    2
     2    12    13    2
     3    12    10    2
     4    11    10    2
     5    13    15    1
     6    10     9   am
     7    15    16    1
     8    15    17    2
     9     9    17    1
    10     9     8    1
    11    31    30    2
    12     8     4    1
    13     8     7    1
    14    30    32    2
    15    30    29   am
    16    32    33    2
    17    26    25    1
    18    28    24    1
    19    28    29    1
    20    28    27    1
    21    24    23    1
    22    29    37    1
    23     4     3    1
    24     7     5    1
    25    33    34    2
    26    33    35    1
    27    23    25    1
    28    23    22    1
    29    37    35    2
    30    27    25    1
    31    35    36    1
    32     3     5    1
    33     3     2    1
    34     5     6    1
    35    21    22    1
    36    21    18    1
    37     2     1    1
    38     6    18    1
    39    18    20    2
    40    18    19    1
