@<TRIPOS>MOLECULE
1xi2_CB1_A_1.pdb
 18 19 0 0 0
SMALL
GASTEIGER

@<TRIPOS>ATOM
      1  C         34.2780   15.8570   31.8100 C.ar  501  CB1501      0.0496
      2  C1        33.5820   15.4210   32.9360 C.ar  501  CB1501      0.1490
      3  C2        34.3040   15.0190   34.0620 C.ar  501  CB1501      0.0804
      4  C4        35.6940   15.0190   34.0140 C.ar  501  CB1501      0.0225
      5  C5        36.3820   15.4280   32.8770 C.ar  501  CB1501      0.0709
      6  C8        35.6670   15.8750   31.7650 C.ar  501  CB1501      0.1577
      7  N         32.2680   15.2540   32.7980 N.pl3 501  CB1501      0.0579
      8  O1        31.5330   15.9690   32.3010 O.2   501  CB1501     -0.1261
      9  O2        31.7540   14.6180   33.5770 O.2   501  CB1501     -0.1261
     10  C3        33.6490   14.6830   35.4040 C.2   501  CB1501      0.2858
     11  N1        34.1340   13.5890   36.0070 N.am  501  CB1501     -0.0837
     12  O         33.0350   15.7210   35.6150 O.2   501  CB1501     -0.2666
     13  N6        37.6960   15.2210   32.8320 N.pl3 501  CB1501     -0.3028
     14  C7        38.9070   14.8060   33.5550 C.3   501  CB1501      0.1123
     15  C9        38.9070   14.9580   32.0390 C.3   501  CB1501      0.1123
     16  N3        36.2620   16.4140   30.7030 N.pl3 501  CB1501      0.0590
     17  O3        37.3670   16.6710   30.6820 O.2   501  CB1501     -0.1261
     18  O4        35.6370   16.7580   29.7830 O.2   501  CB1501     -0.1261
@<TRIPOS>BOND
     1    18    16    2
     2    17    16    2
     3    16     6    1
     4     6     1   ar
     5     6     5   ar
     6     1     2   ar
     7    15    13    1
     8    15    14    1
     9     8     7    2
    10     7     2    1
    11     7     9    2
    12    13     5    1
    13    13    14    1
    14     5     4   ar
    15     2     3   ar
    16     4     3   ar
    17     3    10    1
    18    10    12    2
    19    10    11   am
