@<TRIPOS>MOLECULE
1xi9_PLP_A_1.pdb
 15 15 0 0 0
SMALL
GASTEIGER

@<TRIPOS>ATOM
      1  N1        79.6110  116.6810   55.8290 N.ar  501  PLP501     -0.2452
      2  C2        80.7890  116.5650   56.5460 C.ar  501  PLP501      0.0978
      3  C2A       80.8850  117.2000   57.8980 C.3   501  PLP501      0.0555
      4  C3        81.8720  115.8630   56.0060 C.ar  501  PLP501      0.2049
      5  O3        83.0670  115.7770   56.6670 O.3   501  PLP501     -0.2857
      6  C4        81.7630  115.2790   54.7460 C.ar  501  PLP501      0.0182
      7  C4A       82.9760  114.5410   54.2170 C.3   501  PLP501      0.0342
      8  C5        80.5570  115.4100   54.0080 C.ar  501  PLP501      0.0261
      9  C6        79.4890  116.1120   54.5770 C.ar  501  PLP501      0.0965
     10  C5A       80.5290  115.2160   52.4940 C.3   501  PLP501      0.1815
     11  O4P       80.5490  113.8190   52.3000 O.3   501  PLP501     -0.2653
     12  P         80.1420  113.0530   50.9420 P.3   501  PLP501      0.5329
     13  O1P       78.9140  112.2330   51.2790 O.3   501  PLP501     -0.1145
     14  O2P       81.2660  112.1320   50.5710 O.3   501  PLP501     -0.1145
     15  O3P       79.8190  113.9590   49.7830 O.2   501  PLP501     -0.2224
@<TRIPOS>BOND
     1    15    12    2
     2    14    12    1
     3    12    13    1
     4    12    11    1
     5    11    10    1
     6    10     8    1
     7     8     9   ar
     8     8     6   ar
     9     7     6    1
    10     9     1   ar
    11     6     4   ar
    12     1     2   ar
    13     4     2   ar
    14     4     5    1
    15     2     3    1
