@<TRIPOS>MOLECULE
1xic_XLS_A_1.pdb
 10 9 0 0 0
SMALL
GASTEIGER

@<TRIPOS>ATOM
      1  C1        33.3850   31.1830   57.0430 C.3   389  XLS389      0.2175
      2  C2        32.7840   32.0100   57.8470 C.3   389  XLS389      0.2179
      3  C3        33.7980   33.0840   57.7200 C.3   389  XLS389      0.2225
      4  C4        35.2690   32.5620   57.7110 C.3   389  XLS389      0.2486
      5  C5        35.5950   33.8510   57.1010 C.2   389  XLS389      0.2427
      6  O1        32.5010   30.9310   56.2760 O.3   389  XLS389     -0.2175
      7  O2        31.5350   32.2080   58.2190 O.3   389  XLS389     -0.2175
      8  O3        33.4340   33.8000   58.8540 O.3   389  XLS389     -0.2171
      9  O4        35.4900   32.0190   59.0090 O.3   389  XLS389     -0.2118
     10  O5        35.7260   34.8680   57.6710 O.2   389  XLS389     -0.2854
@<TRIPOS>BOND
     1     6     1    1
     2     1     2    1
     3     5    10    2
     4     5     4    1
     5     4     3    1
     6     4     9    1
     7     3     2    1
     8     3     8    1
     9     2     7    1
