@<TRIPOS>MOLECULE
1xid_ASC_A_1.pdb
 12 12 0 0 0
SMALL
GASTEIGER

@<TRIPOS>ATOM
      1  C1        33.7170   31.7430   57.4010 C.2   389  ASC389      0.3557
      2  C2        34.0770   33.0500   58.0420 C.3   389  ASC389      0.3096
      3  C3        35.2800   33.4330   57.6410 C.2   389  ASC389      0.2342
      4  C4        35.8270   32.3570   56.7650 C.3   389  ASC389      0.2612
      5  C5        37.0700   31.6570   57.3350 C.3   389  ASC389      0.2318
      6  C6        37.4660   30.1960   57.0250 C.3   389  ASC389      0.2190
      7  O1        32.6470   31.1640   57.3420 O.2   389  ASC389     -0.2468
      8  O2        33.3120   33.7940   58.8710 O.3   389  ASC389     -0.2028
      9  O3        35.7420   34.5650   57.4820 O.2   389  ASC389     -0.2889
     10  O4        34.8300   31.2960   56.7440 O.3   389  ASC389     -0.4397
     11  O5        37.0010   31.8330   58.7540 O.3   389  ASC389     -0.2159
     12  O6        38.9280   30.2240   57.2830 O.3   389  ASC389     -0.2174
@<TRIPOS>BOND
     1    10     4    1
     2    10     1    1
     3     4     5    1
     4     4     3    1
     5     6    12    1
     6     6     5    1
     7     5    11    1
     8     7     1    2
     9     1     2    1
    10     9     3    2
    11     3     2    1
    12     2     8    1
