@<TRIPOS>MOLECULE
1xie_ASO_A_1.pdb
 11 11 0 0 0
SMALL
GASTEIGER

@<TRIPOS>ATOM
      1  C1        35.5270   30.9090   56.5090 C.3   389  ASO389      0.1777
      2  C2        35.9210   32.3980   56.4100 C.3   389  ASO389      0.2141
      3  C3        35.5500   33.1430   57.6980 C.3   389  ASO389      0.2173
      4  C4        34.0900   32.9080   57.9950 C.3   389  ASO389      0.2142
      5  C5        33.6460   31.4570   57.9690 C.3   389  ASO389      0.1810
      6  C6        32.2550   31.1760   57.4430 C.3   389  ASO389      0.2141
      7  O2        37.3330   32.5130   56.1820 O.3   389  ASO389     -0.2176
      8  O3        35.6740   34.5600   57.5000 O.3   389  ASO389     -0.2175
      9  O4        33.5340   33.6310   59.0510 O.3   389  ASO389     -0.2176
     10  O5        34.1350   30.8000   56.7860 O.3   389  ASO389     -0.3481
     11  O6        31.3430   32.2410   57.5800 O.3   389  ASO389     -0.2176
@<TRIPOS>BOND
     1     7     2    1
     2     2     1    1
     3     2     3    1
     4     1    10    1
     5    10     5    1
     6     6    11    1
     7     6     5    1
     8     8     3    1
     9     3     4    1
    10     5     4    1
    11     4     9    1
