@<TRIPOS>MOLECULE
1xif_GLC_A_1.pdb
 12 12 0 0 0
SMALL
GASTEIGER

@<TRIPOS>ATOM
      1  C1        35.4300   30.9180   56.6200 C.3   389  GLC389      0.3024
      2  C2        35.9930   32.3700   56.5350 C.3   389  GLC389      0.2434
      3  C3        35.6260   33.1400   57.8050 C.3   389  GLC389      0.2199
      4  C4        34.1080   33.1130   57.9150 C.3   389  GLC389      0.2144
      5  C5        33.6270   31.6650   58.0620 C.3   389  GLC389      0.1836
      6  C6        32.1510   31.3540   57.9450 C.3   389  GLC389      0.2142
      7  O1        36.1230   30.1540   57.6240 O.3   389  GLC389     -0.1869
      8  O2        37.4260   32.4630   56.3780 O.3   389  GLC389     -0.2148
      9  O3        35.9190   34.5450   57.6650 O.3   389  GLC389     -0.2174
     10  O4        33.6910   33.7500   59.0780 O.3   389  GLC389     -0.2176
     11  O5        33.9840   30.9730   56.8100 O.3   389  GLC389     -0.3236
     12  O6        31.3290   32.3680   57.4360 O.3   389  GLC389     -0.2176
@<TRIPOS>BOND
     1     8     2    1
     2     2     1    1
     3     2     3    1
     4     1    11    1
     5     1     7    1
     6    11     5    1
     7    12     6    1
     8     9     3    1
     9     3     4    1
    10     4     5    1
    11     4    10    1
    12     6     5    1
