@<TRIPOS>MOLECULE
1xig_XYL_A_1.pdb
 10 9 0 0 0
SMALL
GASTEIGER

@<TRIPOS>ATOM
      1  C1        37.0630   33.6230   56.1200 C.3   389  XYL389      0.2175
      2  C2        35.7190   33.9840   56.7180 C.3   389  XYL389      0.2175
      3  C3        35.0160   32.7190   57.2360 C.3   389  XYL389      0.2175
      4  C4        33.5410   32.9730   57.5450 C.3   389  XYL389      0.2175
      5  C5        32.6800   31.7150   57.6080 C.3   389  XYL389      0.2175
      6  O1        37.6490   34.7320   55.8510 O.3   389  XYL389     -0.2175
      7  O2        35.9330   34.8070   57.7950 O.3   389  XYL389     -0.2175
      8  O3        35.6670   32.1420   58.3570 O.3   389  XYL389     -0.2175
      9  O4        33.3230   33.7090   58.7370 O.3   389  XYL389     -0.2175
     10  O5        32.6720   30.8920   56.4730 O.3   389  XYL389     -0.2175
@<TRIPOS>BOND
     1     6     1    1
     2     1     2    1
     3    10     5    1
     4     2     3    1
     5     2     7    1
     6     3     4    1
     7     3     8    1
     8     4     5    1
     9     4     9    1
