@<TRIPOS>MOLECULE
1xih_SOR_A_1.pdb
 12 11 0 0 0
SMALL
GASTEIGER

@<TRIPOS>ATOM
      1  C1        37.0180   33.9420   56.1150 C.3   389  SOR389      0.2175
      2  C2        35.6310   34.1970   56.6880 C.3   389  SOR389      0.2175
      3  C3        34.9550   32.9210   57.1860 C.3   389  SOR389      0.2175
      4  C4        33.4430   33.0870   57.4180 C.3   389  SOR389      0.2175
      5  C5        32.7610   31.7480   57.6120 C.3   389  SOR389      0.2175
      6  C6        31.2400   31.9960   57.7480 C.3   389  SOR389      0.2175
      7  O1        37.4940   35.1130   55.7370 O.3   389  SOR389     -0.2175
      8  O2        35.8060   35.0740   57.8140 O.3   389  SOR389     -0.2175
      9  O3        35.5290   32.4690   58.4180 O.3   389  SOR389     -0.2175
     10  O4        33.1760   33.9090   58.5680 O.3   389  SOR389     -0.2175
     11  O5        32.7570   31.0450   56.3720 O.3   389  SOR389     -0.2175
     12  O6        31.0400   32.0180   59.1680 O.3   389  SOR389     -0.2175
@<TRIPOS>BOND
     1     7     1    1
     2     1     2    1
     3    11     5    1
     4     2     3    1
     5     2     8    1
     6     3     4    1
     7     3     9    1
     8     4     5    1
     9     4    10    1
    10     5     6    1
    11     6    12    1
