@<TRIPOS>MOLECULE
1xii_XUL_A_1.pdb
 10 9 0 0 0
SMALL
GASTEIGER

@<TRIPOS>ATOM
      1  C1        37.1510   33.3980   55.9500 C.3   389  XUL389      0.2486
      2  C2        36.0240   33.7250   57.0500 C.2   389  XUL389      0.2165
      3  C3        35.1180   32.5640   57.4060 C.3   389  XUL389      0.2440
      4  C4        33.6810   33.0440   57.5950 C.3   389  XUL389      0.2221
      5  C5        32.7240   31.8350   57.7110 C.3   389  XUL389      0.2179
      6  O1        37.8300   34.6640   55.7210 O.3   389  XUL389     -0.2118
      7  O2        35.8020   34.8830   57.4930 O.2   389  XUL389     -0.2905
      8  O3        35.6150   31.9720   58.6200 O.3   389  XUL389     -0.2122
      9  O4        33.4730   33.7330   58.7980 O.3   389  XUL389     -0.2171
     10  O5        32.7970   31.0020   56.5410 O.3   389  XUL389     -0.2175
@<TRIPOS>BOND
     1     6     1    1
     2     1     2    1
     3    10     5    1
     4     2     3    1
     5     2     7    2
     6     3     4    1
     7     3     8    1
     8     4     5    1
     9     4     9    1
