@<TRIPOS>MOLECULE
1xim_XYL_A_1.pdb
 10 9 0 0 0
SMALL
GASTEIGER

@<TRIPOS>ATOM
      1  C1        30.3710   44.0260  171.7720 C.3   397  XYL397      0.2175
      2  C2        31.5990   43.6230  170.9970 C.3   397  XYL397      0.2175
      3  C3        31.7500   42.1110  170.7660 C.3   397  XYL397      0.2175
      4  C4        33.1130   41.6950  170.2200 C.3   397  XYL397      0.2175
      5  C5        33.3860   40.2010  170.2630 C.3   397  XYL397      0.2175
      6  O1        30.4150   45.4660  171.9830 O.3   397  XYL397     -0.2175
      7  O2        31.4720   44.3250  169.7620 O.3   397  XYL397     -0.2175
      8  O3        30.7030   41.5960  169.9340 O.3   397  XYL397     -0.2175
      9  O4        33.4080   42.1580  168.8750 O.3   397  XYL397     -0.2175
     10  O5        33.6750   39.7650  171.5650 O.3   397  XYL397     -0.2175
@<TRIPOS>BOND
     1     9     4    1
     2     7     2    1
     3     8     3    1
     4     4     5    1
     5     4     3    1
     6     5    10    1
     7     3     2    1
     8     2     1    1
     9     1     6    1
