@<TRIPOS>MOLECULE
1xin_XYL_A_1.pdb
 10 9 0 0 0
SMALL
GASTEIGER

@<TRIPOS>ATOM
      1  C1        30.4560   43.9410  171.9010 C.3   397  XYL397      0.2175
      2  C2        31.6120   43.5140  171.0300 C.3   397  XYL397      0.2175
      3  C3        31.7310   42.0070  170.7340 C.3   397  XYL397      0.2175
      4  C4        33.0610   41.5910  170.1120 C.3   397  XYL397      0.2175
      5  C5        33.4050   40.1250  170.2190 C.3   397  XYL397      0.2175
      6  O1        30.5170   45.3790  172.1310 O.3   397  XYL397     -0.2175
      7  O2        31.5330   44.2220  169.7860 O.3   397  XYL397     -0.2175
      8  O3        30.6440   41.5620  169.9260 O.3   397  XYL397     -0.2175
      9  O4        33.3690   42.0580  168.7760 O.3   397  XYL397     -0.2175
     10  O5        33.6490   39.7300  171.5370 O.3   397  XYL397     -0.2175
@<TRIPOS>BOND
     1     9     4    1
     2     7     2    1
     3     8     3    1
     4     4     5    1
     5     4     3    1
     6     5    10    1
     7     3     2    1
     8     2     1    1
     9     1     6    1
