@<TRIPOS>MOLECULE
1xio_RET_A_1.pdb
 20 20 0 0 0
SMALL
GASTEIGER

@<TRIPOS>ATOM
      1  C1        41.0380   29.7820   10.3750 C.3   301  RET301      0.0183
      2  C2        41.6320   30.8010    9.3520 C.3   301  RET301      0.0044
      3  C3        42.6550   30.2850    8.4390 C.3   301  RET301      0.0047
      4  C4        42.1700   28.9930    7.6950 C.3   301  RET301      0.0217
      5  C5        41.4030   27.9960    8.5670 C.2   301  RET301     -0.0479
      6  C6        40.8750   28.3240    9.8050 C.2   301  RET301     -0.0307
      7  C7        40.1580   27.2510   10.5500 C.2   301  RET301     -0.0052
      8  C8        39.5300   27.2210   11.7640 C.2   301  RET301     -0.0046
      9  C9        38.8640   26.0710   12.3720 C.2   301  RET301     -0.0219
     10  C10       38.3020   26.3340   13.6280 C.2   301  RET301     -0.0043
     11  C11       37.6130   25.2860   14.3480 C.2   301  RET301     -0.0007
     12  C12       37.0860   25.5730   15.5930 C.2   301  RET301     -0.0046
     13  C13       36.3870   24.5560   16.3970 C.2   301  RET301     -0.0261
     14  C14       35.9160   24.9580   17.6620 C.2   301  RET301     -0.0300
     15  C15       35.9620   26.2170   18.2820 C.3   301  RET301      0.0304
     16  C16       41.9050   29.7880   11.6500 C.3   301  RET301      0.0043
     17  C17       39.6890   30.4770   10.6990 C.3   301  RET301      0.0043
     18  C18       41.3520   26.6600    7.8370 C.3   301  RET301      0.0260
     19  C19       38.8340   24.7470   11.6270 C.3   301  RET301      0.0310
     20  C20       36.2190   23.1410   15.9090 C.3   301  RET301      0.0307
@<TRIPOS>BOND
     1     4     3    1
     2     4     5    1
     3    18     5    1
     4     3     2    1
     5     5     6    2
     6     2     1    1
     7     6     1    1
     8     6     7    1
     9     1    17    1
    10     1    16    1
    11     7     8    2
    12    19     9    1
    13     8     9    1
    14     9    10    2
    15    10    11    1
    16    11    12    2
    17    12    13    1
    18    20    13    1
    19    13    14    2
    20    14    15    1
