@<TRIPOS>MOLECULE
1xiu_REA_A_1.pdb
 22 22 0 0 0
SMALL
GASTEIGER

@<TRIPOS>ATOM
      1  C1        36.5930   39.4000   87.4700 C.3   201  REA201      0.0183
      2  C2        38.0100   39.9070   87.7520 C.3   201  REA201      0.0044
      3  C3        38.1420   41.3470   88.2840 C.3   201  REA201      0.0047
      4  C4        37.1750   41.7520   89.3930 C.3   201  REA201      0.0217
      5  C5        35.7880   41.1930   89.1790 C.2   201  REA201     -0.0479
      6  C6        35.5460   40.0320   88.3740 C.2   201  REA201     -0.0310
      7  C7        34.2900   39.2640   88.3280 C.2   201  REA201     -0.0095
      8  C8        33.5160   39.0000   89.5320 C.2   201  REA201     -0.0268
      9  C9        32.1660   38.4670   89.3590 C.3   201  REA201      0.0224
     10  C10       31.6140   37.6440   90.3730 C.3   201  REA201      0.0090
     11  C11       32.2800   37.6640   91.6550 C.3   201  REA201      0.0257
     12  C12       31.4430   37.2800   92.7950 C.2   201  REA201     -0.0340
     13  C13       32.0360   36.8750   94.0320 C.2   201  REA201     -0.0370
     14  C14       31.0960   36.3140   94.9000 C.3   201  REA201      0.1358
     15  C15       31.0560   36.5010   96.3680 C.2   201  REA201      0.3689
     16  C16       36.5190   37.8820   87.6570 C.3   201  REA201      0.0043
     17  C17       36.1360   39.7270   86.0580 C.3   201  REA201      0.0043
     18  C18       34.7070   41.9350   89.9330 C.3   201  REA201      0.0260
     19  C19       31.2960   38.7080   88.1570 C.3   201  REA201      0.0047
     20  C20       33.5180   37.0610   94.3010 C.3   201  REA201      0.0266
     21  O1        29.9780   36.9060   96.9630 O.co2 201  REA201     -0.2453
     22  O2        32.1490   36.2240   96.9500 O.co2 201  REA201     -0.2453
@<TRIPOS>BOND
     1    17     1    1
     2     1    16    1
     3     1     2    1
     4     1     6    1
     5     2     3    1
     6    19     9    1
     7     3     4    1
     8     7     6    1
     9     7     8    2
    10     6     5    2
    11     5     4    1
    12     5    18    1
    13     9     8    1
    14     9    10    1
    15    10    11    1
    16    11    12    1
    17    12    13    2
    18    13    20    1
    19    13    14    1
    20    14    15    1
    21    15    22   ar
    22    15    21   ar
