@<TRIPOS>MOLECULE
1xiv_RB2_A_1.pdb
 17 17 0 0 0
SMALL
GASTEIGER

@<TRIPOS>ATOM
      1  O17       33.7370    9.0130   20.8370 O.co2 500  RB2500     -0.2353
      2  C15       34.4470    9.2880   19.8300 C.2   500  RB2500      0.4422
      3  O16       34.6870    8.4440   18.9310 O.co2 500  RB2500     -0.2353
      4  C13       35.0030   10.6440   19.7210 C.2   500  RB2500      0.3491
      5  O14       35.1740   11.2650   20.7570 O.2   500  RB2500     -0.2607
      6  N12       35.2690   11.1190   18.4930 N.am  500  RB2500     -0.1696
      7  C6        35.7680   12.3550   18.1380 C.ar  500  RB2500      0.0801
      8  C5        35.9740   12.6230   16.7870 C.ar  500  RB2500      0.0918
      9  C8        35.6520   11.6410   15.7010 C.2   500  RB2500      0.3426
     10  O10       35.7520   11.9750   14.5260 O.2   500  RB2500     -0.2448
     11  O9        35.1960   10.3000   16.0070 O.3   500  RB2500     -0.4413
     12  C11       34.4790    9.6090   14.9820 C.3   500  RB2500      0.2560
     13  C4        36.4960   13.8400   16.3600 C.ar  500  RB2500      0.0191
     14  C3        36.8200   14.8120   17.2830 C.ar  500  RB2500      0.0580
     15 CL         37.4870   16.3500   16.6620 Cl    500  RB2500     -0.0822
     16  C2        36.6230   14.5840   18.6280 C.ar  500  RB2500      0.0127
     17  C1        36.1160   13.3560   19.0660 C.ar  500  RB2500      0.0177
@<TRIPOS>BOND
     1    10     9    2
     2    12    11    1
     3     9    11    1
     4     9     8    1
     5    13     8   ar
     6    13    14   ar
     7    15    14    1
     8     8     7   ar
     9    14    16   ar
    10     7     6    1
    11     7    17   ar
    12     6     4   am
    13    16    17   ar
    14     3     2   ar
    15     4     2    1
    16     4     5    2
    17     2     1   ar
