@<TRIPOS>MOLECULE
1xj0_GDP_A_1.pdb
 28 30 0 0 0
SMALL
GASTEIGER

@<TRIPOS>ATOM
      1  PB        -7.6430   14.3660   21.8460 P.3   180  GDP180      0.5373
      2  O1B       -6.5730   14.3770   22.8690 O.3   180  GDP180     -0.1143
      3  O2B       -8.0470   15.6130   21.2520 O.3   180  GDP180     -0.1143
      4  O3B       -7.2420   13.3670   20.7430 O.2   180  GDP180     -0.2221
      5  O3A       -8.9560   13.6790   22.4460 O.3   180  GDP180     -0.2261
      6  PA       -10.4960   14.1650   22.4080 P.3   180  GDP180      0.2231
      7  O1A      -10.6650   15.4730   23.0670 O.3   180  GDP180     -0.4370
      8  O2A      -10.9620   13.9750   21.0320 O.2   180  GDP180     -0.5169
      9  O5'      -11.0960   13.0120   23.3660 O.3   180  GDP180     -0.3111
     10  C5'      -11.0180   11.6320   22.9720 C.3   180  GDP180      0.1813
     11  C4'      -12.1820   10.8490   23.5790 C.3   180  GDP180      0.1799
     12  O4'      -12.1120   10.9520   25.0000 O.3   180  GDP180     -0.3326
     13  C3'      -13.5540   11.3720   23.1780 C.3   180  GDP180      0.2158
     14  O3'      -14.3760   10.2600   22.8970 O.3   180  GDP180     -0.2175
     15  C2'      -14.0500   12.1810   24.3810 C.3   180  GDP180      0.2310
     16  O2'      -15.4820   12.2250   24.5570 O.3   180  GDP180     -0.2158
     17  C1'      -13.3260   11.5020   25.5170 C.3   180  GDP180      0.2293
     18  N9       -12.9550   12.4100   26.6010 N.pl3 180  GDP180     -0.2354
     19  C8       -12.1750   13.5320   26.6160 C.3   180  GDP180      0.2246
     20  N7       -12.0410   14.1020   27.7710 N.2   180  GDP180     -0.2322
     21  C5       -12.7950   13.2870   28.6050 C.2   180  GDP180      0.2182
     22  C6       -13.0500   13.3710   30.0320 C.1   180  GDP180      0.2372
     23  O6       -12.6370   14.2110   30.8240 O.2   180  GDP180     -0.2069
     24  N1       -13.8860   12.3160   30.4900 N.2   180  GDP180     -0.2485
     25  C2       -14.4160   11.3010   29.6820 C.1   180  GDP180      0.2531
     26  N2       -15.1840   10.3870   30.2690 N.pl3 180  GDP180     -0.0226
     27  N3       -14.1740   11.2240   28.3580 N.2   180  GDP180     -0.3074
     28  C4       -13.3650   12.2410   27.8910 C.2   180  GDP180      0.2300
@<TRIPOS>BOND
     1     4     1    2
     2     8     6    2
     3     3     1    1
     4     1     5    1
     5     1     2    1
     6     6     5    1
     7     6     7    1
     8     6     9    1
     9    14    13    1
    10    10     9    1
    11    10    11    1
    12    13    11    1
    13    13    15    1
    14    11    12    1
    15    15    16    1
    16    15    17    1
    17    12    17    1
    18    17    18    1
    19    18    19    1
    20    18    28    1
    21    19    20    1
    22    20    21    2
    23    28    27    2
    24    28    21    1
    25    27    25    2
    26    21    22    1
    27    25    26    1
    28    25    24    2
    29    22    24    2
    30    22    23    2
