@<TRIPOS>MOLECULE
1xj2_HEM_A_1.pdb
 43 50 0 0 0
SMALL
GASTEIGER

@<TRIPOS>ATOM
      1 FE         -8.7870   50.9900   53.2690 Fe    719  HEM719      0.0000
      2  CHA       -6.2530   48.9340   52.2680 C.2   719  HEM719      0.0000
      3  CHB       -8.3270   52.9260   50.5160 C.2   719  HEM719      0.0000
      4  CHC      -11.1960   53.1630   54.3920 C.2   719  HEM719      0.0000
      5  CHD       -9.3750   48.9820   55.9710 C.2   719  HEM719      0.0000
      6  NA        -7.5510   50.9370   51.7100 N.ar  719  HEM719      0.0000
      7  C1A       -6.5390   50.0300   51.4670 C.ar  719  HEM719      0.0000
      8  C2A       -5.8330   50.3880   50.2600 C.ar  719  HEM719      0.0000
      9  C3A       -6.3620   51.5450   49.8230 C.ar  719  HEM719      0.0000
     10  C4A       -7.4890   51.8400   50.6690 C.ar  719  HEM719      0.0000
     11  CMA       -5.8670   52.3710   48.6420 C.3   719  HEM719      0.0000
     12  CAA       -4.7200   49.6530   49.5180 C.3   719  HEM719      0.0000
     13  CBA       -3.3620   50.2470   49.8370 C.3   719  HEM719      0.0000
     14  CGA       -2.2740   49.7610   48.9000 C.2   719  HEM719      0.0000
     15  O1A       -1.1310   50.2460   49.0210 O.co2 719  HEM719      0.0000
     16  O2A       -2.5580   48.8980   48.0440 O.co2 719  HEM719      0.0000
     17  NB        -9.6450   52.6460   52.5720 N.2   719  HEM719      0.0000
     18  C1B       -9.3330   53.2930   51.3910 C.2   719  HEM719      0.0000
     19  C2B      -10.2420   54.3840   51.1690 C.2   719  HEM719      0.0000
     20  C3B      -10.9830   54.5150   52.2820 C.2   719  HEM719      0.0000
     21  C4B      -10.6240   53.4190   53.1570 C.2   719  HEM719      0.0000
     22  CMB      -10.3850   55.2270   49.9110 C.3   719  HEM719      0.0000
     23  CAB      -11.8520   55.5960   52.3870 C.3   719  HEM719      0.0000
     24  CBB      -13.0980   55.6800   53.0450 C.3   719  HEM719      0.0000
     25  NC       -10.0120   51.0790   54.8740 N.ar  719  HEM719      0.0000
     26  C1C      -10.8990   52.0800   55.1990 C.ar  719  HEM719      0.0000
     27  C2C      -11.4530   51.8500   56.5120 C.ar  719  HEM719      0.0000
     28  C3C      -10.9580   50.6660   56.9470 C.ar  719  HEM719      0.0000
     29  C4C      -10.1200   50.1520   55.8930 C.ar  719  HEM719      0.0000
     30  CMC      -12.4170   52.8070   57.1960 C.3   719  HEM719      0.0000
     31  CAC      -11.0650   50.0030   58.1920 C.3   719  HEM719      0.0000
     32  CBC      -11.7950   50.3900   59.3670 C.3   719  HEM719      0.0000
     33  ND        -8.0170   49.2830   53.9380 N.2   719  HEM719      0.0000
     34  C1D       -8.3990   48.5790   55.0700 C.2   719  HEM719      0.0000
     35  C2D       -7.5650   47.4160   55.2380 C.2   719  HEM719      0.0000
     36  C3D       -6.6520   47.4290   54.2400 C.2   719  HEM719      0.0000
     37  C4D       -6.9420   48.5840   53.4180 C.2   719  HEM719      0.0000
     38  CMD       -7.6480   46.4220   56.3790 C.3   719  HEM719      0.0000
     39  CAD       -5.5100   46.4120   54.0930 C.3   719  HEM719      0.0000
     40  CBD       -4.3960   46.6540   55.1110 C.3   719  HEM719      0.0000
     41  CGD       -3.1450   47.2660   54.4950 C.2   719  HEM719      0.0000
     42  O1D       -2.3240   47.8350   55.2470 O.co2 719  HEM719      0.0000
     43  O2D       -2.9750   47.1680   53.2630 O.co2 719  HEM719      0.0000
@<TRIPOS>BOND
     1    16    14   ar
     2    11     9    1
     3    14    15   ar
     4    14    13    1
     5    12    13    1
     6    12     8    1
     7     9     8   ar
     8     9    10   ar
     9    22    19    1
    10     8     7   ar
    11     3    10    2
    12     3    18    1
    13    10     6   ar
    14    19    18    1
    15    19    20    2
    16    18    17    2
    17     7     6   ar
    18     7     2    2
    19     6     1    1
    20     2    37    1
    21    20    23    1
    22    20    21    1
    23    23    24    1
    24    17    21    1
    25    17     1    1
    26    21     4    2
    27    43    41   ar
    28     1    33    1
    29     1    25    1
    30    37    33    2
    31    37    36    1
    32    33    34    1
    33    39    36    1
    34    39    40    1
    35    36    35    2
    36     4    26    1
    37    41    40    1
    38    41    42   ar
    39    25    26   ar
    40    25    29   ar
    41    34    35    1
    42    34     5    2
    43    26    27   ar
    44    35    38    1
    45    29     5    1
    46    29    28   ar
    47    27    28   ar
    48    27    30    1
    49    28    31    1
    50    31    32    1
