@<TRIPOS>MOLECULE
1xj3_HEM_A_1.pdb
 43 50 0 0 0
SMALL
GASTEIGER

@<TRIPOS>ATOM
      1 FE         -9.0260   51.1110   53.3750 Fe    719  HEM719      0.0000
      2  CHA       -6.2820   49.2220   52.5990 C.2   719  HEM719      0.0000
      3  CHB       -8.3300   53.1750   50.7440 C.2   719  HEM719      0.0000
      4  CHC      -11.1990   53.5690   54.5580 C.2   719  HEM719      0.0000
      5  CHD       -9.4170   49.4030   56.2490 C.2   719  HEM719      0.0000
      6  NA        -7.6800   51.1090   51.8920 N.ar  719  HEM719      0.0000
      7  C1A       -6.5930   50.2690   51.7510 C.ar  719  HEM719      0.0000
      8  C2A       -5.8510   50.6160   50.5660 C.ar  719  HEM719      0.0000
      9  C3A       -6.3690   51.7700   50.1020 C.ar  719  HEM719      0.0000
     10  C4A       -7.5410   52.0540   50.8960 C.ar  719  HEM719      0.0000
     11  CMA       -5.8260   52.6370   48.9510 C.3   719  HEM719      0.0000
     12  CAA       -4.7530   49.7980   49.8960 C.3   719  HEM719      0.0000
     13  CBA       -3.4690   50.5950   49.8910 C.3   719  HEM719      0.0000
     14  CGA       -2.4770   50.0820   48.8770 C.2   719  HEM719      0.0000
     15  O1A       -1.4290   50.7360   48.7070 O.co2 719  HEM719      0.0000
     16  O2A       -2.7430   49.0300   48.2530 O.co2 719  HEM719      0.0000
     17  NB        -9.7760   52.8990   52.7080 N.2   719  HEM719      0.0000
     18  C1B       -9.3640   53.5640   51.5700 C.2   719  HEM719      0.0000
     19  C2B      -10.2280   54.6980   51.3240 C.2   719  HEM719      0.0000
     20  C3B      -11.0060   54.8390   52.4080 C.2   719  HEM719      0.0000
     21  C4B      -10.6640   53.7620   53.3050 C.2   719  HEM719      0.0000
     22  CMB      -10.3150   55.6090   50.0970 C.3   719  HEM719      0.0000
     23  CAB      -11.9010   55.9020   52.5050 C.3   719  HEM719      0.0000
     24  CBB      -13.1570   55.9390   53.1870 C.3   719  HEM719      0.0000
     25  NC       -10.1250   51.4170   55.0160 N.ar  719  HEM719      0.0000
     26  C1C      -10.9410   52.4790   55.3560 C.ar  719  HEM719      0.0000
     27  C2C      -11.5140   52.2740   56.6540 C.ar  719  HEM719      0.0000
     28  C3C      -11.1210   51.0650   57.0700 C.ar  719  HEM719      0.0000
     29  C4C      -10.1710   50.5630   56.0980 C.ar  719  HEM719      0.0000
     30  CMC      -12.4590   53.1970   57.3880 C.3   719  HEM719      0.0000
     31  CAC      -11.6520   50.4880   58.2210 C.2   719  HEM719      0.0000
     32  CBC      -10.9790   50.3100   59.4030 C.2   719  HEM719      0.0000
     33  ND        -8.1660   49.5100   54.1400 N.2   719  HEM719      0.0000
     34  C1D       -8.4840   48.9140   55.3470 C.2   719  HEM719      0.0000
     35  C2D       -7.6350   47.7700   55.5760 C.2   719  HEM719      0.0000
     36  C3D       -6.7330   47.7390   54.5690 C.2   719  HEM719      0.0000
     37  C4D       -7.0240   48.8620   53.7120 C.2   719  HEM719      0.0000
     38  CMD       -7.6500   46.8160   56.7600 C.3   719  HEM719      0.0000
     39  CAD       -5.5870   46.7190   54.4420 C.3   719  HEM719      0.0000
     40  CBD       -4.4460   46.9420   55.4340 C.3   719  HEM719      0.0000
     41  CGD       -3.2870   47.7350   54.8390 C.2   719  HEM719      0.0000
     42  O1D       -2.4820   48.2950   55.6170 O.co2 719  HEM719      0.0000
     43  O2D       -3.1730   47.7850   53.5950 O.co2 719  HEM719      0.0000
@<TRIPOS>BOND
     1    16    14   ar
     2    15    14   ar
     3    14    13    1
     4    11     9    1
     5    13    12    1
     6    12     8    1
     7    22    19    1
     8     9     8   ar
     9     9    10   ar
    10     8     7   ar
    11     3    10    2
    12     3    18    1
    13    10     6   ar
    14    19    18    1
    15    19    20    2
    16    18    17    2
    17     7     6   ar
    18     7     2    2
    19     6     1    1
    20    20    23    1
    21    20    21    1
    22    23    24    1
    23     2    37    1
    24    17    21    1
    25    17     1    1
    26    21     4    2
    27     1    33    1
    28     1    25    1
    29    43    41   ar
    30    37    33    2
    31    37    36    1
    32    33    34    1
    33    39    36    1
    34    39    40    1
    35     4    26    1
    36    36    35    2
    37    41    40    1
    38    41    42   ar
    39    25    26   ar
    40    25    29   ar
    41    34    35    1
    42    34     5    2
    43    26    27   ar
    44    35    38    1
    45    29     5    1
    46    29    28   ar
    47    27    28   ar
    48    27    30    1
    49    28    31    1
    50    31    32    2
