@<TRIPOS>MOLECULE
1xj4_HEM_A_1.pdb
 43 50 0 0 0
SMALL
GASTEIGER

@<TRIPOS>ATOM
      1  CHA       -1.6510   48.8600   19.4880 C.2   719  HEM719      0.0000
      2  CHB       -0.6110   53.4750   20.4740 C.2   719  HEM719      0.0000
      3  CHC       -3.0380   54.9880   16.5350 C.2   719  HEM719      0.0000
      4  CHD       -3.9360   50.3340   15.4700 C.2   719  HEM719      0.0000
      5  C1A       -1.1780   49.9920   20.1280 C.2   719  HEM719      0.0000
      6  C2A       -0.5700   50.0150   21.4350 C.2   719  HEM719      0.0000
      7  C3A       -0.3140   51.3140   21.7280 C.2   719  HEM719      0.0000
      8  C4A       -0.6830   52.0920   20.5670 C.2   719  HEM719      0.0000
      9  CMA        0.2440   51.8840   23.0400 C.3   719  HEM719      0.0000
     10  CAA       -0.2540   48.7600   22.2600 C.3   719  HEM719      0.0000
     11  CBA       -0.8930   48.8240   23.6310 C.3   719  HEM719      0.0000
     12  CGA       -0.2980   47.8130   24.5970 C.2   719  HEM719      0.0000
     13  O1A       -0.5920   47.9070   25.8070 O.co2 719  HEM719      0.0000
     14  O2A        0.4600   46.9300   24.1460 O.co2 719  HEM719      0.0000
     15  C1B       -1.1210   54.2750   19.4530 C.ar  719  HEM719      0.0000
     16  C2B       -1.0330   55.7190   19.4340 C.ar  719  HEM719      0.0000
     17  C3B       -1.7410   56.1530   18.3730 C.ar  719  HEM719      0.0000
     18  C4B       -2.2290   54.9760   17.6740 C.ar  719  HEM719      0.0000
     19  CMB       -0.2730   56.6220   20.4290 C.3   719  HEM719      0.0000
     20  CAB       -1.9090   57.5230   18.1760 C.3   719  HEM719      0.0000
     21  CBB       -2.0340   58.2110   16.9360 C.3   719  HEM719      0.0000
     22  C1C       -3.5350   53.8450   15.9070 C.2   719  HEM719      0.0000
     23  C2C       -4.5160   53.8280   14.8430 C.2   719  HEM719      0.0000
     24  C3C       -4.7750   52.5210   14.5580 C.2   719  HEM719      0.0000
     25  C4C       -3.9400   51.7260   15.4320 C.2   719  HEM719      0.0000
     26  CMC       -5.0860   55.0780   14.2340 C.3   719  HEM719      0.0000
     27  CAC       -5.6660   51.9200   13.6250 C.3   719  HEM719      0.0000
     28  CBC       -6.3480   52.5350   12.5010 C.3   719  HEM719      0.0000
     29  C1D       -3.2890   49.5290   16.4040 C.ar  719  HEM719      0.0000
     30  C2D       -3.3070   48.0810   16.3980 C.ar  719  HEM719      0.0000
     31  C3D       -2.7200   47.6710   17.5510 C.ar  719  HEM719      0.0000
     32  C4D       -2.2790   48.8560   18.2460 C.ar  719  HEM719      0.0000
     33  CMD       -3.9030   47.1460   15.3280 C.3   719  HEM719      0.0000
     34  CAD       -2.6180   46.2620   18.1260 C.3   719  HEM719      0.0000
     35  CBD       -4.0180   45.9570   18.6440 C.3   719  HEM719      0.0000
     36  CGD       -4.0450   45.5740   20.1100 C.2   719  HEM719      0.0000
     37  O1D       -5.1520   45.5250   20.6830 O.co2 719  HEM719      0.0000
     38  O2D       -2.9660   45.3130   20.6830 O.co2 719  HEM719      0.0000
     39  NA        -1.2410   51.2690   19.6090 N.2   719  HEM719      0.0000
     40  NB        -1.8220   53.8330   18.3400 N.ar  719  HEM719      0.0000
     41  NC        -3.2530   52.5570   16.3050 N.2   719  HEM719      0.0000
     42  ND        -2.5540   49.9810   17.4910 N.ar  719  HEM719      0.0000
     43 FE         -2.1740   51.9180   17.9330 Fe    719  HEM719      0.0000
@<TRIPOS>BOND
     1    28    27    1
     2    27    24    1
     3    26    23    1
     4    24    23    2
     5    24    25    1
     6    23    22    1
     7    33    30    1
     8    25     4    1
     9    25    41    2
    10     4    29    2
    11    22    41    1
    12    22     3    2
    13    41    43    1
    14    30    29   ar
    15    30    31   ar
    16    29    42   ar
    17     3    18    1
    18    21    20    1
    19    42    43    1
    20    42    32   ar
    21    31    34    1
    22    31    32   ar
    23    18    40   ar
    24    18    17   ar
    25    43    40    1
    26    43    39    1
    27    34    35    1
    28    20    17    1
    29    32     1    2
    30    40    15   ar
    31    17    16   ar
    32    35    36    1
    33    16    15   ar
    34    16    19    1
    35    15     2    1
    36     1     5    1
    37    39     5    2
    38    39     8    1
    39    36    37   ar
    40    36    38   ar
    41     5     6    1
    42     2     8    2
    43     8     7    1
    44     6     7    2
    45     6    10    1
    46     7     9    1
    47    10    11    1
    48    11    12    1
    49    14    12   ar
    50    12    13   ar
