@<TRIPOS>MOLECULE
1xj6_HEM_A_1.pdb
 43 50 0 0 0
SMALL
GASTEIGER

@<TRIPOS>ATOM
      1  CHA       -1.6930   49.4540   19.5800 C.2   719  HEM719      0.0000
      2  CHB       -0.7000   54.0780   20.5540 C.2   719  HEM719      0.0000
      3  CHC       -3.1580   55.4770   16.6410 C.2   719  HEM719      0.0000
      4  CHD       -3.8550   50.8310   15.4810 C.2   719  HEM719      0.0000
      5  C1A       -1.2170   50.5980   20.1980 C.2   719  HEM719      0.0000
      6  C2A       -0.5370   50.6340   21.4760 C.2   719  HEM719      0.0000
      7  C3A       -0.3610   51.9320   21.7900 C.2   719  HEM719      0.0000
      8  C4A       -0.7650   52.6980   20.6390 C.2   719  HEM719      0.0000
      9  CMA        0.1750   52.5340   23.1000 C.3   719  HEM719      0.0000
     10  CAA       -0.0670   49.4330   22.2990 C.3   719  HEM719      0.0000
     11  CBA       -0.7850   49.4070   23.6280 C.3   719  HEM719      0.0000
     12  CGA       -0.2700   48.3130   24.5470 C.2   719  HEM719      0.0000
     13  O1A       -0.6090   48.3380   25.7510 O.co2 719  HEM719      0.0000
     14  O2A        0.4660   47.4280   24.0600 O.co2 719  HEM719      0.0000
     15  C1B       -1.1550   54.8570   19.5040 C.ar  719  HEM719      0.0000
     16  C2B       -1.1230   56.3020   19.4920 C.ar  719  HEM719      0.0000
     17  C3B       -1.7740   56.7040   18.3780 C.ar  719  HEM719      0.0000
     18  C4B       -2.2920   55.5030   17.7350 C.ar  719  HEM719      0.0000
     19  CMB       -0.3950   57.1920   20.5290 C.3   719  HEM719      0.0000
     20  CAB       -1.7530   58.0590   18.0410 C.3   719  HEM719      0.0000
     21  CBB       -2.4080   58.7700   16.9820 C.3   719  HEM719      0.0000
     22  C1C       -3.6140   54.3270   15.9970 C.2   719  HEM719      0.0000
     23  C2C       -4.5860   54.3010   14.9160 C.2   719  HEM719      0.0000
     24  C3C       -4.7620   52.9950   14.5780 C.2   719  HEM719      0.0000
     25  C4C       -3.9000   52.2150   15.4490 C.2   719  HEM719      0.0000
     26  CMC       -5.2380   55.5460   14.3410 C.3   719  HEM719      0.0000
     27  CAC       -5.6280   52.3930   13.6560 C.3   719  HEM719      0.0000
     28  CBC       -6.2490   52.9480   12.4790 C.3   719  HEM719      0.0000
     29  C1D       -3.2080   50.0450   16.4220 C.ar  719  HEM719      0.0000
     30  C2D       -3.2470   48.6020   16.4490 C.ar  719  HEM719      0.0000
     31  C3D       -2.6840   48.2120   17.6210 C.ar  719  HEM719      0.0000
     32  C4D       -2.2800   49.4160   18.3170 C.ar  719  HEM719      0.0000
     33  CMD       -3.8400   47.6970   15.3610 C.3   719  HEM719      0.0000
     34  CAD       -2.5300   46.7620   18.0720 C.3   719  HEM719      0.0000
     35  CBD       -3.8210   46.2140   18.6640 C.3   719  HEM719      0.0000
     36  CGD       -3.7870   46.1420   20.1770 C.2   719  HEM719      0.0000
     37  O1D       -4.8620   46.0470   20.7970 O.co2 719  HEM719      0.0000
     38  O2D       -2.6770   46.1720   20.7400 O.co2 719  HEM719      0.0000
     39  NA        -1.2690   51.8640   19.6620 N.2   719  HEM719      0.0000
     40  NB        -1.7660   54.3860   18.3550 N.ar  719  HEM719      0.0000
     41  NC        -3.2450   53.0400   16.3400 N.2   719  HEM719      0.0000
     42  ND        -2.4960   50.5160   17.5130 N.ar  719  HEM719      0.0000
     43 FE         -2.0140   52.4620   17.8680 Fe    719  HEM719      0.0000
@<TRIPOS>BOND
     1    28    27    1
     2    27    24    1
     3    26    23    1
     4    24    23    2
     5    24    25    1
     6    23    22    1
     7    33    30    1
     8    25     4    1
     9    25    41    2
    10     4    29    2
    11    22    41    1
    12    22     3    2
    13    41    43    1
    14    29    30   ar
    15    29    42   ar
    16    30    31   ar
    17     3    18    1
    18    21    20    1
    19    42    43    1
    20    42    32   ar
    21    31    34    1
    22    31    32   ar
    23    18    40   ar
    24    18    17   ar
    25    43    40    1
    26    43    39    1
    27    20    17    1
    28    34    35    1
    29    32     1    2
    30    40    15   ar
    31    17    16   ar
    32    35    36    1
    33    16    15   ar
    34    16    19    1
    35    15     2    1
    36     1     5    1
    37    39     5    2
    38    39     8    1
    39    36    38   ar
    40    36    37   ar
    41     5     6    1
    42     2     8    2
    43     8     7    1
    44     6     7    2
    45     6    10    1
    46     7     9    1
    47    10    11    1
    48    11    12    1
    49    14    12   ar
    50    12    13   ar
