@<TRIPOS>MOLECULE
1xj7_DHT_A_1.pdb
 21 24 0 0 0
SMALL
GASTEIGER

@<TRIPOS>ATOM
      1  C1        52.8170   38.3780    4.5130 C.3   931  DHT931      0.0078
      2  C2        51.9920   39.6160    4.9150 C.3   931  DHT931      0.0645
      3  C3        50.5570   39.4130    4.3810 C.2   931  DHT931      0.1506
      4  O3        50.0140   40.3570    3.7970 O.2   931  DHT931     -0.2961
      5  C4        49.8920   38.1020    4.5860 C.3   931  DHT931      0.0645
      6  C5        50.7820   36.9140    4.1150 C.3   931  DHT931      0.0073
      7  C6        50.1130   35.5290    4.3560 C.3   931  DHT931      0.0004
      8  C7        51.0280   34.3980    3.8750 C.3   931  DHT931      0.0000
      9  C8        52.4240   34.4320    4.5930 C.3   931  DHT931      0.0001
     10  C9        53.0940   35.8080    4.3370 C.3   931  DHT931      0.0000
     11  C10       52.2120   36.9990    4.8460 C.3   931  DHT931      0.0008
     12  C11       54.4960   35.8030    5.0150 C.3   931  DHT931      0.0001
     13  C12       55.4310   34.6800    4.6120 C.3   931  DHT931      0.0024
     14  C13       54.7790   33.3010    4.7660 C.3   931  DHT931      0.0282
     15  C14       53.3660   33.3330    4.0950 C.3   931  DHT931      0.0024
     16  C15       52.9110   31.8810    4.2800 C.3   931  DHT931      0.0027
     17  C16       54.1820   31.1000    3.8790 C.3   931  DHT931      0.0329
     18  C17       55.3260   32.1220    3.9740 C.3   931  DHT931      0.1519
     19  O17       56.4480   31.4750    4.5860 O.3   931  DHT931     -0.2232
     20  C18       54.6770   32.9800    6.2940 C.3   931  DHT931      0.0025
     21  C19       52.0480   36.8440    6.4020 C.3   931  DHT931      0.0000
@<TRIPOS>BOND
     1     4     3    2
     2     8     7    1
     3     8     9    1
     4    17    18    1
     5    17    16    1
     6    18    19    1
     7    18    14    1
     8    15    16    1
     9    15     9    1
    10    15    14    1
    11     6     7    1
    12     6     5    1
    13     6    11    1
    14    10     9    1
    15    10    11    1
    16    10    12    1
    17     3     5    1
    18     3     2    1
    19     1    11    1
    20     1     2    1
    21    13    14    1
    22    13    12    1
    23    14    20    1
    24    11    21    1
