@<TRIPOS>MOLECULE
1xjb_CIT_A_1.pdb
 13 12 0 0 0
SMALL
GASTEIGER

@<TRIPOS>ATOM
      1  C1       112.3150   15.3600  170.7120 C.2   1006  CIT1006     0.3680
      2  O1       112.5040   14.3720  171.4100 O.co2 1006  CIT1006    -0.2455
      3  O2       111.7070   16.3140  171.2280 O.co2 1006  CIT1006    -0.2455
      4  C2       112.7640   15.4630  169.3340 C.3   1006  CIT1006     0.1560
      5  C3       114.0590   16.2320  169.2790 C.3   1006  CIT1006     0.2402
      6  O7       114.1690   17.3560  170.2010 O.3   1006  CIT1006    -0.2129
      7  C4       115.1760   15.1960  169.4570 C.3   1006  CIT1006     0.1560
      8  C5       116.4830   15.8140  169.9230 C.2   1006  CIT1006     0.3680
      9  O3       116.4840   17.0140  170.3640 O.co2 1006  CIT1006    -0.2455
     10  O4       117.5840   15.1620  169.9630 O.co2 1006  CIT1006    -0.2455
     11  C6       114.1410   16.9090  167.9080 C.2   1006  CIT1006     0.3927
     12  O5       113.5480   16.4110  166.8800 O.co2 1006  CIT1006    -0.2429
     13  O6       114.8110   17.9960  167.7420 O.co2 1006  CIT1006    -0.2429
@<TRIPOS>BOND
     1    12    11   ar
     2    13    11   ar
     3    11     5    1
     4     5     4    1
     5     5     7    1
     6     5     6    1
     7     4     1    1
     8     7     8    1
     9     8    10   ar
    10     8     9   ar
    11     1     3   ar
    12     1     2   ar
