@<TRIPOS>MOLECULE
1xjb_NAP_A_1.pdb
 48 52 0 0 0
SMALL
GASTEIGER

@<TRIPOS>ATOM
      1  PA       103.8840   17.6580  176.2090 P.3   1001  NAP1001     0.2189
      2  O1A      103.6320   16.3920  176.8910 O.2   1001  NAP1001    -0.5170
      3  O2A      104.0280   18.9620  176.9050 O.3   1001  NAP1001    -0.4371
      4  O5B      102.9200   17.7130  175.0370 O.3   1001  NAP1001    -0.3112
      5  C5B      101.6110   17.8110  175.1790 C.3   1001  NAP1001     0.1813
      6  C4B      100.9820   17.8000  173.7570 C.3   1001  NAP1001     0.1820
      7  O4B       99.6970   18.0300  174.2390 O.3   1001  NAP1001    -0.3136
      8  C3B      101.3100   19.0750  172.9580 C.3   1001  NAP1001     0.2157
      9  O3B      101.6330   18.6470  171.6670 O.3   1001  NAP1001    -0.2175
     10  C2B      100.0700   19.9810  172.9120 C.3   1001  NAP1001     0.2314
     11  O2B       99.5440   20.2620  171.5910 O.3   1001  NAP1001    -0.2630
     12  C1B       99.0350   19.1620  173.6680 C.3   1001  NAP1001     0.3158
     13  N9A       98.3840   19.8840  174.7430 N.pl3 1001  NAP1001    -0.1439
     14  C8A       98.9140   20.8700  175.5280 C.3   1001  NAP1001     0.3377
     15  N7A       97.9480   21.2690  176.4240 N.2   1001  NAP1001    -0.2095
     16  C5A       96.8660   20.4900  176.2440 C.2   1001  NAP1001     0.2526
     17  C6A       95.6250   20.4740  176.8730 C.2   1001  NAP1001     0.4393
     18  N6A       95.3120   21.3690  177.7790 N.pl3 1001  NAP1001     0.2180
     19  N1A       94.6360   19.6360  176.3600 N.2   1001  NAP1001     0.0021
     20  C2A       94.9170   18.7570  175.3350 C.3   1001  NAP1001     0.5254
     21  N3A       96.1520   18.7550  174.7320 N.2   1001  NAP1001    -0.0055
     22  C4A       97.1110   19.6420  175.1680 C.2   1001  NAP1001     0.3518
     23  O3       105.1970   17.2380  175.4410 O.3   1001  NAP1001    -0.2703
     24  PN       106.5450   17.6860  174.7620 P.3   1001  NAP1001     0.2189
     25  O1N      107.2740   16.4450  174.4410 O.3   1001  NAP1001    -0.4371
     26  O2N      106.7620   18.9110  173.9630 O.2   1001  NAP1001    -0.5170
     27  O5D      107.2470   18.0500  176.1910 O.3   1001  NAP1001    -0.3112
     28  C5D      106.9670   19.2990  176.8030 C.3   1001  NAP1001     0.1813
     29  C4D      108.2610   20.0430  176.7630 C.3   1001  NAP1001     0.1799
     30  O4D      109.2590   19.3870  177.5710 O.3   1001  NAP1001    -0.3327
     31  C3D      108.9580   20.3030  175.4350 C.3   1001  NAP1001     0.2158
     32  O3D      108.3190   21.3960  174.6280 O.3   1001  NAP1001    -0.2175
     33  C2D      110.3940   20.6050  175.8590 C.3   1001  NAP1001     0.2309
     34  O2D      110.5750   21.9620  176.3480 O.3   1001  NAP1001    -0.2158
     35  C1D      110.5740   19.6420  177.0610 C.3   1001  NAP1001     0.2263
     36  N1N      111.1970   18.3420  176.6780 N.pl3 1001  NAP1001    -0.2787
     37  C2N      112.5330   18.1560  177.0490 C.3   1001  NAP1001     0.1244
     38  C3N      113.2190   16.9930  176.6900 C.2   1001  NAP1001     0.0544
     39  C7N      114.6000   16.7310  177.2690 C.2   1001  NAP1001     0.2818
     40  O7N      115.2670   15.6520  176.8350 O.2   1001  NAP1001    -0.2670
     41  N7N      115.1190   17.5670  178.1750 N.am  1001  NAP1001    -0.0839
     42  C4N      112.5570   16.0370  175.9160 C.2   1001  NAP1001     0.0033
     43  C5N      111.2200   16.2150  175.4650 C.2   1001  NAP1001     0.0157
     44  C6N      110.5360   17.3780  175.8490 C.2   1001  NAP1001     0.0633
     45  P2B       99.1500   21.8030  171.1980 P.3   1001  NAP1001     0.5328
     46  O1X      100.4530   22.6030  171.1150 O.3   1001  NAP1001    -0.1145
     47  O2X       98.4420   21.6750  169.8750 O.2   1001  NAP1001    -0.2224
     48  O3X       98.3140   22.3660  172.3520 O.3   1001  NAP1001    -0.1145
@<TRIPOS>BOND
     1    47    45    2
     2    46    45    1
     3    45    11    1
     4    45    48    1
     5    11    10    1
     6     9     8    1
     7    10     8    1
     8    10    12    1
     9     8     6    1
    10    12     7    1
    11    12    13    1
    12     6     7    1
    13     6     5    1
    14    26    24    2
    15    25    24    1
    16    32    31    1
    17    21    22    2
    18    21    20    1
    19    13    22    1
    20    13    14    1
    21    24    23    1
    22    24    27    1
    23     4     5    1
    24     4     1    1
    25    22    16    1
    26    20    19    1
    27    31    33    1
    28    31    29    1
    29    23     1    1
    30    43    44    2
    31    43    42    1
    32    14    15    1
    33    44    36    1
    34    33    34    1
    35    33    35    1
    36    42    38    2
    37    27    28    1
    38     1     2    2
    39     1     3    1
    40    16    15    2
    41    16    17    1
    42    19    17    2
    43    36    37    1
    44    36    35    1
    45    38    37    1
    46    38    39    1
    47    29    28    1
    48    29    30    1
    49    40    39    2
    50    17    18    1
    51    35    30    1
    52    39    41   am
