@<TRIPOS>MOLECULE
1xjd_STU_A_1.pdb
 35 42 0 0 0
SMALL
GASTEIGER

@<TRIPOS>ATOM
      1  O4        56.1260    5.3900    2.8110 O.3   200  STU200     -0.3186
      2  C25       57.0430    5.5230    3.9380 C.3   200  STU200      0.2078
      3  C24       56.2540    5.1360    5.3000 C.3   200  STU200      0.0739
      4  C23       54.7120    4.6950    5.0510 C.3   200  STU200      0.1086
      5  C22       53.9670    5.7890    4.2190 C.3   200  STU200      0.1761
      6  C21       54.7590    5.8750    2.7560 C.3   200  STU200      0.1915
      7  C26       54.1190    4.7910    1.8590 C.3   200  STU200      0.0566
      8  N2        54.6780    7.3800    2.2830 N.ar  200  STU200     -0.3054
      9  C18       55.7590    8.3090    2.6030 C.ar  200  STU200      0.0774
     10  C19       56.9750    8.1520    3.3430 C.ar  200  STU200      0.0783
     11  C6        57.9310    9.2920    3.5450 C.ar  200  STU200      0.0293
     12  C7        57.4880   10.6470    2.8870 C.ar  200  STU200      0.0822
     13  C10       56.3310   10.7860    2.2000 C.ar  200  STU200      0.0154
     14  C11       55.3870    9.6420    1.9860 C.ar  200  STU200      0.0173
     15  C12       54.1290    9.4820    1.3540 C.ar  200  STU200      0.0171
     16  C17       53.6820    8.0440    1.4720 C.ar  200  STU200      0.0617
     17  C16       52.3770    7.6450    0.8900 C.ar  200  STU200      0.0172
     18  C15       51.5710    8.5630    0.1450 C.ar  200  STU200      0.0015
     19  C14       52.0120    9.9930   -0.0130 C.ar  200  STU200      0.0001
     20  C13       53.2800   10.3980    0.5730 C.ar  200  STU200      0.0015
     21  C9        56.2060   12.2050    1.7000 C.3   200  STU200      0.1650
     22  N1        57.4270   12.7420    2.2290 N.2   200  STU200     -0.1976
     23  C8        58.2130   11.9420    2.9110 C.1   200  STU200      0.1501
     24  O5        59.2770   12.2160    3.4240 O.2   200  STU200     -0.2222
     25  C5        58.9920    8.8330    4.3300 C.ar  200  STU200      0.0180
     26  C20       58.7550    7.3650    4.5900 C.ar  200  STU200      0.0618
     27  C1        59.7050    6.5680    5.4310 C.ar  200  STU200      0.0172
     28  C2        60.9180    7.2230    5.9170 C.ar  200  STU200      0.0015
     29  C3        61.1770    8.6650    5.6340 C.ar  200  STU200      0.0001
     30  C4        60.2410    9.4260    4.8400 C.ar  200  STU200      0.0015
     31  N3        57.5420    6.9930    4.0440 N.ar  200  STU200     -0.3039
     32  O6        54.0050    7.1110    4.9390 O.3   200  STU200     -0.3478
     33  C27       52.7830    7.8360    4.8940 C.3   200  STU200      0.1743
     34  N4        54.0870    4.4110    6.4850 N.3   200  STU200     -0.2152
     35  C28       54.8260    3.3000    7.2330 C.3   200  STU200      0.1075
@<TRIPOS>BOND
     1    19    18   ar
     2    19    20   ar
     3    18    17   ar
     4    20    15   ar
     5    17    16   ar
     6    15    16   ar
     7    15    14   ar
     8    16     8   ar
     9    21    13    1
    10    21    22    1
    11     7     6    1
    12    14    13   ar
    13    14     9   ar
    14    13    12   ar
    15    22    23    2
    16     8     9   ar
    17     8     6    1
    18     9    10   ar
    19     6     1    1
    20     6     5    1
    21     1     2    1
    22    12    23    1
    23    12    11   ar
    24    23    24    2
    25    10    11   ar
    26    10    31   ar
    27    11    25   ar
    28     2    31    1
    29     2     3    1
    30    31    26   ar
    31     5    32    1
    32     5     4    1
    33    25    26   ar
    34    25    30   ar
    35    26    27   ar
    36    30    29   ar
    37    33    32    1
    38     4     3    1
    39     4    34    1
    40    27    28   ar
    41    29    28   ar
    42    34    35    1
