@<TRIPOS>MOLECULE
1xje_GDP_A_1.pdb
 28 30 0 0 0
SMALL
GASTEIGER

@<TRIPOS>ATOM
      1  PB       -89.0750  -63.1140    6.1460 P.3   1002  GDP1002     0.5373
      2  O1B      -88.9170  -63.9330    4.9340 O.2   1002  GDP1002    -0.2221
      3  O2B      -87.7930  -62.7240    6.8140 O.3   1002  GDP1002    -0.1143
      4  O3B      -90.0810  -63.7270    7.0720 O.3   1002  GDP1002    -0.1143
      5  O3A      -89.6840  -61.7090    5.6560 O.3   1002  GDP1002    -0.2261
      6  PA       -90.8020  -60.6950    6.1650 P.3   1002  GDP1002     0.2231
      7  O1A      -90.6510  -60.2210    7.5720 O.3   1002  GDP1002    -0.4370
      8  O2A      -92.1210  -61.1940    5.7390 O.2   1002  GDP1002    -0.5169
      9  O5'      -90.6190  -59.4200    5.1360 O.3   1002  GDP1002    -0.3111
     10  C5'      -89.6740  -58.3680    5.3890 C.3   1002  GDP1002     0.1813
     11  C4'      -89.0410  -57.8350    4.0770 C.3   1002  GDP1002     0.1799
     12  O4'      -88.5780  -58.9560    3.2880 O.3   1002  GDP1002    -0.3326
     13  C3'      -90.1770  -57.2810    3.2550 C.3   1002  GDP1002     0.2158
     14  O3'      -90.6200  -56.0760    3.8410 O.3   1002  GDP1002    -0.2175
     15  C2'      -89.5130  -57.1990    1.8830 C.3   1002  GDP1002     0.2310
     16  O2'      -88.7010  -55.9940    1.8010 O.3   1002  GDP1002    -0.2158
     17  C1'      -88.7100  -58.5310    1.8860 C.3   1002  GDP1002     0.2293
     18  N9       -89.4910  -59.6650    1.3140 N.pl3 1002  GDP1002    -0.2354
     19  C8       -90.4470  -60.3800    1.9380 C.3   1002  GDP1002     0.2246
     20  N7       -90.9240  -61.3000    1.0820 N.2   1002  GDP1002    -0.2322
     21  C5       -90.2470  -61.1650   -0.0870 C.2   1002  GDP1002     0.2182
     22  C6       -90.3040  -61.7970   -1.3440 C.1   1002  GDP1002     0.2372
     23  O6       -91.0530  -62.7690   -1.6100 O.2   1002  GDP1002    -0.2069
     24  N1       -89.4080  -61.3540   -2.3310 N.2   1002  GDP1002    -0.2485
     25  C2       -88.4820  -60.3550   -2.1160 C.1   1002  GDP1002     0.2531
     26  N2       -87.6840  -60.0160   -3.1140 N.pl3 1002  GDP1002    -0.0226
     27  N3       -88.4810  -59.7270   -0.9280 N.2   1002  GDP1002    -0.3074
     28  C4       -89.3280  -60.1140    0.0680 C.2   1002  GDP1002     0.2300
@<TRIPOS>BOND
     1    26    25    1
     2    24    25    2
     3    24    22    2
     4    25    27    2
     5    23    22    2
     6    22    21    1
     7    27    28    2
     8    21    28    1
     9    21    20    2
    10    28    18    1
    11    20    19    1
    12    18    17    1
    13    18    19    1
    14    16    15    1
    15    15    17    1
    16    15    13    1
    17    17    12    1
    18    13    14    1
    19    13    11    1
    20    12    11    1
    21    11    10    1
    22     2     1    2
    23     9    10    1
    24     9     6    1
    25     5     1    1
    26     5     6    1
    27     8     6    2
    28     1     3    1
    29     1     4    1
    30     6     7    1
