@<TRIPOS>MOLECULE
1xje_TTP_A_1.pdb
 29 30 0 0 0
SMALL
GASTEIGER

@<TRIPOS>ATOM
      1  PA       -84.3210  -37.1510  -20.4960 P.3   1005  TTP1005     0.2189
      2  O1A      -83.7090  -36.4310  -19.3780 O.3   1005  TTP1005    -0.4371
      3  O2A      -83.5690  -38.3920  -20.8290 O.2   1005  TTP1005    -0.5170
      4  O3A      -84.6030  -36.1970  -21.7220 O.3   1005  TTP1005    -0.2700
      5  PB       -83.5850  -34.7970  -22.1030 P.3   1005  TTP1005     0.2277
      6  O1B      -83.1470  -35.0210  -23.5020 O.2   1005  TTP1005    -0.5168
      7  O2B      -82.5640  -34.5940  -21.0390 O.3   1005  TTP1005    -0.4368
      8  O3B      -84.5920  -33.6520  -22.0930 O.3   1005  TTP1005    -0.2258
      9  PG       -84.8060  -32.6800  -20.8050 P.3   1005  TTP1005     0.5373
     10  O1G      -86.0810  -31.9500  -21.0080 O.2   1005  TTP1005    -0.2221
     11  O2G      -84.5710  -33.4860  -19.5580 O.3   1005  TTP1005    -0.1143
     12  O3G      -83.6040  -31.5330  -20.8000 O.3   1005  TTP1005    -0.1143
     13  O5'      -85.7990  -37.4720  -20.0890 O.3   1005  TTP1005    -0.3112
     14  C5'      -86.5520  -36.7080  -19.2320 C.3   1005  TTP1005     0.1812
     15  C4'      -87.9290  -37.2780  -18.8200 C.3   1005  TTP1005     0.1773
     16  O4'      -88.6900  -37.4960  -19.9740 O.3   1005  TTP1005    -0.3339
     17  C3'      -87.8190  -38.6020  -18.0740 C.3   1005  TTP1005     0.1857
     18  O3'      -88.8640  -38.7430  -17.0980 O.3   1005  TTP1005    -0.2203
     19  C2'      -87.9420  -39.5930  -19.1940 C.3   1005  TTP1005     0.0874
     20  C1'      -89.0900  -38.9060  -20.0460 C.3   1005  TTP1005     0.2090
     21  N1       -89.0000  -39.4270  -21.4110 N.am  1005  TTP1005    -0.1794
     22  C2       -90.0150  -40.1670  -22.0320 C.1   1005  TTP1005     0.2844
     23  O2       -91.0440  -40.4150  -21.4220 O.2   1005  TTP1005    -0.1918
     24  N3       -89.8480  -40.6000  -23.2950 N.2   1005  TTP1005    -0.2455
     25  C4       -88.7290  -40.3360  -24.0270 C.1   1005  TTP1005     0.2134
     26  O4       -88.5740  -40.8000  -25.2900 O.2   1005  TTP1005    -0.2088
     27  C5       -87.6980  -39.5980  -23.4900 C.2   1005  TTP1005     0.0891
     28  C5M      -86.5320  -39.3240  -24.2500 C.3   1005  TTP1005     0.0462
     29  C6       -87.8280  -39.1550  -22.1860 C.2   1005  TTP1005     0.0877
@<TRIPOS>BOND
     1    26    25    2
     2    28    27    1
     3    25    27    1
     4    25    24    2
     5     6     5    2
     6    27    29    2
     7    24    22    2
     8    29    21    1
     9     5     8    1
    10     5     4    1
    11     5     7    1
    12     8     9    1
    13    22    23    2
    14    22    21   am
    15     4     1    1
    16    21    20    1
    17    10     9    2
    18     3     1    2
    19     9    12    1
    20     9    11    1
    21     1    13    1
    22     1     2    1
    23    13    14    1
    24    20    16    1
    25    20    19    1
    26    16    15    1
    27    14    15    1
    28    19    17    1
    29    15    17    1
    30    17    18    1
