@<TRIPOS>MOLECULE
1xjf_DTP_A_1.pdb
 30 32 0 0 0
SMALL
GASTEIGER

@<TRIPOS>ATOM
      1  PG       -81.0800  -31.3460  -19.2150 P.3   1002  DTP1002     0.5373
      2  O1G      -82.6400  -30.8570  -19.5490 O.2   1002  DTP1002    -0.2221
      3  O2G      -80.9950  -32.1620  -17.7720 O.3   1002  DTP1002    -0.1143
      4  O3G      -80.0780  -30.2570  -19.1710 O.3   1002  DTP1002    -0.1143
      5  PB       -79.7380  -33.6060  -20.2430 P.3   1002  DTP1002     0.2277
      6  O1B      -78.8510  -33.6770  -21.4410 O.2   1002  DTP1002    -0.5168
      7  O2B      -79.1270  -33.5470  -18.8670 O.3   1002  DTP1002    -0.4368
      8  O3B      -80.7780  -32.3950  -20.4560 O.3   1002  DTP1002    -0.2258
      9  PA       -80.7830  -36.0670  -19.1030 P.3   1002  DTP1002     0.2189
     10  O1A      -80.2110  -35.3630  -17.9390 O.3   1002  DTP1002    -0.4371
     11  O2A      -80.1820  -37.3510  -19.5620 O.2   1002  DTP1002    -0.5170
     12  O3A      -80.8090  -34.9010  -20.2760 O.3   1002  DTP1002    -0.2700
     13  O5'      -82.3690  -36.2660  -18.9330 O.3   1002  DTP1002    -0.3112
     14  C5'      -82.9530  -35.7580  -17.7480 C.3   1002  DTP1002     0.1813
     15  C4'      -84.3710  -36.2450  -17.6180 C.3   1002  DTP1002     0.1795
     16  O4'      -85.0200  -36.3180  -18.8960 O.3   1002  DTP1002    -0.3155
     17  C3'      -84.4940  -37.6510  -17.0120 C.3   1002  DTP1002     0.1883
     18  O3'      -85.7570  -37.7300  -16.3370 O.3   1002  DTP1002    -0.2202
     19  C2'      -84.5640  -38.5620  -18.2010 C.3   1002  DTP1002     0.1151
     20  C1'      -85.3100  -37.7290  -19.2260 C.3   1002  DTP1002     0.2873
     21  N9       -84.9660  -38.0160  -20.6870 N.pl3 1002  DTP1002    -0.1460
     22  C8       -83.8080  -37.6840  -21.3350 C.3   1002  DTP1002     0.3377
     23  N7       -83.8950  -38.0750  -22.6180 N.2   1002  DTP1002    -0.2095
     24  C5       -85.0810  -38.6570  -22.7900 C.2   1002  DTP1002     0.2526
     25  C6       -85.6950  -39.2250  -23.8780 C.2   1002  DTP1002     0.4393
     26  N6       -85.0360  -39.2440  -25.0180 N.pl3 1002  DTP1002     0.2180
     27  N1       -86.9300  -39.7450  -23.7980 N.2   1002  DTP1002     0.0021
     28  C2       -87.5590  -39.6910  -22.6170 C.3   1002  DTP1002     0.5254
     29  N3       -86.9990  -39.1320  -21.5220 N.2   1002  DTP1002    -0.0055
     30  C4       -85.7660  -38.6180  -21.5800 C.2   1002  DTP1002     0.3518
@<TRIPOS>BOND
     1    26    25    1
     2    25    27    2
     3    25    24    1
     4    27    28    1
     5    24    23    2
     6    24    30    1
     7    23    22    1
     8    28    29    1
     9    30    29    2
    10    30    21    1
    11     6     5    2
    12    22    21    1
    13    21    20    1
    14     8     5    1
    15     8     1    1
    16    12     5    1
    17    12     9    1
    18     5     7    1
    19    11     9    2
    20     2     1    2
    21    20    16    1
    22    20    19    1
    23     1     4    1
    24     1     3    1
    25     9    13    1
    26     9    10    1
    27    13    14    1
    28    16    15    1
    29    19    17    1
    30    14    15    1
    31    15    17    1
    32    17    18    1
