@<TRIPOS>MOLECULE
1xjg_UDP_A_1.pdb
 25 26 0 0 0
SMALL
GASTEIGER

@<TRIPOS>ATOM
      1  N1       -88.7010  -59.4530    1.2880 N.am  1001  UDP1001    -0.1766
      2  C2       -88.2960  -59.8490   -0.0110 C.1   1001  UDP1001     0.2845
      3  N3       -88.8270  -60.9960   -0.5990 N.2   1001  UDP1001    -0.2452
      4  C4       -89.7820  -61.7500    0.1330 C.1   1001  UDP1001     0.2182
      5  C5       -90.1780  -61.3580    1.4210 C.2   1001  UDP1001     0.1242
      6  C6       -89.6400  -60.2200    2.0050 C.2   1001  UDP1001     0.0929
      7  O2       -87.4730  -59.1940   -0.6390 O.2   1001  UDP1001    -0.1918
      8  O4       -90.2760  -62.7620   -0.3710 O.2   1001  UDP1001    -0.2085
      9  C1'      -88.0800  -58.2470    1.9020 C.3   1001  UDP1001     0.2401
     10  C2'      -88.9810  -57.0120    2.0390 C.3   1001  UDP1001     0.2319
     11  O2'      -88.1330  -55.8540    1.9900 O.3   1001  UDP1001    -0.2157
     12  C3'      -89.5450  -57.2170    3.4460 C.3   1001  UDP1001     0.2158
     13  C4'      -88.2710  -57.6630    4.2040 C.3   1001  UDP1001     0.1799
     14  O4'      -87.6160  -58.5950    3.2730 O.3   1001  UDP1001    -0.3320
     15  O3'      -90.1350  -56.0200    3.9940 O.3   1001  UDP1001    -0.2175
     16  C5'      -88.5680  -58.4340    5.4620 C.3   1001  UDP1001     0.1813
     17  O5'      -89.6750  -59.2940    5.1970 O.3   1001  UDP1001    -0.3111
     18  PA       -89.9900  -60.5650    6.0870 P.3   1001  UDP1001     0.2231
     19  O1A      -89.4690  -60.4070    7.4500 O.3   1001  UDP1001    -0.4370
     20  O2A      -91.4390  -60.7380    5.8250 O.2   1001  UDP1001    -0.5169
     21  O3A      -89.1070  -61.7210    5.4040 O.3   1001  UDP1001    -0.2261
     22  PB       -88.3570  -63.0140    6.0960 P.3   1001  UDP1001     0.5373
     23  O1B      -88.2060  -64.0720    5.0490 O.2   1001  UDP1001    -0.2221
     24  O2B      -89.3200  -63.6120    7.2870 O.3   1001  UDP1001    -0.1143
     25  O3B      -86.8170  -62.6020    6.5630 O.3   1001  UDP1001    -0.1143
@<TRIPOS>BOND
     1     7     2    2
     2     3     2    2
     3     3     4    2
     4     8     4    2
     5     2     1   am
     6     4     5    1
     7     1     9    1
     8     1     6    1
     9     5     6    2
    10     9    10    1
    11     9    14    1
    12    11    10    1
    13    10    12    1
    14    14    13    1
    15    12    15    1
    16    12    13    1
    17    13    16    1
    18    23    22    2
    19    17    16    1
    20    17    18    1
    21    21    18    1
    22    21    22    1
    23    20    18    2
    24    18    19    1
    25    22    25    1
    26    22    24    1
