@<TRIPOS>MOLECULE
1xjg_DTP_A_1.pdb
 30 32 0 0 0
SMALL
GASTEIGER

@<TRIPOS>ATOM
      1  PG       -83.6710  -32.0080  -19.6780 P.3   1004  DTP1004     0.5373
      2  O1G      -84.9000  -31.5040  -20.2870 O.2   1004  DTP1004    -0.2221
      3  O2G      -83.7250  -32.7800  -18.4370 O.3   1004  DTP1004    -0.1143
      4  O3G      -82.6610  -30.8300  -19.4450 O.3   1004  DTP1004    -0.1143
      5  PB       -82.0450  -34.0610  -20.3330 P.3   1004  DTP1004     0.2277
      6  O1B      -80.9570  -34.1560  -21.3020 O.2   1004  DTP1004    -0.5168
      7  O2B      -81.7350  -33.9730  -18.8920 O.3   1004  DTP1004    -0.4368
      8  O3B      -82.9440  -32.8610  -20.7670 O.3   1004  DTP1004    -0.2258
      9  PA       -83.2340  -36.4320  -19.6120 P.3   1004  DTP1004     0.2189
     10  O1A      -82.6760  -35.9960  -18.3390 O.3   1004  DTP1004    -0.4371
     11  O2A      -82.7180  -37.6410  -20.2370 O.2   1004  DTP1004    -0.5170
     12  O3A      -83.0780  -35.2240  -20.6160 O.3   1004  DTP1004    -0.2700
     13  O5'      -84.7910  -36.5950  -19.5120 O.3   1004  DTP1004    -0.3112
     14  C5'      -85.4350  -36.0410  -18.4020 C.3   1004  DTP1004     0.1813
     15  C4'      -86.8530  -36.5390  -18.2070 C.3   1004  DTP1004     0.1795
     16  O4'      -87.6150  -36.6910  -19.4010 O.3   1004  DTP1004    -0.3155
     17  C3'      -86.8840  -37.8750  -17.5070 C.3   1004  DTP1004     0.1883
     18  O3'      -88.1180  -38.0220  -16.8150 O.3   1004  DTP1004    -0.2202
     19  C2'      -86.8860  -38.7840  -18.6920 C.3   1004  DTP1004     0.1151
     20  C1'      -87.8300  -38.0750  -19.6080 C.3   1004  DTP1004     0.2873
     21  N9       -87.3380  -38.3590  -20.9350 N.pl3 1004  DTP1004    -0.1460
     22  C8       -86.1190  -38.0970  -21.3900 C.3   1004  DTP1004     0.3377
     23  N7       -86.0350  -38.4950  -22.6510 N.2   1004  DTP1004    -0.2095
     24  C5       -87.2000  -39.0040  -22.9910 C.2   1004  DTP1004     0.2526
     25  C6       -87.6860  -39.5560  -24.1490 C.2   1004  DTP1004     0.4393
     26  N6       -86.9090  -39.6520  -25.2070 N.pl3 1004  DTP1004     0.2180
     27  N1       -88.9420  -39.9920  -24.1780 N.2   1004  DTP1004     0.0021
     28  C2       -89.7090  -39.8940  -23.1100 C.3   1004  DTP1004     0.5254
     29  N3       -89.2750  -39.3700  -21.9840 N.2   1004  DTP1004    -0.0055
     30  C4       -88.0290  -38.9180  -21.9030 C.2   1004  DTP1004     0.3518
@<TRIPOS>BOND
     1    26    25    1
     2    27    25    2
     3    27    28    1
     4    25    24    1
     5    28    29    1
     6    24    23    2
     7    24    30    1
     8    23    22    1
     9    29    30    2
    10    30    21    1
    11    22    21    1
    12     6     5    2
    13    21    20    1
    14     8     5    1
    15     8     1    1
    16    12     5    1
    17    12     9    1
    18     5     7    1
    19     2     1    2
    20    11     9    2
    21     1     4    1
    22     1     3    1
    23     9    13    1
    24     9    10    1
    25    20    16    1
    26    20    19    1
    27    13    14    1
    28    16    15    1
    29    19    17    1
    30    14    15    1
    31    15    17    1
    32    17    18    1
