@<TRIPOS>MOLECULE
1xji_RET_A_1.pdb
 20 20 0 0 0
SMALL
GASTEIGER

@<TRIPOS>ATOM
      1  C1        -3.6830  -10.3410   -3.1010 C.3   301  RET301      0.0183
      2  C2        -4.4580   -9.7890   -4.3220 C.3   301  RET301      0.0044
      3  C3        -5.0280   -8.4170   -4.2280 C.3   301  RET301      0.0047
      4  C4        -5.6930   -8.0680   -2.8940 C.3   301  RET301      0.0217
      5  C5        -4.9520   -8.5610   -1.6200 C.2   301  RET301     -0.0479
      6  C6        -4.0150   -9.6140   -1.7090 C.2   301  RET301     -0.0307
      7  C7        -3.3650   -9.9710   -0.4100 C.2   301  RET301     -0.0052
      8  C8        -2.4130  -10.8970   -0.1120 C.2   301  RET301     -0.0049
      9  C9        -1.8080  -11.1950    1.1640 C.2   301  RET301     -0.0258
     10  C10       -0.8580  -12.1820    1.0410 C.2   301  RET301     -0.0257
     11  C11       -0.0840  -12.6400    2.1930 C.3   301  RET301      0.0510
     12  C12        0.7940  -13.6230    1.8560 C.2   301  RET301     -0.0299
     13  C13        1.6990  -14.2720    2.7960 C.2   301  RET301     -0.0478
     14  C14        2.4340  -15.2370    2.1430 C.3   301  RET301      0.0217
     15  C15        3.4120  -16.0780    2.7780 C.3   301  RET301      0.0047
     16  C16       -4.0550  -11.8770   -3.0340 C.3   301  RET301      0.0043
     17  C17       -2.1700  -10.1740   -3.5510 C.3   301  RET301      0.0043
     18  C18       -5.4140   -7.7480   -0.4470 C.3   301  RET301      0.0260
     19  C19       -2.1920  -10.4690    2.4430 C.3   301  RET301      0.0307
     20  C20        1.7740  -13.9210    4.2580 C.3   301  RET301      0.0260
@<TRIPOS>BOND
     1     2     3    1
     2     2     1    1
     3     3     4    1
     4    17     1    1
     5     1    16    1
     6     1     6    1
     7     4     5    1
     8     6     5    2
     9     6     7    1
    10     5    18    1
    11     7     8    2
    12     8     9    1
    13    10     9    2
    14    10    11    1
    15     9    19    1
    16    12    11    1
    17    12    13    2
    18    14    15    1
    19    14    13    1
    20    13    20    1
