@<TRIPOS>MOLECULE
1xjj_DGT_A_1.pdb
 31 33 0 0 0
SMALL
GASTEIGER

@<TRIPOS>ATOM
      1  PG       -82.8080  -31.5690  -19.6650 P.3   1001  DGT1001     0.5373
      2  O1G      -84.0930  -30.9780  -19.9820 O.2   1001  DGT1001    -0.2221
      3  O2G      -82.6710  -32.4590  -18.4710 O.3   1001  DGT1001    -0.1143
      4  O3G      -81.6400  -30.5030  -19.4900 O.3   1001  DGT1001    -0.1143
      5  O3B      -82.4570  -32.4040  -20.9310 O.3   1001  DGT1001    -0.2258
      6  PB       -81.6410  -33.7430  -20.9630 P.3   1001  DGT1001     0.2277
      7  O1B      -81.3950  -34.0010  -22.4240 O.2   1001  DGT1001    -0.5168
      8  O2B      -80.4990  -33.7090  -20.0010 O.3   1001  DGT1001    -0.4368
      9  O3A      -82.7420  -34.9720  -20.6370 O.3   1001  DGT1001    -0.2700
     10  PA       -82.5890  -36.0580  -19.4110 P.3   1001  DGT1001     0.2189
     11  O1A      -81.9640  -35.4520  -18.2250 O.3   1001  DGT1001    -0.4371
     12  O2A      -81.9400  -37.2790  -19.9550 O.2   1001  DGT1001    -0.5170
     13  O5'      -84.2300  -36.3000  -19.2860 O.3   1001  DGT1001    -0.3112
     14  C5'      -84.9770  -35.5000  -18.4380 C.3   1001  DGT1001     0.1812
     15  C4'      -86.3080  -36.0500  -18.0180 C.3   1001  DGT1001     0.1772
     16  O4'      -87.1120  -36.0730  -19.2600 O.3   1001  DGT1001    -0.3347
     17  C3'      -86.2710  -37.4620  -17.4280 C.3   1001  DGT1001     0.1857
     18  O3'      -87.3860  -37.5860  -16.5030 O.3   1001  DGT1001    -0.2203
     19  C2'      -86.3660  -38.3030  -18.6820 C.3   1001  DGT1001     0.0865
     20  C1'      -87.3320  -37.4770  -19.6080 C.3   1001  DGT1001     0.1981
     21  N9       -86.9120  -37.7110  -21.0340 N.pl3 1001  DGT1001    -0.2374
     22  C8       -85.8650  -37.1410  -21.6720 C.3   1001  DGT1001     0.2245
     23  N7       -85.7580  -37.6160  -22.8980 N.2   1001  DGT1001    -0.2322
     24  C5       -86.7380  -38.5060  -23.0650 C.2   1001  DGT1001     0.2182
     25  C6       -87.0620  -39.3180  -24.1170 C.1   1001  DGT1001     0.2372
     26  O6       -86.4250  -39.2360  -25.1680 O.2   1001  DGT1001    -0.2069
     27  N1       -88.1540  -40.1640  -23.9990 N.2   1001  DGT1001    -0.2485
     28  C2       -88.8700  -40.2090  -22.7650 C.1   1001  DGT1001     0.2531
     29  N2       -89.8900  -41.0000  -22.6350 N.pl3 1001  DGT1001    -0.0226
     30  N3       -88.5120  -39.4220  -21.7330 N.2   1001  DGT1001    -0.3074
     31  C4       -87.4640  -38.5930  -21.8720 C.2   1001  DGT1001     0.2299
@<TRIPOS>BOND
     1    26    25    2
     2    25    27    2
     3    25    24    1
     4    27    28    2
     5    24    23    2
     6    24    31    1
     7    23    22    1
     8    28    29    1
     9    28    30    2
    10     7     6    2
    11    31    30    2
    12    31    21    1
    13    22    21    1
    14    21    20    1
    15     6     5    1
    16     6     9    1
    17     6     8    1
    18     5     1    1
    19     9    10    1
    20     2     1    2
    21    12    10    2
    22     1     4    1
    23     1     3    1
    24    20    16    1
    25    20    19    1
    26    10    13    1
    27    10    11    1
    28    13    14    1
    29    16    15    1
    30    19    17    1
    31    14    15    1
    32    15    17    1
    33    17    18    1
