@<TRIPOS>MOLECULE
1xjk_ADP_A_1.pdb
 27 29 0 0 0
SMALL
GASTEIGER

@<TRIPOS>ATOM
      1  PB       -88.2660  -62.4410    6.0230 P.3   1001  ADP1001     0.5373
      2  O1B      -88.0250  -63.2900    4.8440 O.2   1001  ADP1001    -0.2221
      3  O2B      -86.9480  -62.2200    6.8750 O.3   1001  ADP1001    -0.1143
      4  O3B      -89.4260  -63.0170    7.0130 O.3   1001  ADP1001    -0.1143
      5  PA       -90.0170  -60.2720    6.0180 P.3   1001  ADP1001     0.2231
      6  O1A      -89.7830  -59.4180    7.2400 O.3   1001  ADP1001    -0.4370
      7  O2A      -91.3360  -60.2620    5.0650 O.2   1001  ADP1001    -0.5169
      8  O3A      -88.6630  -60.9380    5.4460 O.3   1001  ADP1001    -0.2261
      9  O5'      -89.6830  -58.9370    5.1340 O.3   1001  ADP1001    -0.3111
     10  C5'      -88.5350  -58.0820    5.5220 C.3   1001  ADP1001     0.1813
     11  C4'      -87.9700  -57.2790    4.3720 C.3   1001  ADP1001     0.1821
     12  O4'      -87.5840  -58.2290    3.3640 O.3   1001  ADP1001    -0.3135
     13  C3'      -89.0800  -56.4790    3.7100 C.3   1001  ADP1001     0.2184
     14  O3'      -89.2880  -55.2460    4.4240 O.3   1001  ADP1001    -0.2174
     15  C2'      -88.5480  -56.3060    2.2640 C.3   1001  ADP1001     0.2570
     16  O2'      -87.6320  -55.1990    2.1280 O.3   1001  ADP1001    -0.2130
     17  C1'      -87.8150  -57.6520    2.0460 C.3   1001  ADP1001     0.3186
     18  N9       -88.5640  -58.6890    1.2460 N.pl3 1001  ADP1001    -0.1439
     19  C8       -89.6260  -59.4120    1.6470 C.3   1001  ADP1001     0.3377
     20  N7       -90.0030  -60.2410    0.6620 N.2   1001  ADP1001    -0.2095
     21  C5       -89.1870  -60.0500   -0.3900 C.2   1001  ADP1001     0.2526
     22  C6       -89.0740  -60.6000   -1.6940 C.2   1001  ADP1001     0.4393
     23  N6       -89.9130  -61.5380   -2.1420 N.pl3 1001  ADP1001     0.2180
     24  N1       -88.0960  -60.1700   -2.5170 N.2   1001  ADP1001     0.0021
     25  C2       -87.2460  -59.2390   -2.1020 C.3   1001  ADP1001     0.5254
     26  N3       -87.3160  -58.7000   -0.8850 N.2   1001  ADP1001    -0.0055
     27  C4       -88.2700  -59.0660   -0.0100 C.2   1001  ADP1001     0.3518
@<TRIPOS>BOND
     1    24    25    1
     2    24    22    2
     3    23    22    1
     4    25    26    1
     5    22    21    1
     6    26    27    2
     7    21    27    1
     8    21    20    2
     9    27    18    1
    10    20    19    1
    11    18    19    1
    12    18    17    1
    13    17    15    1
    14    17    12    1
    15    16    15    1
    16    15    13    1
    17    12    11    1
    18    13    11    1
    19    13    14    1
    20    11    10    1
    21     2     1    2
    22     7     5    2
    23     9    10    1
    24     9     5    1
    25     8     5    1
    26     8     1    1
    27     5     6    1
    28     1     3    1
    29     1     4    1
