@<TRIPOS>MOLECULE
1xjk_DGT_A_1.pdb
 31 33 0 0 0
SMALL
GASTEIGER

@<TRIPOS>ATOM
      1  PG       -83.1650  -31.6910  -20.0170 P.3   1003  DGT1003     0.5373
      2  O1G      -84.3670  -30.9390  -20.3470 O.2   1003  DGT1003    -0.2221
      3  O2G      -83.2060  -32.6600  -18.8760 O.3   1003  DGT1003    -0.1143
      4  O3G      -81.7920  -30.8010  -19.7930 O.3   1003  DGT1003    -0.1143
      5  O3B      -83.0210  -32.5520  -21.3560 O.3   1003  DGT1003    -0.2258
      6  PB       -82.0770  -33.8770  -21.3870 P.3   1003  DGT1003     0.2277
      7  O1B      -81.7620  -34.1340  -22.8220 O.2   1003  DGT1003    -0.5168
      8  O2B      -80.9680  -33.6940  -20.3980 O.3   1003  DGT1003    -0.4368
      9  O3A      -83.0560  -35.0960  -20.9470 O.3   1003  DGT1003    -0.2700
     10  PA       -82.8510  -36.1300  -19.6840 P.3   1003  DGT1003     0.2189
     11  O1A      -82.2340  -35.4570  -18.5190 O.3   1003  DGT1003    -0.4371
     12  O2A      -82.2620  -37.3910  -20.1570 O.2   1003  DGT1003    -0.5170
     13  O5'      -84.4290  -36.3570  -19.3380 O.3   1003  DGT1003    -0.3112
     14  C5'      -85.1410  -35.5620  -18.4810 C.3   1003  DGT1003     0.1812
     15  C4'      -86.5320  -36.1780  -18.1110 C.3   1003  DGT1003     0.1772
     16  O4'      -87.1770  -36.2470  -19.3940 O.3   1003  DGT1003    -0.3347
     17  C3'      -86.5940  -37.6020  -17.4690 C.3   1003  DGT1003     0.1857
     18  O3'      -87.8240  -37.7650  -16.6980 O.3   1003  DGT1003    -0.2203
     19  C2'      -86.6810  -38.3940  -18.7310 C.3   1003  DGT1003     0.0865
     20  C1'      -87.6050  -37.5240  -19.6550 C.3   1003  DGT1003     0.1981
     21  N9       -87.1920  -37.8270  -21.0570 N.pl3 1003  DGT1003    -0.2374
     22  C8       -86.1150  -37.3130  -21.6890 C.3   1003  DGT1003     0.2245
     23  N7       -85.9680  -37.8160  -22.8950 N.2   1003  DGT1003    -0.2322
     24  C5       -86.9950  -38.6570  -23.0540 C.2   1003  DGT1003     0.2182
     25  C6       -87.3310  -39.4780  -24.1080 C.1   1003  DGT1003     0.2372
     26  O6       -86.5980  -39.4300  -25.0750 O.2   1003  DGT1003    -0.2069
     27  N1       -88.4490  -40.3300  -24.0480 N.2   1003  DGT1003    -0.2485
     28  C2       -89.1820  -40.3190  -22.8510 C.1   1003  DGT1003     0.2531
     29  N2       -90.2380  -41.0660  -22.7470 N.pl3 1003  DGT1003    -0.0226
     30  N3       -88.8500  -39.5160  -21.8170 N.2   1003  DGT1003    -0.3074
     31  C4       -87.7740  -38.6850  -21.8940 C.2   1003  DGT1003     0.2299
@<TRIPOS>BOND
     1    26    25    2
     2    25    27    2
     3    25    24    1
     4    27    28    2
     5    24    23    2
     6    24    31    1
     7    23    22    1
     8    28    29    1
     9    28    30    2
    10     7     6    2
    11    31    30    2
    12    31    21    1
    13    22    21    1
    14     6     5    1
    15     6     9    1
    16     6     8    1
    17     5     1    1
    18    21    20    1
    19     9    10    1
    20     2     1    2
    21    12    10    2
    22     1     4    1
    23     1     3    1
    24    10    13    1
    25    10    11    1
    26    20    16    1
    27    20    19    1
    28    16    15    1
    29    13    14    1
    30    19    17    1
    31    14    15    1
    32    15    17    1
    33    17    18    1
