@<TRIPOS>MOLECULE
1xjm_TTP_A_1.pdb
 29 30 0 0 0
SMALL
GASTEIGER

@<TRIPOS>ATOM
      1  PA       -83.6270  -36.3380  -20.1400 P.3   1001  TTP1001     0.2189
      2  O1A      -83.0600  -35.5960  -19.0390 O.3   1001  TTP1001    -0.4371
      3  O2A      -82.9180  -37.5630  -20.5940 O.2   1001  TTP1001    -0.5170
      4  O3A      -83.9240  -35.3550  -21.3810 O.3   1001  TTP1001    -0.2700
      5  PB       -82.9260  -34.1100  -21.8630 P.3   1001  TTP1001     0.2277
      6  O1B      -82.6760  -34.4670  -23.3050 O.2   1001  TTP1001    -0.5168
      7  O2B      -81.7380  -33.8360  -20.9840 O.3   1001  TTP1001    -0.4368
      8  O3B      -83.9720  -32.8420  -21.7860 O.3   1001  TTP1001    -0.2258
      9  PG       -84.0440  -31.9010  -20.4520 P.3   1001  TTP1001     0.5373
     10  O1G      -85.3840  -31.2710  -20.6000 O.2   1001  TTP1001    -0.2221
     11  O2G      -83.6620  -32.7620  -19.2510 O.3   1001  TTP1001    -0.1143
     12  O3G      -82.8840  -30.7390  -20.5720 O.3   1001  TTP1001    -0.1143
     13  O5'      -85.1530  -36.6310  -19.7980 O.3   1001  TTP1001    -0.3112
     14  C5'      -85.8530  -35.7830  -18.9600 C.3   1001  TTP1001     0.1812
     15  C4'      -87.1560  -36.4340  -18.4630 C.3   1001  TTP1001     0.1773
     16  O4'      -87.8500  -36.5480  -19.6960 O.3   1001  TTP1001    -0.3339
     17  C3'      -87.1090  -37.8340  -17.8030 C.3   1001  TTP1001     0.1857
     18  O3'      -88.2540  -38.0560  -16.9160 O.3   1001  TTP1001    -0.2203
     19  C2'      -87.2210  -38.7390  -19.0090 C.3   1001  TTP1001     0.0874
     20  C1'      -88.2060  -37.9570  -19.8730 C.3   1001  TTP1001     0.2090
     21  N1       -88.0390  -38.3810  -21.2780 N.am  1001  TTP1001    -0.1794
     22  C2       -89.0910  -39.0890  -21.8610 C.1   1001  TTP1001     0.2844
     23  O2       -90.0800  -39.3360  -21.2020 O.2   1001  TTP1001    -0.1918
     24  N3       -89.0210  -39.5080  -23.1360 N.2   1001  TTP1001    -0.2455
     25  C4       -87.9290  -39.2590  -23.8910 C.1   1001  TTP1001     0.2134
     26  O4       -87.9710  -39.7380  -25.1580 O.2   1001  TTP1001    -0.2088
     27  C5       -86.8210  -38.5470  -23.3850 C.2   1001  TTP1001     0.0891
     28  C5M      -85.6800  -38.2950  -24.1710 C.3   1001  TTP1001     0.0462
     29  C6       -86.8690  -38.0930  -22.0590 C.2   1001  TTP1001     0.0877
@<TRIPOS>BOND
     1    26    25    2
     2    28    27    1
     3    25    27    1
     4    25    24    2
     5    27    29    2
     6     6     5    2
     7    24    22    2
     8    29    21    1
     9     5     8    1
    10     5     4    1
    11     5     7    1
    12    22    21   am
    13    22    23    2
    14     8     9    1
    15     4     1    1
    16    21    20    1
    17    10     9    2
    18     3     1    2
    19    12     9    1
    20     9    11    1
    21     1    13    1
    22     1     2    1
    23    20    16    1
    24    20    19    1
    25    13    14    1
    26    16    15    1
    27    19    17    1
    28    14    15    1
    29    15    17    1
    30    17    18    1
