@<TRIPOS>MOLECULE
1xjn_CDP_A_1.pdb
 25 26 0 0 0
SMALL
GASTEIGER

@<TRIPOS>ATOM
      1  O3B       88.4640  111.8400 -113.0220 O.2   1002  CDP1002    -0.2221
      2  PB        87.2300  111.3220 -112.2240 P.3   1002  CDP1002     0.5373
      3  O1B       86.0650  112.1780 -112.6860 O.3   1002  CDP1002    -0.1143
      4  O2B       87.4420  111.0810 -110.7410 O.3   1002  CDP1002    -0.1143
      5  O3A       86.8990  109.7260 -112.7080 O.3   1002  CDP1002    -0.2261
      6  PA        87.5950  108.7020 -113.8010 P.3   1002  CDP1002     0.2231
      7  O1A       88.8680  108.2780 -113.1360 O.3   1002  CDP1002    -0.4370
      8  O2A       87.5700  109.3190 -115.1140 O.2   1002  CDP1002    -0.5169
      9  O5'       86.5220  107.4810 -113.7570 O.3   1002  CDP1002    -0.3111
     10  C5'       86.5540  106.5710 -112.6650 C.3   1002  CDP1002     0.1813
     11  C4'       85.2030  106.0230 -112.4820 C.3   1002  CDP1002     0.1799
     12  O4'       84.1500  107.0240 -112.6600 O.3   1002  CDP1002    -0.3320
     13  C3'       84.8700  105.0610 -113.6370 C.3   1002  CDP1002     0.2158
     14  O3'       85.6620  103.8850 -113.5480 O.3   1002  CDP1002    -0.2175
     15  C2'       83.3730  104.7870 -113.3930 C.3   1002  CDP1002     0.2319
     16  O2'       83.1630  103.8440 -112.3550 O.3   1002  CDP1002    -0.2157
     17  C1'       82.8840  106.1660 -112.8630 C.3   1002  CDP1002     0.2400
     18  N1        81.8130  106.8190 -113.7220 N.am  1002  CDP1002    -0.1778
     19  C2        80.7920  107.6060 -113.1000 C.1   1002  CDP1002     0.2756
     20  O2        80.7800  107.7550 -111.8730 O.2   1002  CDP1002    -0.1925
     21  N3        79.8460  108.1920 -113.8730 N.2   1002  CDP1002    -0.3024
     22  C4        79.8430  108.0480 -115.2330 C.2   1002  CDP1002     0.2346
     23  N4        78.8880  108.6450 -115.9700 N.pl3 1002  CDP1002    -0.0921
     24  C5        80.8110  107.2710 -115.8890 C.2   1002  CDP1002     0.0687
     25  C6        81.8080  106.6520 -115.1440 C.2   1002  CDP1002     0.0836
@<TRIPOS>BOND
     1    23    22    1
     2    24    22    1
     3    24    25    2
     4    22    21    2
     5    25    18    1
     6     8     6    2
     7    21    19    2
     8     6     9    1
     9     6     7    1
    10     6     5    1
    11     9    10    1
    12    18    19   am
    13    18    17    1
    14    13    14    1
    15    13    15    1
    16    13    11    1
    17    15    17    1
    18    15    16    1
    19    19    20    2
    20     1     2    2
    21    17    12    1
    22     5     2    1
    23     3     2    1
    24    10    11    1
    25    12    11    1
    26     2     4    1
