@<TRIPOS>MOLECULE
1xjn_DTP_A_1.pdb
 30 32 0 0 0
SMALL
GASTEIGER

@<TRIPOS>ATOM
      1  PG        60.6290   80.2930 -112.5160 P.3   1005  DTP1005     0.5373
      2  O1G       59.8080   79.2330 -111.8780 O.3   1005  DTP1005    -0.1143
      3  O2G       62.1100   80.0870 -112.5830 O.3   1005  DTP1005    -0.1143
      4  O3G       60.0320   80.5550 -114.0250 O.2   1005  DTP1005    -0.2221
      5  PB        61.1600   82.7380 -110.7440 P.3   1005  DTP1005     0.2277
      6  O1B       60.2790   83.3650 -109.7300 O.3   1005  DTP1005    -0.4368
      7  O2B       62.3990   82.0590 -110.3030 O.2   1005  DTP1005    -0.5168
      8  O3B       60.2160   81.7340 -111.7070 O.3   1005  DTP1005    -0.2258
      9  PA        60.6430   84.6680 -112.7040 P.3   1005  DTP1005     0.2189
     10  O1A       60.2150   85.8240 -111.8890 O.3   1005  DTP1005    -0.4371
     11  O2A       59.6440   83.7910 -113.3930 O.2   1005  DTP1005    -0.5170
     12  O3A       61.6080   83.8830 -111.8200 O.3   1005  DTP1005    -0.2700
     13  O5'       61.5480   85.1200 -113.9330 O.3   1005  DTP1005    -0.3112
     14  C5'       62.3760   84.2150 -114.5840 C.3   1005  DTP1005     0.1813
     15  C4'       63.0580   84.8620 -115.7860 C.3   1005  DTP1005     0.1795
     16  O4'       62.1180   84.9760 -116.8640 O.3   1005  DTP1005    -0.3155
     17  C3'       63.6680   86.2650 -115.6210 C.3   1005  DTP1005     0.1883
     18  O3'       64.8300   86.3730 -116.4660 O.3   1005  DTP1005    -0.2202
     19  C2'       62.5410   87.1530 -116.1430 C.3   1005  DTP1005     0.1151
     20  C1'       61.8340   86.2980 -117.1480 C.3   1005  DTP1005     0.2873
     21  N9        60.3570   86.5170 -117.0000 N.pl3 1005  DTP1005    -0.1460
     22  C8        59.5620   86.0470 -116.0450 C.3   1005  DTP1005     0.3377
     23  N7        58.3250   86.4600 -116.2560 N.2   1005  DTP1005    -0.2095
     24  C5        58.3190   87.2070 -117.3500 C.2   1005  DTP1005     0.2526
     25  C6        57.3220   87.8930 -118.0330 C.2   1005  DTP1005     0.4393
     26  N6        56.0500   87.8670 -117.5600 N.pl3 1005  DTP1005     0.2180
     27  N1        57.6570   88.5500 -119.1530 N.2   1005  DTP1005     0.0021
     28  C2        58.8930   88.5540 -119.6080 C.3   1005  DTP1005     0.5254
     29  N3        59.8630   87.9150 -118.9570 N.2   1005  DTP1005    -0.0055
     30  C4        59.5990   87.2220 -117.8470 C.2   1005  DTP1005     0.3518
@<TRIPOS>BOND
     1    28    27    1
     2    28    29    1
     3    27    25    2
     4    29    30    2
     5    25    26    1
     6    25    24    1
     7    30    24    1
     8    30    21    1
     9    24    23    2
    10    20    21    1
    11    20    16    1
    12    20    19    1
    13    21    22    1
    14    16    15    1
    15    18    17    1
    16    23    22    1
    17    19    17    1
    18    15    17    1
    19    15    14    1
    20    14    13    1
    21     4     1    2
    22    13     9    1
    23    11     9    2
    24     9    10    1
    25     9    12    1
    26     3     1    1
    27     1     2    1
    28     1     8    1
    29    12     5    1
    30     8     5    1
    31     5     7    2
    32     5     6    1
