@<TRIPOS>MOLECULE
1xjq_ADP_A_1.pdb
 27 29 0 0 0
SMALL
GASTEIGER

@<TRIPOS>ATOM
      1  PB        38.5700   45.5100   15.8930 P.3   900  ADP900      0.5373
      2  O1B       39.2110   45.3230   17.1860 O.3   900  ADP900     -0.1143
      3  O2B       38.7250   44.2680   15.1230 O.2   900  ADP900     -0.2221
      4  O3B       37.2730   46.3020   16.0710 O.3   900  ADP900     -0.1143
      5  PA        39.6570   47.9790   14.8900 P.3   900  ADP900      0.2231
      6  O1A       41.1570   48.3900   15.0700 O.3   900  ADP900     -0.4370
      7  O2A       39.1950   48.3670   13.5330 O.2   900  ADP900     -0.5169
      8  O3A       39.6200   46.4760   15.2550 O.3   900  ADP900     -0.2261
      9  O5'       38.8200   48.8840   15.8760 O.3   900  ADP900     -0.3111
     10  C5'       39.2850   49.0740   17.1450 C.3   900  ADP900      0.1813
     11  C4'       38.2470   49.5340   18.1090 C.3   900  ADP900      0.1821
     12  O4'       37.5940   50.7180   17.6630 O.3   900  ADP900     -0.3135
     13  C3'       37.0610   48.5480   18.3660 C.3   900  ADP900      0.2184
     14  O3'       36.4860   48.8230   19.6340 O.3   900  ADP900     -0.2174
     15  C2'       36.0290   49.0040   17.3240 C.3   900  ADP900      0.2570
     16  O2'       34.7150   48.7830   17.6180 O.3   900  ADP900     -0.2130
     17  C1'       36.1660   50.5470   17.4340 C.3   900  ADP900      0.3186
     18  N9        35.9570   51.3250   16.2300 N.pl3 900  ADP900     -0.1439
     19  C8        36.6220   51.1780   15.0300 C.3   900  ADP900      0.3377
     20  N7        36.2550   52.1630   14.2310 N.2   900  ADP900     -0.2095
     21  C5        35.4220   52.9560   14.9510 C.2   900  ADP900      0.2526
     22  C6        34.7450   54.1320   14.6410 C.2   900  ADP900      0.4393
     23  N6        34.9220   54.8260   13.4970 N.pl3 900  ADP900      0.2180
     24  N1        33.9270   54.6080   15.6060 N.2   900  ADP900      0.0021
     25  C2        33.7320   54.0090   16.8330 C.3   900  ADP900      0.5254
     26  N3        34.3750   52.8670   17.1590 N.2   900  ADP900     -0.0055
     27  C4        35.2040   52.4070   16.1960 C.2   900  ADP900      0.3518
@<TRIPOS>BOND
     1    23    22    1
     2     7     5    2
     3    20    21    2
     4    20    19    1
     5    22    21    1
     6    22    24    2
     7     5     6    1
     8     5     8    1
     9     5     9    1
    10    21    27    1
    11    19    18    1
    12     3     1    2
    13     8     1    1
    14    24    25    1
    15     9    10    1
    16     1     4    1
    17     1     2    1
    18    27    18    1
    19    27    26    2
    20    18    17    1
    21    25    26    1
    22    10    11    1
    23    15    17    1
    24    15    16    1
    25    15    13    1
    26    17    12    1
    27    12    11    1
    28    11    13    1
    29    13    14    1
