@<TRIPOS>MOLECULE
1xjw_PAL_A_1.pdb
 16 15 0 0 0
SMALL
GASTEIGER

@<TRIPOS>ATOM
      1  P         45.7660   29.6770   15.9340 P.3   1311  PAL1311     0.1264
      2  O1P       46.1650   30.2490   17.3530 O.3   1311  PAL1311    -0.3568
      3  O2P       46.7230   28.4810   15.6170 O.3   1311  PAL1311    -0.3568
      4  O3P       46.1980   30.8390   14.9460 O.2   1311  PAL1311    -0.4596
      5  C1P       43.9750   29.0260   15.7880 C.3   1311  PAL1311     0.1454
      6  C1        43.0630   30.1170   16.2830 C.2   1311  PAL1311     0.2492
      7  O1        42.9790   31.1610   15.6210 O.2   1311  PAL1311    -0.2728
      8  N2        42.3990   29.9090   17.4260 N.am  1311  PAL1311    -0.1946
      9  C2        41.5520   30.9430   18.0210 C.3   1311  PAL1311     0.2090
     10  C4        42.5390   32.0050   18.4940 C.2   1311  PAL1311     0.3848
     11  O2        42.1250   32.9010   19.2610 O.co2 1311  PAL1311    -0.2437
     12  O3        43.7250   31.9160   18.0850 O.co2 1311  PAL1311    -0.2437
     13  C3        40.8200   30.3680   19.2370 C.3   1311  PAL1311     0.1472
     14  C5        41.6930   29.3980   20.0570 C.2   1311  PAL1311     0.3672
     15  O4        42.9050   29.6930   20.2480 O.co2 1311  PAL1311    -0.2456
     16  O5        41.1560   28.3580   20.5210 O.co2 1311  PAL1311    -0.2456
@<TRIPOS>BOND
     1     4     1    2
     2     3     1    1
     3     7     6    2
     4     5     1    1
     5     5     6    1
     6     1     2    1
     7     6     8   am
     8     8     9    1
     9     9    10    1
    10     9    13    1
    11    12    10   ar
    12    10    11   ar
    13    13    14    1
    14    14    15   ar
    15    14    16   ar
