@<TRIPOS>MOLECULE
1xjz_HEM_A_1.pdb
 43 50 0 0 0
SMALL
GASTEIGER

@<TRIPOS>ATOM
      1 FE         23.2660   24.5250   12.6220 Fe    300  HEM300      0.0000
      2  CHA       20.4600   25.6730   14.1960 C.2   300  HEM300      0.0000
      3  CHB       22.5250   26.4330    9.8510 C.2   300  HEM300      0.0000
      4  CHC       25.9540   23.1960   10.9050 C.2   300  HEM300      0.0000
      5  CHD       24.1290   22.7120   15.3810 C.2   300  HEM300      0.0000
      6  NA        21.8360   25.7780   12.1360 N.ar  300  HEM300      0.0000
      7  C1A       20.7120   26.1230   12.8940 C.ar  300  HEM300      0.0000
      8  C2A       19.8900   27.0900   12.1770 C.ar  300  HEM300      0.0000
      9  C3A       20.5080   27.3410   10.9850 C.ar  300  HEM300      0.0000
     10  C4A       21.7080   26.5320   10.9630 C.ar  300  HEM300      0.0000
     11  CMA       19.9750   28.2110    9.8470 C.3   300  HEM300      0.0000
     12  CAA       18.5410   27.6310   12.6090 C.3   300  HEM300      0.0000
     13  CBA       18.6070   28.8580   13.5070 C.3   300  HEM300      0.0000
     14  CGA       17.2280   29.3750   13.8850 C.2   300  HEM300      0.0000
     15  O1A       16.4510   29.7240   12.9710 O.co2 300  HEM300      0.0000
     16  O2A       16.9190   29.4330   15.0940 O.co2 300  HEM300      0.0000
     17  NB        24.0520   24.7480   10.7850 N.2   300  HEM300      0.0000
     18  C1B       23.5900   25.5550    9.7450 C.2   300  HEM300      0.0000
     19  C2B       24.3710   25.3940    8.5370 C.2   300  HEM300      0.0000
     20  C3B       25.3650   24.5010    8.8280 C.2   300  HEM300      0.0000
     21  C4B       25.1590   24.1090   10.2310 C.2   300  HEM300      0.0000
     22  CMB       24.0920   26.0870    7.1940 C.3   300  HEM300      0.0000
     23  CAB       26.3800   23.9960    7.9970 C.3   300  HEM300      0.0000
     24  CBB       26.9250   24.5750    6.7560 C.3   300  HEM300      0.0000
     25  NC        24.6990   23.2180   13.0340 N.ar  300  HEM300      0.0000
     26  C1C       25.7380   22.7800   12.2120 C.ar  300  HEM300      0.0000
     27  C2C       26.5990   21.8420   12.8980 C.ar  300  HEM300      0.0000
     28  C3C       26.1170   21.7090   14.1730 C.ar  300  HEM300      0.0000
     29  C4C       24.9210   22.5490   14.2420 C.ar  300  HEM300      0.0000
     30  CMC       27.7640   21.0980   12.2570 C.3   300  HEM300      0.0000
     31  CAC       26.6680   20.9860   15.2310 C.3   300  HEM300      0.0000
     32  CBC       27.3400   19.6940   15.1000 C.3   300  HEM300      0.0000
     33  ND        22.4880   24.2830   14.4120 N.2   300  HEM300      0.0000
     34  C1D       22.9930   23.5130   15.4560 C.2   300  HEM300      0.0000
     35  C2D       22.1560   23.6140   16.6300 C.2   300  HEM300      0.0000
     36  C3D       21.1160   24.4240   16.3020 C.2   300  HEM300      0.0000
     37  C4D       21.3150   24.8340   14.9170 C.2   300  HEM300      0.0000
     38  CMD       22.4040   22.9700   17.9870 C.3   300  HEM300      0.0000
     39  CAD       20.0010   24.8310   17.2630 C.3   300  HEM300      0.0000
     40  CBD       20.1160   26.2780   17.7190 C.3   300  HEM300      0.0000
     41  CGD       19.1410   26.6160   18.8300 C.2   300  HEM300      0.0000
     42  O1D       19.5520   26.6120   20.0120 O.co2 300  HEM300      0.0000
     43  O2D       17.9600   26.8730   18.5190 O.co2 300  HEM300      0.0000
@<TRIPOS>BOND
     1    24    23    1
     2    22    19    1
     3    23    20    1
     4    19    20    2
     5    19    18    1
     6    20    21    1
     7    18     3    1
     8    18    17    2
     9    11     9    1
    10     3    10    2
    11    21    17    1
    12    21     4    2
    13    17     1    1
    14     4    26    1
    15    10     9   ar
    16    10     6   ar
    17     9     8   ar
    18     6     1    1
    19     6     7   ar
    20     8    12    1
    21     8     7   ar
    22    26    27   ar
    23    26    25   ar
    24    30    27    1
    25    12    13    1
    26     1    25    1
    27     1    33    1
    28     7     2    2
    29    27    28   ar
    30    15    14   ar
    31    25    29   ar
    32    13    14    1
    33    14    16   ar
    34    28    29   ar
    35    28    31    1
    36     2    37    1
    37    29     5    1
    38    33    37    2
    39    33    34    1
    40    37    36    1
    41    32    31    1
    42     5    34    2
    43    34    35    1
    44    36    35    2
    45    36    39    1
    46    35    38    1
    47    39    40    1
    48    40    41    1
    49    43    41   ar
    50    41    42   ar
