@<TRIPOS>MOLECULE
1xk0_HEM_A_1.pdb
 43 50 0 0 0
SMALL
GASTEIGER

@<TRIPOS>ATOM
      1 FE          3.7750   24.4210   40.3370 Fe    300  HEM300      0.0000
      2  CHA        6.6100   25.5440   38.7720 C.2   300  HEM300      0.0000
      3  CHB        4.5730   26.1980   43.1750 C.2   300  HEM300      0.0000
      4  CHC        1.1140   22.9820   42.0730 C.2   300  HEM300      0.0000
      5  CHD        2.9920   22.5540   37.6180 C.2   300  HEM300      0.0000
      6  NA         5.2200   25.6350   40.8370 N.2   300  HEM300      0.0000
      7  C1A        6.3370   25.9910   40.0870 C.2   300  HEM300      0.0000
      8  C2A        7.1250   26.9720   40.8260 C.2   300  HEM300      0.0000
      9  C3A        6.4670   27.2660   41.9690 C.2   300  HEM300      0.0000
     10  C4A        5.3440   26.3670   42.0250 C.2   300  HEM300      0.0000
     11  CMA        6.7740   28.4120   42.9260 C.3   300  HEM300      0.0000
     12  CAA        8.5160   27.4630   40.4870 C.3   300  HEM300      0.0000
     13  CBA        8.4990   28.4800   39.3700 C.3   300  HEM300      0.0000
     14  CGA        9.6640   28.2920   38.4240 C.2   300  HEM300      0.0000
     15  O1A       10.8290   28.3920   38.8830 O.co2 300  HEM300      0.0000
     16  O2A        9.4110   28.0350   37.2230 O.co2 300  HEM300      0.0000
     17  NB         3.0400   24.5200   42.2220 N.ar  300  HEM300      0.0000
     18  C1B        3.4950   25.3300   43.2670 C.ar  300  HEM300      0.0000
     19  C2B        2.5960   25.2960   44.4160 C.ar  300  HEM300      0.0000
     20  C3B        1.6060   24.3790   44.1250 C.ar  300  HEM300      0.0000
     21  C4B        1.8930   23.9110   42.7530 C.ar  300  HEM300      0.0000
     22  CMB        2.6910   26.2300   45.6330 C.3   300  HEM300      0.0000
     23  CAB        0.5640   23.9200   44.9530 C.3   300  HEM300      0.0000
     24  CBB       -0.0920   24.6490   46.0470 C.3   300  HEM300      0.0000
     25  NC         2.3870   23.0520   39.9570 N.2   300  HEM300      0.0000
     26  C1C        1.3520   22.5770   40.7720 C.2   300  HEM300      0.0000
     27  C2C        0.5130   21.6210   40.0580 C.2   300  HEM300      0.0000
     28  C3C        1.0200   21.4960   38.8020 C.2   300  HEM300      0.0000
     29  C4C        2.1980   22.3770   38.7440 C.2   300  HEM300      0.0000
     30  CMC       -0.7500   20.9350   40.5550 C.3   300  HEM300      0.0000
     31  CAC        0.4710   20.7640   37.7460 C.3   300  HEM300      0.0000
     32  CBC        0.0110   19.3870   37.8070 C.3   300  HEM300      0.0000
     33  ND         4.5730   24.1850   38.5300 N.ar  300  HEM300      0.0000
     34  C1D        4.0760   23.4170   37.5020 C.ar  300  HEM300      0.0000
     35  C2D        4.8930   23.5220   36.3270 C.ar  300  HEM300      0.0000
     36  C3D        5.9370   24.3340   36.6180 C.ar  300  HEM300      0.0000
     37  C4D        5.7550   24.7210   38.0200 C.ar  300  HEM300      0.0000
     38  CMD        4.5850   22.8550   34.9940 C.3   300  HEM300      0.0000
     39  CAD        6.9920   24.7940   35.6030 C.3   300  HEM300      0.0000
     40  CBD        6.9730   26.3000   35.3650 C.3   300  HEM300      0.0000
     41  CGD        7.9030   26.7440   34.2520 C.2   300  HEM300      0.0000
     42  O1D        7.5280   26.6260   33.0640 O.co2 300  HEM300      0.0000
     43  O2D        9.0180   27.2080   34.5660 O.co2 300  HEM300      0.0000
@<TRIPOS>BOND
     1    42    41   ar
     2    41    43   ar
     3    41    40    1
     4    38    35    1
     5    40    39    1
     6    39    36    1
     7    35    36   ar
     8    35    34   ar
     9    36    37   ar
    10    16    14   ar
    11    34     5    2
    12    34    33   ar
    13     5    29    1
    14    31    32    1
    15    31    28    1
    16    37    33   ar
    17    37     2    2
    18    14    15   ar
    19    14    13    1
    20    33     1    1
    21    29    28    1
    22    29    25    2
    23     2     7    1
    24    28    27    2
    25    13    12    1
    26    25     1    1
    27    25    26    1
    28    27    30    1
    29    27    26    1
    30     7     8    1
    31     7     6    2
    32     1     6    1
    33     1    17    1
    34    12     8    1
    35    26     4    2
    36     8     9    2
    37     6    10    1
    38     9    10    1
    39     9    11    1
    40    10     3    2
    41     4    21    1
    42    17    21   ar
    43    17    18   ar
    44    21    20   ar
    45     3    18    1
    46    18    19   ar
    47    20    19   ar
    48    20    23    1
    49    19    22    1
    50    23    24    1
