@<TRIPOS>MOLECULE
1xk1_HEM_A_1.pdb
 43 50 0 0 0
SMALL
GASTEIGER

@<TRIPOS>ATOM
      1 FE          3.4370   23.8200   41.0530 Fe    300  HEM300      0.0000
      2  CHA        6.3340   24.9660   39.5510 C.2   300  HEM300      0.0000
      3  CHB        4.3450   25.3910   43.9730 C.2   300  HEM300      0.0000
      4  CHC        0.4500   22.8830   42.5000 C.2   300  HEM300      0.0000
      5  CHD        2.5910   22.1780   38.1780 C.2   300  HEM300      0.0000
      6  NA         4.9680   24.9690   41.6020 N.2   300  HEM300      0.0000
      7  C1A        6.0900   25.3630   40.8710 C.2   300  HEM300      0.0000
      8  C2A        6.9570   26.2020   41.7030 C.2   300  HEM300      0.0000
      9  C3A        6.4470   26.1930   42.9480 C.2   300  HEM300      0.0000
     10  C4A        5.1930   25.5190   42.8830 C.2   300  HEM300      0.0000
     11  CMA        7.0840   26.7970   44.2030 C.3   300  HEM300      0.0000
     12  CAA        7.9550   27.2740   41.3030 C.3   300  HEM300      0.0000
     13  CBA        9.0630   26.9240   40.3440 C.3   300  HEM300      0.0000
     14  CGA        9.9450   28.1130   40.0490 C.2   300  HEM300      0.0000
     15  O1A       10.8230   28.4120   40.8850 O.co2 300  HEM300      0.0000
     16  O2A        9.7450   28.7550   38.9910 O.co2 300  HEM300      0.0000
     17  NB         2.5720   24.0760   42.8540 N.ar  300  HEM300      0.0000
     18  C1B        3.1220   24.7310   43.9660 C.ar  300  HEM300      0.0000
     19  C2B        2.2200   24.7010   45.0830 C.ar  300  HEM300      0.0000
     20  C3B        1.1010   24.0330   44.6800 C.ar  300  HEM300      0.0000
     21  C4B        1.3260   23.6280   43.2940 C.ar  300  HEM300      0.0000
     22  CMB        2.4510   25.3300   46.4530 C.3   300  HEM300      0.0000
     23  CAB       -0.0410   23.9130   45.4730 C.3   300  HEM300      0.0000
     24  CBB       -0.7660   22.6810   45.6770 C.3   300  HEM300      0.0000
     25  NC         1.8770   22.7780   40.4750 N.2   300  HEM300      0.0000
     26  C1C        0.7130   22.4950   41.1800 C.2   300  HEM300      0.0000
     27  C2C       -0.1680   21.6220   40.4040 C.2   300  HEM300      0.0000
     28  C3C        0.4770   21.3390   39.2550 C.2   300  HEM300      0.0000
     29  C4C        1.7190   22.0880   39.2660 C.2   300  HEM300      0.0000
     30  CMC       -1.5840   21.1320   40.7700 C.3   300  HEM300      0.0000
     31  CAC        0.0540   20.4040   38.3060 C.3   300  HEM300      0.0000
     32  CBC        0.0380   18.9600   38.6410 C.3   300  HEM300      0.0000
     33  ND         4.2520   23.6610   39.2290 N.ar  300  HEM300      0.0000
     34  C1D        3.7500   22.9490   38.1540 C.ar  300  HEM300      0.0000
     35  C2D        4.6190   23.0730   37.0090 C.ar  300  HEM300      0.0000
     36  C3D        5.6660   23.8460   37.3810 C.ar  300  HEM300      0.0000
     37  C4D        5.4550   24.1910   38.7710 C.ar  300  HEM300      0.0000
     38  CMD        4.3480   22.5820   35.5850 C.3   300  HEM300      0.0000
     39  CAD        6.7430   24.3530   36.4090 C.3   300  HEM300      0.0000
     40  CBD        6.9500   25.8550   36.2270 C.3   300  HEM300      0.0000
     41  CGD        7.9120   26.1770   35.0960 C.2   300  HEM300      0.0000
     42  O1D        7.4860   26.1750   33.9200 O.co2 300  HEM300      0.0000
     43  O2D        9.1010   26.4200   35.3800 O.co2 300  HEM300      0.0000
@<TRIPOS>BOND
     1    42    41   ar
     2    41    43   ar
     3    41    40    1
     4    38    35    1
     5    40    39    1
     6    39    36    1
     7    35    36   ar
     8    35    34   ar
     9    36    37   ar
    10    34     5    2
    11    34    33   ar
    12     5    29    1
    13    31    32    1
    14    31    28    1
    15    37    33   ar
    16    37     2    2
    17    16    14   ar
    18    33     1    1
    19    28    29    1
    20    28    27    2
    21    29    25    2
    22     2     7    1
    23    14    13    1
    24    14    15   ar
    25    13    12    1
    26    27    30    1
    27    27    26    1
    28    25     1    1
    29    25    26    1
    30     7     6    2
    31     7     8    1
    32     1     6    1
    33     1    17    1
    34    26     4    2
    35    12     8    1
    36     6    10    1
    37     8     9    2
    38     4    21    1
    39    17    21   ar
    40    17    18   ar
    41    10     9    1
    42    10     3    2
    43     9    11    1
    44    21    20   ar
    45    18     3    1
    46    18    19   ar
    47    20    19   ar
    48    20    23    1
    49    19    22    1
    50    23    24    1
