@<TRIPOS>MOLECULE
1xk9_P34_A_1.pdb
 22 24 0 0 0
SMALL
GASTEIGER

@<TRIPOS>ATOM
      1  CAA       31.8880    7.6030   18.1380 C.3   1001  P341001     0.0900
      2  N         32.8510    8.7170   18.0680 N.3   1001  P341001    -0.2625
      3  CAB       32.8860    9.4620   19.3360 C.3   1001  P341001     0.0900
      4  CA        32.5250    9.6490   16.9080 C.3   1001  P341001     0.1606
      5  C         31.0220   10.0210   16.6150 C.2   1001  P341001     0.2619
      6  O         30.8090   10.7810   15.6490 O.2   1001  P341001    -0.2715
      7  NAM       29.8710    9.5620   17.3270 N.am  1001  P341001    -0.1780
      8  CAP       29.3510    9.3770   18.6130 C.2   1001  P341001     0.0736
      9  CAK       28.1420    8.5170   18.6140 C.2   1001  P341001     0.0192
     10  CAU       27.4000    8.1560   19.8490 C.2   1001  P341001     0.0326
     11  CAT       26.1680    7.3120   19.9000 C.ar  1001  P341001     0.0145
     12  CAI       25.5700    6.7070   18.7210 C.ar  1001  P341001     0.0008
     13  CAF       24.3690    5.8760   18.8090 C.ar  1001  P341001     0.0000
     14  CAE       23.7700    5.6120   20.0600 C.ar  1001  P341001     0.0008
     15  CAH       24.3270    6.1790   21.2490 C.ar  1001  P341001     0.0127
     16  CAS       25.5330    7.0050   21.1970 C.ar  1001  P341001     0.0948
     17  CAQ       26.0740    7.5700   22.3840 C.1   1001  P341001     0.2046
     18  OAD       25.5960    7.3700   23.5060 O.2   1001  P341001    -0.2093
     19  NAN       27.2650    8.3890   22.3100 N.2   1001  P341001    -0.3329
     20  CAR       27.9220    8.6930   21.0770 C.2   1001  P341001     0.1444
     21  CAJ       29.1120    9.5360   21.1150 C.2   1001  P341001     0.0344
     22  CAG       29.8160    9.8620   19.8810 C.2   1001  P341001     0.0193
@<TRIPOS>BOND
     1     6     5    2
     2     5     4    1
     3     5     7    1
     4     4     2    1
     5     7     8    2
     6     2     1    1
     7     2     3    1
     8     8     9    1
     9     8    22    1
    10     9    10    2
    11    12    13   ar
    12    12    11   ar
    13    13    14   ar
    14    10    11    1
    15    10    20    1
    16    22    21    2
    17    11    16   ar
    18    14    15   ar
    19    20    21    1
    20    20    19    2
    21    16    15   ar
    22    16    17    1
    23    19    17    2
    24    17    18    2
