@<TRIPOS>MOLECULE
1xka_4PP_C_1.pdb
 29 31 0 0 0
SMALL
GASTEIGER

@<TRIPOS>ATOM
      1  C1C        0.5200   16.4390   19.1710 C.2   500  4PP500      0.3683
      2  O2         0.0480   15.3010   19.3010 O.co2 500  4PP500     -0.2453
      3  O3         1.6960   16.7720   19.7870 O.co2 500  4PP500     -0.2453
      4  N1P       -1.6370   26.0050   17.8390 N.ar  500  4PP500     -0.2422
      5  C2P       -2.5080   25.3040   16.9820 C.ar  500  4PP500      0.1002
      6  C3P       -2.5830   23.8980   17.0620 C.ar  500  4PP500      0.0368
      7  C4P       -1.7900   23.1960   17.9930 C.ar  500  4PP500      0.0684
      8  C5P       -0.9130   23.9090   18.8580 C.ar  500  4PP500      0.0368
      9  C6P       -0.8420   25.3070   18.7760 C.ar  500  4PP500      0.1002
     10  N1        -1.9020   21.7140   18.0390 N.pl3 500  4PP500     -0.2375
     11  C1        -0.2300   17.4660   18.2990 C.3   500  4PP500      0.1257
     12  C2         0.0960   18.8970   18.7340 C.3   500  4PP500      0.0175
     13  C3        -1.2270   19.5940   19.0360 C.3   500  4PP500      0.0242
     14  C4        -1.0180   21.1040   19.0560 C.3   500  4PP500      0.1122
     15  N1A        4.9330   20.3120   10.3410 N.pl3 500  4PP500      0.2047
     16  N2A        3.1740   18.8870   10.0250 N.pl3 500  4PP500      0.2047
     17  C1A        4.0810   19.4230   10.8170 C.2   500  4PP500      0.4766
     18  C1D        0.7180   16.7840   14.0710 C.ar  500  4PP500     -0.0000
     19  C2D       -0.4850   16.2740   14.6320 C.ar  500  4PP500     -0.0003
     20  C3D       -0.7800   16.5030   16.0010 C.ar  500  4PP500     -0.0037
     21  C4D        0.1240   17.2410   16.8200 C.ar  500  4PP500     -0.0118
     22  C5D        1.3390   17.7560   16.2610 C.ar  500  4PP500     -0.0037
     23  C6D        1.6390   17.5290   14.8830 C.ar  500  4PP500     -0.0003
     24  C1B        5.3300   18.7330   14.4360 C.ar  500  4PP500      0.0003
     25  C2B        4.1470   18.2120   15.0370 C.ar  500  4PP500      0.0000
     26  C3B        2.9490   18.0890   14.2630 C.ar  500  4PP500      0.0002
     27  C4B        2.9520   18.4890   12.9010 C.ar  500  4PP500      0.0080
     28  C5B        4.1260   19.0050   12.2990 C.ar  500  4PP500      0.0975
     29  C6B        5.3190   19.1300   13.0650 C.ar  500  4PP500      0.0080
@<TRIPOS>BOND
     1    16    17    2
     2    15    17    1
     3    17    28    1
     4    28    27   ar
     5    28    29   ar
     6    27    26   ar
     7    29    24   ar
     8    18    19   ar
     9    18    23   ar
    10    26    23    1
    11    26    25   ar
    12    24    25   ar
    13    19    20   ar
    14    23    22   ar
    15    20    21   ar
    16    22    21   ar
    17    21    11    1
    18     5     6   ar
    19     5     4   ar
    20     6     7   ar
    21     4     9   ar
    22     7    10    1
    23     7     8   ar
    24    10    14    1
    25    11    12    1
    26    11     1    1
    27    12    13    1
    28     9     8   ar
    29    13    14    1
    30     1     2   ar
    31     1     3   ar
