@<TRIPOS>MOLECULE
1xkb_4PP_C_1.pdb
 29 31 0 0 0
SMALL
GASTEIGER

@<TRIPOS>ATOM
      1  C1C       -9.4390    6.4980   14.8820 C.2   998  4PP998      0.3683
      2  O2        -9.1550    6.0210   13.7920 O.co2 998  4PP998     -0.2453
      3  O3        -9.7470    7.8180   14.9620 O.co2 998  4PP998     -0.2453
      4  N1P      -10.0200   -2.7870   17.0900 N.ar  998  4PP998     -0.2422
      5  C2P       -9.8720   -2.0620   18.2980 C.ar  998  4PP998      0.1002
      6  C3P      -10.0660   -0.6570   18.3040 C.ar  998  4PP998      0.0368
      7  C4P      -10.4080    0.0170   17.1050 C.ar  998  4PP998      0.0684
      8  C5P      -10.5550   -0.7290   15.8870 C.ar  998  4PP998      0.0368
      9  C6P      -10.3600   -2.1260   15.8870 C.ar  998  4PP998      0.1002
     10  N1       -10.6070    1.5050   17.1480 N.pl3 998  4PP998     -0.2375
     11  C1        -9.4390    5.6200   16.1650 C.3   998  4PP998      0.1257
     12  C2        -9.4630    4.1060   15.8220 C.3   998  4PP998      0.0175
     13  C3       -10.9220    3.6130   15.8670 C.3   998  4PP998      0.0242
     14  C4       -10.9610    2.0750   15.8140 C.3   998  4PP998      0.1122
     15  N1A       -0.2950    3.0770   18.5040 N.pl3 998  4PP998      0.2047
     16  N2A       -1.2470    4.4960   20.0110 N.pl3 998  4PP998      0.2047
     17  C1A       -1.1890    3.9970   18.7960 C.2   998  4PP998      0.4766
     18  C1D       -5.9470    6.6880   18.6100 C.ar  998  4PP998     -0.0000
     19  C2D       -7.2500    7.1260   18.9760 C.ar  998  4PP998     -0.0003
     20  C3D       -8.3730    6.7730   18.1790 C.ar  998  4PP998     -0.0037
     21  C4D       -8.2010    5.9810   17.0130 C.ar  998  4PP998     -0.0118
     22  C5D       -6.8880    5.5390   16.6410 C.ar  998  4PP998     -0.0037
     23  C6D       -5.7610    5.8960   17.4470 C.ar  998  4PP998     -0.0003
     24  C1B       -2.6130    5.0380   15.3470 C.ar  998  4PP998      0.0003
     25  C2B       -3.9220    5.4740   15.6960 C.ar  998  4PP998      0.0000
     26  C3B       -4.3480    5.4260   17.0570 C.ar  998  4PP998      0.0002
     27  C4B       -3.4610    4.9430   18.0600 C.ar  998  4PP998      0.0080
     28  C5B       -2.1530    4.5080   17.7090 C.ar  998  4PP998      0.0975
     29  C6B       -1.7320    4.5570   16.3530 C.ar  998  4PP998      0.0080
@<TRIPOS>BOND
     1     2     1   ar
     2     1     3   ar
     3     1    11    1
     4    24    25   ar
     5    24    29   ar
     6    25    26   ar
     7    14    13    1
     8    14    10    1
     9    12    13    1
    10    12    11    1
    11     8     9   ar
    12     8     7   ar
    13     9     4   ar
    14    11    21    1
    15    29    28   ar
    16    22    21   ar
    17    22    23   ar
    18    21    20   ar
    19    26    23    1
    20    26    27   ar
    21     4     5   ar
    22     7    10    1
    23     7     6   ar
    24    23    18   ar
    25    28    27   ar
    26    28    17    1
    27    20    19   ar
    28     5     6   ar
    29    15    17    2
    30    18    19   ar
    31    17    16    1
