@<TRIPOS>MOLECULE
1xkd_ICT_A_1.pdb
 13 12 0 0 0
SMALL
GASTEIGER

@<TRIPOS>ATOM
      1  C1       250.6970   87.4400 -156.2390 C.2   1002  ICT1002     0.3952
      2  O1       251.3330   87.5340 -155.1770 O.co2 1002  ICT1002    -0.2428
      3  O2       249.9040   88.3150 -156.6350 O.co2 1002  ICT1002    -0.2428
      4  C2       250.8730   86.2240 -157.0950 C.3   1002  ICT1002     0.2651
      5  O7       250.1760   86.5020 -158.3030 O.3   1002  ICT1002    -0.2103
      6  C3       250.1980   85.0390 -156.4130 C.3   1002  ICT1002     0.1561
      7  C4       250.4430   83.6450 -156.9910 C.3   1002  ICT1002     0.1285
      8  C5       251.3960   83.5720 -158.1640 C.2   1002  ICT1002     0.3655
      9  O3       250.9470   83.6150 -159.3360 O.co2 1002  ICT1002    -0.2456
     10  O4       252.6130   83.4320 -157.9130 O.co2 1002  ICT1002    -0.2456
     11  C6       248.7440   85.3480 -156.5520 C.2   1002  ICT1002     0.3680
     12  O5       248.1420   85.7920 -155.5600 O.co2 1002  ICT1002    -0.2455
     13  O6       248.2300   85.1830 -157.6830 O.co2 1002  ICT1002    -0.2455
@<TRIPOS>BOND
     1     9     8   ar
     2     5     4    1
     3     8    10   ar
     4     8     7    1
     5    13    11   ar
     6     4     6    1
     7     4     1    1
     8     7     6    1
     9     3     1   ar
    10    11     6    1
    11    11    12   ar
    12     1     2   ar
