@<TRIPOS>MOLECULE
1xkd_NAP_A_1.pdb
 48 52 0 0 0
SMALL
GASTEIGER

@<TRIPOS>ATOM
      1  PA       262.1270   87.7120 -158.8390 P.3   1001  NAP1001     0.2189
      2  O1A      260.7090   87.5080 -159.2600 O.2   1001  NAP1001    -0.5170
      3  O2A      262.1810   88.1510 -157.3740 O.3   1001  NAP1001    -0.4371
      4  O5B      262.8330   88.8030 -159.8030 O.3   1001  NAP1001    -0.3112
      5  C5B      262.8180   88.5720 -161.2030 C.3   1001  NAP1001     0.1813
      6  C4B      263.3720   89.7580 -161.9880 C.3   1001  NAP1001     0.1820
      7  O4B      262.6350   90.9420 -161.7160 O.3   1001  NAP1001    -0.3136
      8  C3B      264.8320   90.0560 -161.6550 C.3   1001  NAP1001     0.2157
      9  O3B      265.7210   89.3090 -162.4540 O.3   1001  NAP1001    -0.2175
     10  C2B      264.9380   91.5730 -161.8040 C.3   1001  NAP1001     0.2314
     11  O2B      265.6470   92.0630 -162.9510 O.3   1001  NAP1001    -0.2630
     12  C1B      263.4920   92.0730 -161.7030 C.3   1001  NAP1001     0.3158
     13  N9A      263.2210   92.7870 -160.4360 N.pl3 1001  NAP1001    -0.1439
     14  C8A      262.3900   92.3350 -159.4380 C.3   1001  NAP1001     0.3377
     15  N7A      262.3720   93.2440 -158.4440 N.2   1001  NAP1001    -0.2095
     16  C5A      263.1570   94.2840 -158.7810 C.2   1001  NAP1001     0.2526
     17  C6A      263.4770   95.4650 -158.1170 C.2   1001  NAP1001     0.4393
     18  N6A      263.2700   95.5430 -156.8060 N.pl3 1001  NAP1001     0.2180
     19  N1A      264.3480   96.3540 -158.7150 N.2   1001  NAP1001     0.0021
     20  C2A      264.8900   96.0800 -159.9500 C.3   1001  NAP1001     0.5254
     21  N3A      264.5600   94.9040 -160.6100 N.2   1001  NAP1001    -0.0055
     22  C4A      263.7110   94.0100 -160.0340 C.2   1001  NAP1001     0.3518
     23  O3       262.9870   86.3580 -159.1010 O.3   1001  NAP1001    -0.2703
     24  PN       262.3220   84.9060 -159.3450 P.3   1001  NAP1001     0.2189
     25  O1N      263.3810   84.0000 -159.8530 O.3   1001  NAP1001    -0.4371
     26  O2N      261.0740   85.0640 -160.1320 O.2   1001  NAP1001    -0.5170
     27  O5D      261.9150   84.3360 -157.8850 O.3   1001  NAP1001    -0.3112
     28  C5D      262.0650   85.0880 -156.7020 C.3   1001  NAP1001     0.1813
     29  C4D      261.6370   84.3260 -155.4410 C.3   1001  NAP1001     0.1799
     30  O4D      260.8870   85.2360 -154.6510 O.3   1001  NAP1001    -0.3327
     31  C3D      260.7800   83.0780 -155.6700 C.3   1001  NAP1001     0.2158
     32  O3D      261.3930   81.9470 -155.0750 O.3   1001  NAP1001    -0.2175
     33  C2D      259.4420   83.3960 -155.0200 C.3   1001  NAP1001     0.2309
     34  O2D      258.9590   82.3400 -154.2280 O.3   1001  NAP1001    -0.2158
     35  C1D      259.7190   84.6200 -154.1500 C.3   1001  NAP1001     0.2263
     36  N1N      258.6460   85.6310 -154.1690 N.pl3 1001  NAP1001    -0.2787
     37  C2N      258.3110   86.2040 -152.9670 C.3   1001  NAP1001     0.1244
     38  C3N      257.3220   87.1960 -152.9060 C.2   1001  NAP1001     0.0544
     39  C7N      257.3560   88.1020 -151.6990 C.2   1001  NAP1001     0.2818
     40  O7N      257.6250   87.4730 -150.4570 O.2   1001  NAP1001    -0.2670
     41  N7N      257.1650   89.4340 -151.8230 N.am  1001  NAP1001    -0.0839
     42  C4N      256.6690   87.5760 -154.0930 C.2   1001  NAP1001     0.0033
     43  C5N      257.0140   86.9840 -155.3160 C.2   1001  NAP1001     0.0157
     44  C6N      258.0140   86.0070 -155.3440 C.2   1001  NAP1001     0.0633
     45  P2B      265.5860   91.6050 -164.5120 P.3   1001  NAP1001     0.5328
     46  O1X      266.3110   90.3230 -164.7210 O.3   1001  NAP1001    -0.1145
     47  O2X      264.1080   91.4740 -164.9420 O.3   1001  NAP1001    -0.1145
     48  O3X      266.2500   92.6790 -165.3930 O.2   1001  NAP1001    -0.2224
@<TRIPOS>BOND
     1    48    45    2
     2    47    45    1
     3    46    45    1
     4    45    11    1
     5    11    10    1
     6     9     8    1
     7     6     7    1
     8     6     8    1
     9     6     5    1
    10    10    12    1
    11    10     8    1
    12     7    12    1
    13    12    13    1
    14     5     4    1
    15    21    22    2
    16    21    20    1
    17    13    22    1
    18    13    14    1
    19    26    24    2
    20    22    16    1
    21    20    19    1
    22    25    24    1
    23     4     1    1
    24    14    15    1
    25    24    23    1
    26    24    27    1
    27     2     1    2
    28    23     1    1
    29     1     3    1
    30    16    15    2
    31    16    17    1
    32    19    17    2
    33    17    18    1
    34    27    28    1
    35    28    29    1
    36    31    29    1
    37    31    32    1
    38    31    33    1
    39    29    30    1
    40    44    43    2
    41    44    36    1
    42    43    42    1
    43    33    34    1
    44    33    35    1
    45    30    35    1
    46    36    35    1
    47    36    37    1
    48    42    38    2
    49    37    38    1
    50    38    39    1
    51    41    39   am
    52    39    40    2
