@<TRIPOS>MOLECULE
1xkh_PVE_I_1.pdb
 26 28 0 0 0
SMALL
GASTEIGER

@<TRIPOS>ATOM
      1  O23        0.6850    7.2690   53.3550 O.co2   1  PVE1       -0.2456
      2  C22        1.8400    7.6740   53.4320 C.2     1  PVE1        0.3654
      3  O24        2.3930    8.3330   52.5620 O.co2   1  PVE1       -0.2456
      4  C21        2.6530    7.3230   54.6910 C.3     1  PVE1        0.1237
      5  C20        2.7570    8.5370   55.6420 C.3     1  PVE1        0.0990
      6  C18        4.0830    9.2800   55.4030 C.2     1  PVE1        0.2464
      7  O19        4.9280    9.3700   56.2880 O.2     1  PVE1       -0.2730
      8  N17        4.2670    9.8020   54.1880 N.am    1  PVE1       -0.1717
      9  C3         4.2920   11.1280   53.9250 C.2     1  PVE1        0.1553
     10  C4         5.4600   11.6980   53.3410 C.2     1  PVE1        0.0276
     11  C10        5.5360   13.0840   53.0410 C.ar    1  PVE1        0.0420
     12  C5         6.7230   13.6230   52.4540 C.ar    1  PVE1        0.0488
     13  C6         6.8110   15.0130   52.1470 C.ar    1  PVE1        0.2345
     14  O25        7.9100   15.5100   51.6020 O.3     1  PVE1       -0.2831
     15  C7         5.7120   15.8720   52.4250 C.ar    1  PVE1        0.2377
     16  O26        5.7970   17.1560   52.1370 O.3     1  PVE1       -0.2830
     17  C8         4.5220   15.3470   53.0080 C.ar    1  PVE1        0.0856
     18  C9         4.4120   13.9420   53.3270 C.ar    1  PVE1        0.1424
     19  N1         3.2310   13.3650   53.9170 N.pl3   1  PVE1       -0.1657
     20  C14        2.0780   14.1160   54.2330 C.3     1  PVE1        0.2335
     21  C15        1.6060   15.4030   54.9250 C.2     1  PVE1        0.2542
     22  O16        1.4960   16.4570   54.3160 O.2     1  PVE1       -0.2839
     23  C2         3.1760   11.9800   54.2110 C.2     1  PVE1        0.3383
     24  N11        2.0560   11.4920   54.7580 N.2     1  PVE1       -0.0635
     25  C12        0.7550   11.9780   54.2540 C.3     1  PVE1        0.2679
     26  C13        0.8480   13.4110   53.6580 C.3     1  PVE1        0.1131
@<TRIPOS>BOND
     1    14    13    1
     2    16    15    1
     3    13    15   ar
     4    13    12   ar
     5    15    17   ar
     6    12    11   ar
     7     3     2   ar
     8    17    18   ar
     9    11    18   ar
    10    11    10    1
    11    18    19    1
    12    10     9    2
    13     1     2   ar
    14     2     4    1
    15    26    20    1
    16    26    25    1
    17    19    23    1
    18    19    20    1
    19     9     8    1
    20     9    23    1
    21     8     6   am
    22    23    24    2
    23    20    21    1
    24    25    24    1
    25    22    21    2
    26     4     5    1
    27     6     5    1
    28     6     7    2
