@<TRIPOS>MOLECULE
1xkk_FMM_A_1.pdb
 40 44 0 0 0
SMALL
GASTEIGER

@<TRIPOS>ATOM
      1  C1        22.6040   34.4870   31.1410 C.3    91  FMM91       0.1761
      2  S2        24.0360   33.4650   31.3500 S.O2   91  FMM91      -0.0068
      3  O3        25.0530   34.2040   32.0670 O.2    91  FMM91      -0.1729
      4  O4        24.5430   33.0770   30.0530 O.2    91  FMM91      -0.1729
      5  C5        23.5870   31.9800   32.2910 C.3    91  FMM91       0.1696
      6  C6        22.0610   31.8360   32.3240 C.3    91  FMM91       0.1145
      7  N7        21.5690   32.1840   33.6650 N.3    91  FMM91      -0.2081
      8  C8        20.9140   31.0190   34.2650 C.3    91  FMM91       0.1528
      9  C9        19.4160   31.2080   34.2230 C.ar   91  FMM91       0.1399
     10  C10       18.6740   30.9770   33.1210 C.ar   91  FMM91       0.0372
     11  C11       17.4450   31.2370   33.4210 C.ar   91  FMM91       0.0364
     12  C12       17.4090   31.6450   34.7310 C.ar   91  FMM91       0.1301
     13  O13       18.6550   31.6530   35.3630 O.2    91  FMM91      -0.4599
     14  C14       16.1760   32.0580   35.4070 C.3    91  FMM91       0.1016
     15  C15       14.9580   31.9860   34.7350 C.2    91  FMM91      -0.0130
     16  C16       13.8070   32.4020   35.3590 C.2    91  FMM91       0.0152
     17  C17       13.8490   32.8900   36.6640 C.2    91  FMM91       0.0871
     18  N18       12.6830   33.3050   37.2760 N.2    91  FMM91      -0.2184
     19  C19       12.7080   33.7900   38.5680 C.3    91  FMM91       0.3920
     20  N20       13.8990   33.8630   39.2600 N.2    91  FMM91      -0.0327
     21  C21       15.0770   33.4520   38.6680 C.2    91  FMM91       0.3642
     22  N22       16.2820   33.5270   39.3660 N.pl3  91  FMM91      -0.0060
     23  C23       16.3320   33.8430   40.7350 C.ar   91  FMM91       0.1844
     24  C24       17.1180   34.9090   41.1780 C.ar   91  FMM91       0.0476
     25  C25       17.1640   35.2150   42.5350 C.ar   91  FMM91       0.0414
     26  C26       16.4280   34.4570   43.4380 C.ar   91  FMM91       0.1497
     27  O27       16.4460   34.7470   44.8280 O.3    91  FMM91      -0.4698
     28  C28       17.0650   36.0020   45.1430 C.3    91  FMM91       0.2321
     29  C29       16.0850   37.1810   44.9840 C.ar   91  FMM91       0.0234
     30  C30       16.5190   38.4620   45.2460 C.ar   91  FMM91      -0.0005
     31  C31       15.6530   39.5270   45.1020 C.ar   91  FMM91       0.0021
     32  C32       14.3540   39.3120   44.6930 C.ar   91  FMM91       0.0296
     33  C33       13.9160   38.0360   44.4290 C.ar   91  FMM91       0.1399
     34  F34       12.6790   37.8370   44.0350 F      91  FMM91      -0.2042
     35  C35       14.7720   36.9660   44.5730 C.ar   91  FMM91       0.0289
     36  C36       15.6650   33.4150   42.9990 C.ar   91  FMM91       0.0951
     37 CL3        14.7840   32.5140   44.1280 Cl     91  FMM91      -0.0790
     38  C38       15.6070   33.0980   41.6600 C.ar   91  FMM91       0.0588
     39  C39       15.0530   32.9590   37.3490 C.2    91  FMM91       0.0997
     40  C40       16.2200   32.5450   36.7310 C.2    91  FMM91      -0.0055
@<TRIPOS>BOND
     1     4     2    2
     2     1     2    1
     3     2     3    2
     4     2     5    1
     5     5     6    1
     6     6     7    1
     7    10    11   ar
     8    10     9   ar
     9    11    12   ar
    10     7     8    1
    11     9     8    1
    12     9    13   ar
    13    12    13   ar
    14    12    14    1
    15    15    16    2
    16    15    14    1
    17    16    17    1
    18    14    40    1
    19    17    18    2
    20    17    39    1
    21    40    39    2
    22    18    19    1
    23    39    21    1
    24    19    20    1
    25    21    20    2
    26    21    22    1
    27    22    23    1
    28    23    24   ar
    29    23    38   ar
    30    24    25   ar
    31    38    36   ar
    32    25    26   ar
    33    36    26   ar
    34    36    37    1
    35    26    27    1
    36    34    33    1
    37    33    35   ar
    38    33    32   ar
    39    35    29   ar
    40    32    31   ar
    41    27    28    1
    42    29    28    1
    43    29    30   ar
    44    31    30   ar
