@<TRIPOS>MOLECULE
1xkl_STH_A_1.pdb
 12 13 0 0 0
SMALL
GASTEIGER

@<TRIPOS>ATOM
      1  C8        45.8450   18.8860   28.0130 C.2   297  STH297      0.2288
      2  O8        45.2040   19.6560   27.0930 O.2   297  STH297     -0.2794
      3  C1        45.2520   18.6030   29.3520 C.ar  297  STH297      0.0792
      4  C2        45.9980   17.7620   30.3210 C.ar  297  STH297      0.1447
      5  C3        45.4290   17.4950   31.5990 C.ar  297  STH297      0.0371
      6  C4        44.1620   18.0530   31.9570 C.ar  297  STH297      0.0031
      7  C5        43.4400   18.8700   31.0330 C.ar  297  STH297      0.0003
      8  C6        43.9790   19.1510   29.7600 C.ar  297  STH297      0.0068
      9  C7        47.6510   17.1600   28.6340 C.3   297  STH297      0.3159
     10  O2        47.2530   17.1860   29.9950 O.3   297  STH297     -0.4517
     11  N7        49.0380   17.1330   28.6000 N.3   297  STH297     -0.0748
     12  S7        47.0880   18.3280   27.6730 S.3   297  STH297     -0.0101
@<TRIPOS>BOND
     1     2     1    2
     2    12     1    1
     3    12     9    1
     4     1     3    1
     5    11     9    1
     6     9    10    1
     7     3     8   ar
     8     3     4   ar
     9     8     7   ar
    10    10     4    1
    11     4     5   ar
    12     7     6   ar
    13     5     6   ar
