@<TRIPOS>MOLECULE
1xkq_NDP_A_1.pdb
 48 52 0 0 0
SMALL
GASTEIGER

@<TRIPOS>ATOM
      1  PA       -19.9380   73.3510  -10.8880 P.3   1281  NDP1281     0.2189
      2  O1A      -21.2450   73.9060  -11.1910 O.3   1281  NDP1281    -0.4371
      3  O2A      -19.1940   72.2510  -11.4040 O.2   1281  NDP1281    -0.5170
      4  O5B      -19.4980   73.8010   -9.4160 O.3   1281  NDP1281    -0.3112
      5  C5B      -18.1990   73.3270   -8.8510 C.3   1281  NDP1281     0.1813
      6  C4B      -18.0640   74.1450   -7.5690 C.3   1281  NDP1281     0.1820
      7  O4B      -17.1510   73.5960   -6.5720 O.3   1281  NDP1281    -0.3136
      8  C3B      -17.4980   75.5760   -7.8780 C.3   1281  NDP1281     0.2157
      9  O3B      -18.0420   76.5700   -7.0580 O.3   1281  NDP1281    -0.2175
     10  C2B      -15.9800   75.2170   -7.8090 C.3   1281  NDP1281     0.2314
     11  O2B      -15.0650   76.2820   -7.6760 O.3   1281  NDP1281    -0.2630
     12  C1B      -15.9720   74.2390   -6.6020 C.3   1281  NDP1281     0.3158
     13  N9A      -14.8000   73.4350   -6.5830 N.pl3 1281  NDP1281    -0.1439
     14  C8A      -14.4350   72.2950   -7.3120 C.3   1281  NDP1281     0.3377
     15  N7A      -13.2500   71.8550   -6.9910 N.2   1281  NDP1281    -0.2095
     16  C5A      -12.7820   72.7160   -6.0090 C.2   1281  NDP1281     0.2526
     17  C6A      -11.5840   72.8120   -5.2390 C.2   1281  NDP1281     0.4393
     18  N6A      -10.5060   71.9780   -5.3000 N.pl3 1281  NDP1281     0.2180
     19  N1A      -11.4640   73.8560   -4.3160 N.2   1281  NDP1281     0.0021
     20  C2A      -12.5070   74.7480   -4.1850 C.3   1281  NDP1281     0.5254
     21  N3A      -13.6330   74.7260   -4.8470 N.2   1281  NDP1281    -0.0055
     22  C4A      -13.7380   73.6890   -5.7600 C.2   1281  NDP1281     0.3518
     23  O3       -20.8090   72.0860  -10.2110 O.3   1281  NDP1281    -0.2703
     24  PN       -22.3600   71.8500   -9.6590 P.3   1281  NDP1281     0.2189
     25  O1N      -22.9200   70.6200   -9.2000 O.2   1281  NDP1281    -0.5170
     26  O2N      -22.9980   73.0240   -9.1080 O.3   1281  NDP1281    -0.4371
     27  O5D      -21.5400   71.7310   -8.2470 O.3   1281  NDP1281    -0.3112
     28  C5D      -20.8340   70.5680   -7.8140 C.3   1281  NDP1281     0.1813
     29  C4D      -21.4570   69.8480   -6.6210 C.3   1281  NDP1281     0.1799
     30  O4D      -22.8020   69.2880   -6.9870 O.3   1281  NDP1281    -0.3327
     31  C3D      -20.6540   68.6170   -6.1830 C.3   1281  NDP1281     0.2158
     32  O3D      -20.7520   68.4150   -4.7580 O.3   1281  NDP1281    -0.2175
     33  C2D      -21.3030   67.5750   -7.0570 C.3   1281  NDP1281     0.2309
     34  O2D      -20.9070   66.2430   -6.7750 O.3   1281  NDP1281    -0.2158
     35  C1D      -22.7770   67.9010   -6.8390 C.3   1281  NDP1281     0.2263
     36  N1N      -23.6830   67.1400   -7.8170 N.pl3 1281  NDP1281    -0.2787
     37  C2N      -23.8850   67.7220   -9.1340 C.3   1281  NDP1281     0.1244
     38  C3N      -24.7180   67.0210  -10.0420 C.2   1281  NDP1281     0.0544
     39  C7N      -24.9950   67.6080  -11.5140 C.2   1281  NDP1281     0.2818
     40  O7N      -25.7180   66.9510  -12.2320 O.2   1281  NDP1281    -0.2670
     41  N7N      -24.3970   68.7830  -11.7890 N.am  1281  NDP1281    -0.0839
     42  C4N      -25.3680   65.7730   -9.7370 C.2   1281  NDP1281     0.0033
     43  C5N      -25.1020   65.2980   -8.4100 C.2   1281  NDP1281     0.0157
     44  C6N      -24.2990   65.9220   -7.4540 C.2   1281  NDP1281     0.0633
     45  P2B      -14.5250   77.1050   -8.9950 P.3   1281  NDP1281     0.5328
     46  O1X      -13.5610   78.2000   -8.7650 O.3   1281  NDP1281    -0.1145
     47  O2X      -14.8360   76.3440  -10.2530 O.2   1281  NDP1281    -0.2224
     48  O3X      -13.4110   76.1730   -8.8570 O.3   1281  NDP1281    -0.1145
@<TRIPOS>BOND
     1    40    39    2
     2    41    39   am
     3    39    38    1
     4     3     1    2
     5     2     1    1
     6     1    23    1
     7     1     4    1
     8    47    45    2
     9    23    24    1
    10    38    42    2
    11    38    37    1
    12    42    43    1
    13    24    25    2
    14    24    26    1
    15    24    27    1
    16     4     5    1
    17    37    36    1
    18    45    48    1
    19    45    46    1
    20    45    11    1
    21     5     6    1
    22    43    44    2
    23    27    28    1
    24     8    10    1
    25     8     6    1
    26     8     9    1
    27    36    44    1
    28    36    35    1
    29    28    29    1
    30    10    11    1
    31    10    12    1
    32     6     7    1
    33    14    15    1
    34    14    13    1
    35    33    35    1
    36    33    34    1
    37    33    31    1
    38    15    16    2
    39    30    35    1
    40    30    29    1
    41    29    31    1
    42    12    13    1
    43    12     7    1
    44    13    22    1
    45    31    32    1
    46    16    22    1
    47    16    17    1
    48    22    21    2
    49    18    17    1
    50    17    19    2
    51    21    20    1
    52    19    20    1
