@<TRIPOS>MOLECULE
1xkx_IMK_A_1.pdb
 20 22 0 0 0
SMALL
GASTEIGER

@<TRIPOS>ATOM
      1  C1        44.7550   30.4160   55.7980 C.3   910  IMK910      0.2563
      2  C2        46.3190   30.4900   55.7860 C.3   910  IMK910      0.2281
      3  O2        46.8950   29.9960   57.0150 O.3   910  IMK910     -0.2164
      4  C3        46.7540   31.9600   55.5710 C.3   910  IMK910      0.2184
      5  O3        48.1870   32.0690   55.5540 O.3   910  IMK910     -0.2175
      6  C4        46.1310   32.4600   54.2310 C.3   910  IMK910      0.2143
      7  O4        46.5100   33.8250   53.9840 O.3   910  IMK910     -0.2176
      8  C5        44.5630   32.3220   54.2970 C.3   910  IMK910      0.1823
      9  O5        44.1950   30.9310   54.5540 O.3   910  IMK910     -0.3349
     10  C6        43.9030   32.7830   52.9640 C.3   910  IMK910      0.2142
     11  O6        43.8170   31.6750   52.0450 O.3   910  IMK910     -0.2176
     12  C7        43.4290   25.8520   54.7500 C.ar  910  IMK910      0.0357
     13  C8        43.7800   27.0280   55.4270 C.ar  910  IMK910      0.1738
     14  C9        43.9070   27.1100   56.8280 C.ar  910  IMK910      0.1738
     15  C10       43.6650   25.9930   57.6590 C.ar  910  IMK910      0.0357
     16  C11       43.3090   24.7900   56.9950 C.ar  910  IMK910      0.0028
     17  C12       43.1920   24.7260   55.5690 C.ar  910  IMK910      0.0028
     18  N1        44.2630   28.3760   57.1190 N.2   910  IMK910     -0.3388
     19  C13       44.3530   28.9920   55.9710 C.1   910  IMK910      0.1435
     20  N2        44.0800   28.2390   54.9920 N.2   910  IMK910     -0.3388
@<TRIPOS>BOND
     1    11    10    1
     2    10     8    1
     3     7     6    1
     4     6     8    1
     5     6     4    1
     6     8     9    1
     7     9     1    1
     8    12    13   ar
     9    12    17   ar
    10    20    13    2
    11    20    19    2
    12    13    14   ar
    13     5     4    1
    14    17    16   ar
    15     4     2    1
    16     2     1    1
    17     2     3    1
    18     1    19    1
    19    19    18    2
    20    14    18    2
    21    14    15   ar
    22    16    15   ar
