@<TRIPOS>MOLECULE
1xkx_PLP_A_1.pdb
 15 15 0 0 0
SMALL
GASTEIGER

@<TRIPOS>ATOM
      1  N1        24.6060   25.6640   30.0790 N.ar  999  PLP999     -0.2452
      2  C2        23.4980   24.9240   30.3590 C.ar  999  PLP999      0.0978
      3  C2A       22.5900   25.3810   31.5000 C.3   999  PLP999      0.0555
      4  C3        23.2520   23.7650   29.6600 C.ar  999  PLP999      0.2049
      5  O3        22.0910   23.0480   29.9150 O.3   999  PLP999     -0.2857
      6  C4        24.1510   23.3510   28.6790 C.ar  999  PLP999      0.0182
      7  C4A       23.8560   22.0740   27.8490 C.3   999  PLP999      0.0342
      8  C5        25.2980   24.1270   28.4340 C.ar  999  PLP999      0.0261
      9  C6        25.4930   25.2710   29.1390 C.ar  999  PLP999      0.0965
     10  C5A       26.2910   23.8340   27.2930 C.3   999  PLP999      0.1815
     11  O4P       25.8480   24.5300   26.1280 O.3   999  PLP999     -0.2653
     12  P         26.8190   24.7630   24.8770 P.3   999  PLP999      0.5329
     13  O1P       26.0020   25.4780   23.9070 O.2   999  PLP999     -0.2224
     14  O2P       27.9350   25.7430   25.4070 O.3   999  PLP999     -0.1145
     15  O3P       27.4700   23.4870   24.5050 O.3   999  PLP999     -0.1145
@<TRIPOS>BOND
     1    13    12    2
     2    15    12    1
     3    12    14    1
     4    12    11    1
     5    11    10    1
     6    10     8    1
     7     7     6    1
     8     8     6   ar
     9     8     9   ar
    10     6     4   ar
    11     9     1   ar
    12     4     5    1
    13     4     2   ar
    14     1     2   ar
    15     2     3    1
