@<TRIPOS>MOLECULE
1xkz_CAZ_A_1.pdb
 31 32 0 0 0
SMALL
GASTEIGER

@<TRIPOS>ATOM
      1  S1       -19.0760  -11.5860  -41.0600 S.3   989  CAZ989     -0.1100
      2  C2       -19.0950  -12.3200  -42.6390 C.3   989  CAZ989      0.0873
      3  C3       -17.8280  -12.5320  -43.3530 C.2   989  CAZ989      0.0125
      4  C3'      -17.7160  -13.5610  -44.2040 C.2   989  CAZ989     -0.0020
      5  C4       -16.7410  -11.6130  -43.1460 C.2   989  CAZ989      0.1534
      6  C4'      -15.3340  -11.6060  -43.8200 C.2   989  CAZ989      0.4044
      7  O4A      -14.3130  -11.5160  -43.0420 O.co2 989  CAZ989     -0.2389
      8  O4B      -15.2830  -11.6890  -45.0900 O.co2 989  CAZ989     -0.2389
      9  N5       -16.8770  -10.4830  -42.1830 N.2   989  CAZ989     -0.2528
     10  C6       -18.0180  -10.2310  -41.3400 C.3   989  CAZ989      0.1784
     11  C7       -18.5960   -8.9160  -41.7480 C.3   989  CAZ989      0.1923
     12  C8       -17.5220   -7.9970  -42.3490 C.2   989  CAZ989      0.2316
     13  O9       -17.4120   -7.8780  -43.5570 O.2   989  CAZ989     -0.2863
     14  N10      -19.7050   -8.9950  -42.7940 N.am  989  CAZ989     -0.1910
     15  C11      -21.0090   -8.9670  -42.4120 C.2   989  CAZ989      0.2884
     16  O12      -21.3380   -8.9110  -41.2460 O.2   989  CAZ989     -0.2665
     17  C13      -22.0250   -8.9590  -43.4600 C.2   989  CAZ989      0.2002
     18  N16      -22.5380   -9.9900  -44.1710 N.2   989  CAZ989     -0.0757
     19  O17      -21.9800  -11.2880  -43.7870 O.2   989  CAZ989     -0.3735
     20  C18      -22.8110  -12.4550  -44.1160 C.3   989  CAZ989      0.2530
     21  C14      -22.6920   -7.6960  -43.7740 C.2   989  CAZ989      0.1478
     22  C15      -22.3940   -6.4550  -43.0980 C.3   989  CAZ989      0.1266
     23  S16      -23.3530   -5.1680  -43.5630 S.3   989  CAZ989     -0.0564
     24  C17      -24.1450   -6.1970  -44.6690 C.2   989  CAZ989      0.2461
     25  N18      -25.1860   -5.7810  -45.4950 N.pl3 989  CAZ989     -0.0867
     26  N19      -23.7020   -7.4330  -44.6630 N.2   989  CAZ989     -0.3794
     27  C19      -22.2010  -13.6200  -43.3400 C.3   989  CAZ989      0.0583
     28  C20      -22.6720  -12.7360  -45.6410 C.3   989  CAZ989      0.0583
     29  C21      -24.3370  -12.4080  -43.6770 C.2   989  CAZ989      0.4027
     30  O2A      -25.1860  -13.1570  -44.3260 O.co2 989  CAZ989     -0.2417
     31  O2B      -24.7020  -11.6670  -42.6790 O.co2 989  CAZ989     -0.2417
@<TRIPOS>BOND
     1    28    20    1
     2    25    24    1
     3     8     6   ar
     4    24    26    2
     5    24    23    1
     6    26    21    2
     7    30    29   ar
     8     4     3    2
     9    18    19    1
    10    18    17    2
    11    20    19    1
    12    20    29    1
    13    20    27    1
    14     6     5    1
    15     6     7   ar
    16    21    17    1
    17    21    22    1
    18    29    31   ar
    19    23    22    1
    20    13    12    2
    21    17    15    1
    22     3     5    1
    23     3     2    1
    24     5     9    2
    25    14    15   am
    26    14    11    1
    27     2     1    1
    28    15    16    2
    29    12    11    1
    30     9    10    1
    31    11    10    1
    32    10     1    1
