@<TRIPOS>MOLECULE
1xl0_OX2_A_1.pdb
 17 18 0 0 0
SMALL
GASTEIGER

@<TRIPOS>ATOM
      1  C1        33.4080   22.7610   27.8120 C.3   998  OX2998      0.2256
      2  C2        33.7780   23.0140   26.3100 C.3   998  OX2998      0.2207
      3  O2        33.9450   24.4210   26.0350 O.3   998  OX2998     -0.2171
      4  C3        32.6330   22.4510   25.4290 C.3   998  OX2998      0.2177
      5  O3        32.9050   22.6300   24.0210 O.3   998  OX2998     -0.2175
      6  C4        32.4330   20.9490   25.7360 C.3   998  OX2998      0.2143
      7  O4        31.3300   20.4130   24.9670 O.3   998  OX2998     -0.2176
      8  C5        32.1610   20.7560   27.2540 C.3   998  OX2998      0.1815
      9  O5        33.2260   21.3290   28.0720 O.3   998  OX2998     -0.3416
     10  C6        32.0000   19.2450   27.6150 C.3   998  OX2998      0.2141
     11  O6        33.0970   18.4750   27.0580 O.3   998  OX2998     -0.2176
     12  N1        35.4450   24.3230   30.2750 N.ar  998  OX2998     -0.1116
     13  N2        34.2350   24.1260   29.7180 N.ar  998  OX2998     -0.1091
     14  C7        34.5020   23.2880   28.7370 C.ar  998  OX2998      0.2555
     15  O7        35.8480   22.9500   28.6610 O.2   998  OX2998     -0.4207
     16  C8        36.3160   23.6650   29.6780 C.ar  998  OX2998      0.2267
     17  C9        37.7770   23.6250   30.0010 C.3   998  OX2998      0.0967
@<TRIPOS>BOND
     1     5     4    1
     2     7     6    1
     3     4     6    1
     4     4     2    1
     5     6     8    1
     6     3     2    1
     7     2     1    1
     8    11    10    1
     9     8    10    1
    10     8     9    1
    11     1     9    1
    12     1    14    1
    13    15    14   ar
    14    15    16   ar
    15    14    13   ar
    16    16    17    1
    17    16    12   ar
    18    13    12   ar
