@<TRIPOS>MOLECULE
1xl0_PLP_A_1.pdb
 15 15 0 0 0
SMALL
GASTEIGER

@<TRIPOS>ATOM
      1  N1        24.5630   25.5280   30.0810 N.ar  999  PLP999     -0.2452
      2  C2        23.4470   24.7930   30.3300 C.ar  999  PLP999      0.0978
      3  C2A       22.4990   25.2510   31.4510 C.3   999  PLP999      0.0555
      4  C3        23.2090   23.6440   29.6040 C.ar  999  PLP999      0.2049
      5  O3        22.0600   22.9000   29.8290 O.3   999  PLP999     -0.2857
      6  C4        24.1160   23.2560   28.6320 C.ar  999  PLP999      0.0182
      7  C4A       23.8610   21.9480   27.8130 C.3   999  PLP999      0.0342
      8  C5        25.2550   24.0290   28.4140 C.ar  999  PLP999      0.0261
      9  C6        25.4550   25.1560   29.1420 C.ar  999  PLP999      0.0965
     10  C5A       26.2910   23.7150   27.2940 C.3   999  PLP999      0.1815
     11  O4P       25.8530   24.3860   26.1350 O.3   999  PLP999     -0.2653
     12  P         26.8410   24.6300   24.8800 P.3   999  PLP999      0.5329
     13  O1P       26.0010   25.3570   23.9110 O.2   999  PLP999     -0.2224
     14  O2P       27.9220   25.6010   25.4140 O.3   999  PLP999     -0.1145
     15  O3P       27.4890   23.3670   24.4940 O.3   999  PLP999     -0.1145
@<TRIPOS>BOND
     1    13    12    2
     2    15    12    1
     3    12    14    1
     4    12    11    1
     5    11    10    1
     6    10     8    1
     7     7     6    1
     8     8     6   ar
     9     8     9   ar
    10     6     4   ar
    11     9     1   ar
    12     4     5    1
    13     4     2   ar
    14     1     2   ar
    15     2     3    1
