@<TRIPOS>MOLECULE
1xl1_TH1_A_1.pdb
 20 22 0 0 0
SMALL
GASTEIGER

@<TRIPOS>ATOM
      1  C1        33.3080   22.9730   28.0060 C.3   998  TH1998      0.2060
      2  C2        33.6960   23.2110   26.4600 C.3   998  TH1998      0.2190
      3  O2        33.8620   24.5770   26.1630 O.3   998  TH1998     -0.2172
      4  C3        32.5590   22.6180   25.5530 C.3   998  TH1998      0.2176
      5  O3        32.8460   22.7750   24.1630 O.3   998  TH1998     -0.2175
      6  C4        32.4020   21.1180   25.8780 C.3   998  TH1998      0.2143
      7  O4        31.3890   20.5590   25.1160 O.3   998  TH1998     -0.2176
      8  C5        32.1050   20.8980   27.4290 C.3   998  TH1998      0.1814
      9  O5        33.1350   21.4980   28.2600 O.3   998  TH1998     -0.3430
     10  C6        31.9950   19.4160   27.8020 C.3   998  TH1998      0.2141
     11  O6        33.0110   18.6850   27.1020 O.3   998  TH1998     -0.2176
     12  C7        34.4030   23.5040   28.9760 C.2   998  TH1998      0.1677
     13  N1        34.0410   24.1190   30.0450 N.2   998  TH1998     -0.4007
     14  C8        35.0350   24.5410   30.8490 C.2   998  TH1998      0.1196
     15  C9        34.9400   25.2460   32.0850 C.3   998  TH1998      0.0855
     16  C10       36.1650   25.5780   32.7440 C.2   998  TH1998     -0.0186
     17  C11       37.4300   25.2230   32.1810 C.2   998  TH1998     -0.0036
     18  C12       37.5020   24.5200   30.9430 C.2   998  TH1998      0.0085
     19  C13       36.2780   24.1960   30.2880 C.2   998  TH1998      0.0573
     20  S1        36.1730   23.3330   28.7540 S.3   998  TH1998     -0.0551
@<TRIPOS>BOND
     1     5     4    1
     2     7     6    1
     3     4     6    1
     4     4     2    1
     5     6     8    1
     6     3     2    1
     7     2     1    1
     8    11    10    1
     9     8    10    1
    10     8     9    1
    11     1     9    1
    12     1    12    1
    13    20    12    1
    14    20    19    1
    15    12    13    2
    16    13    14    2
    17    19    14    1
    18    19    18    2
    19    14    15    1
    20    18    17    1
    21    15    16    1
    22    17    16    2
