@<TRIPOS>MOLECULE
1xl1_PLP_A_1.pdb
 15 15 0 0 0
SMALL
GASTEIGER

@<TRIPOS>ATOM
      1  N1        24.4510   25.6240   30.0840 N.ar  999  PLP999     -0.2452
      2  C2        23.3320   24.8910   30.3560 C.ar  999  PLP999      0.0978
      3  C2A       22.4290   25.3210   31.5240 C.3   999  PLP999      0.0555
      4  C3        23.0830   23.7380   29.6530 C.ar  999  PLP999      0.2049
      5  O3        21.9440   22.9930   29.9430 O.3   999  PLP999     -0.2857
      6  C4        23.9940   23.3200   28.6860 C.ar  999  PLP999      0.0182
      7  C4A       23.6960   22.0500   27.8390 C.3   999  PLP999      0.0342
      8  C5        25.1490   24.0850   28.4600 C.ar  999  PLP999      0.0261
      9  C6        25.3420   25.2230   29.1590 C.ar  999  PLP999      0.0965
     10  C5A       26.1800   23.7700   27.3310 C.3   999  PLP999      0.1815
     11  O4P       25.7670   24.4980   26.1740 O.3   999  PLP999     -0.2653
     12  P         26.7020   24.7540   24.8870 P.3   999  PLP999      0.5329
     13  O1P       25.8430   25.4840   23.9500 O.2   999  PLP999     -0.2224
     14  O2P       27.8300   25.6850   25.4500 O.3   999  PLP999     -0.1145
     15  O3P       27.3300   23.4680   24.4940 O.3   999  PLP999     -0.1145
@<TRIPOS>BOND
     1    13    12    2
     2    15    12    1
     3    12    14    1
     4    12    11    1
     5    11    10    1
     6    10     8    1
     7     7     6    1
     8     8     6   ar
     9     8     9   ar
    10     6     4   ar
    11     9     1   ar
    12     4     5    1
    13     4     2   ar
    14     1     2   ar
    15     2     3    1
