@<TRIPOS>MOLECULE
1xl2_189_A_1.pdb
 41 44 0 0 0
SMALL
GASTEIGER

@<TRIPOS>ATOM
      1  C1        26.0680   -1.1390   19.7510 C.ar  1001  1891001     0.0001
      2  C6        24.7160   -0.8240   19.9140 C.ar  1001  1891001     0.0014
      3  C5        23.7410   -1.6060   19.2910 C.ar  1001  1891001     0.0199
      4  C4        24.1330   -2.6800   18.4860 C.ar  1001  1891001     0.1222
      5  S10       22.8810   -3.6740   17.6700 S.O2  1001  1891001     0.0633
      6  O15       21.6560   -3.3080   18.4110 O.2   1001  1891001    -0.1528
      7  O14       23.3830   -5.0300   17.8990 O.2   1001  1891001    -0.1528
      8  N13       22.7330   -3.4390   16.0970 N.3   1001  1891001    -0.1555
      9  C20       22.5800   -2.0850   15.5420 C.3   1001  1891001     0.0973
     10  C21       21.2000   -1.5260   15.9860 C.3   1001  1891001     0.0382
     11  C25       20.1220   -2.2850   15.1680 C.3   1001  1891001     0.0401
     12  C26       18.7420   -1.9770   15.7650 C.3   1001  1891001     0.0953
     13  N27       18.5820   -2.6080   17.0740 N.am  1001  1891001    -0.2724
     14  C35       18.6720   -1.8320   18.0830 C.2   1001  1891001     0.2704
     15  O46       18.6090   -0.6030   17.9570 O.2   1001  1891001    -0.2708
     16  C36       18.9710   -2.2630   19.5060 C.3   1001  1891001     0.2896
     17  O37       18.5740   -1.1800   20.3460 O.3   1001  1891001    -0.4663
     18  C38       18.1400   -1.4550   21.6290 C.ar  1001  1891001     0.1312
     19  C43       19.0010   -1.1100   22.6860 C.ar  1001  1891001     0.0118
     20  C45       20.3470   -0.4540   22.3950 C.3   1001  1891001     0.0342
     21  C42       18.5560   -1.2230   24.0000 C.ar  1001  1891001    -0.0013
     22  C41       17.4160   -1.9710   24.3020 C.ar  1001  1891001    -0.0004
     23  C40       16.5750   -2.3710   23.2620 C.ar  1001  1891001    -0.0013
     24  C39       16.9230   -2.0620   21.9370 C.ar  1001  1891001     0.0118
     25  C44       15.9140   -2.4450   20.8570 C.3   1001  1891001     0.0342
     26  C24       20.2550   -1.6010   13.7960 C.3   1001  1891001     0.0904
     27  N23       20.4910   -0.1720   14.1090 N.3   1001  1891001    -0.2179
     28  C22       21.0770   -0.0800   15.4540 C.3   1001  1891001     0.0902
     29  C3        25.4790   -2.9990   18.3130 C.ar  1001  1891001     0.0199
     30  C2        26.4500   -2.2280   18.9650 C.ar  1001  1891001     0.0014
     31  C16       21.3860   -5.8570   14.9790 C.3   1001  1891001     0.0015
     32  C17       22.4450   -5.0190   14.2330 C.3   1001  1891001     0.0178
     33  C19       23.4340   -4.3570   15.1980 C.3   1001  1891001     0.0958
     34  C18       23.1790   -5.9100   13.2320 C.3   1001  1891001     0.0015
     35  C28       18.4000   -4.0190   17.2860 C.3   1001  1891001     0.1202
     36  C29       17.0300   -4.3640   17.8750 C.ar  1001  1891001    -0.0023
     37  C34       16.9020   -5.4980   18.6830 C.ar  1001  1891001    -0.0026
     38  C33       15.6710   -5.8380   19.2510 C.ar  1001  1891001    -0.0003
     39  C32       14.5590   -5.0290   18.9980 C.ar  1001  1891001    -0.0000
     40  C31       14.6830   -3.9100   18.1710 C.ar  1001  1891001    -0.0003
     41  C30       15.9150   -3.5740   17.6010 C.ar  1001  1891001    -0.0026
@<TRIPOS>BOND
     1    34    32    1
     2    26    27    1
     3    26    11    1
     4    27    28    1
     5    32    31    1
     6    32    33    1
     7    11    12    1
     8    11    10    1
     9    33     8    1
    10    28    10    1
    11     9    10    1
    12     9     8    1
    13    12    13    1
    14     8     5    1
    15    13    35    1
    16    13    14   am
    17    35    36    1
    18    41    36   ar
    19    41    40   ar
    20     5     7    2
    21     5     6    2
    22     5     4    1
    23    36    37   ar
    24    15    14    2
    25    14    16    1
    26    40    39   ar
    27    29     4   ar
    28    29    30   ar
    29     4     3   ar
    30    37    38   ar
    31    30     1   ar
    32    39    38   ar
    33     3     2   ar
    34    16    17    1
    35     1     2   ar
    36    17    18    1
    37    25    24    1
    38    18    24   ar
    39    18    19   ar
    40    24    23   ar
    41    20    19    1
    42    19    21   ar
    43    23    22   ar
    44    21    22   ar
