@<TRIPOS>MOLECULE
1xl5_190_B_1.pdb
 40 42 0 0 0
SMALL
GASTEIGER

@<TRIPOS>ATOM
      1  C4        16.6650   18.7630    3.4410 C.ar  1001  1901001     0.1312
      2  C3        16.5430   18.1930    2.1710 C.ar  1001  1901001     0.0118
      3  C8        15.4830   18.7010    1.2020 C.3   1001  1901001     0.0342
      4  C2        17.4130   17.1790    1.7680 C.ar  1001  1901001    -0.0013
      5  C1        18.3360   16.6520    2.6670 C.ar  1001  1901001    -0.0004
      6  C6        18.4580   17.2150    3.9390 C.ar  1001  1901001    -0.0013
      7  C5        17.6320   18.2710    4.3210 C.ar  1001  1901001     0.0118
      8  C7        17.7680   18.8810    5.7130 C.3   1001  1901001     0.0342
      9  O9        15.8330   19.8140    3.8350 O.3   1001  1901001    -0.4662
     10  C10       14.7020   19.3290    4.5510 C.3   1001  1901001     0.2911
     11  C11       13.8550   20.4540    5.0650 C.2   1001  1901001     0.2859
     12  O12       12.7490   20.1580    5.5160 O.2   1001  1901001    -0.2693
     13  N13       14.5170   21.5830    5.3930 N.am  1001  1901001    -0.2011
     14  C14       13.8140   22.6680    6.0500 C.3   1001  1901001     0.1300
     15  C16       14.7340   23.2720    7.1380 C.3   1001  1901001     0.0506
     16  C15       15.1030   22.1330    8.0840 C.ar  1001  1901001    -0.0199
     17  C42       14.1320   21.4430    8.8010 C.ar  1001  1901001    -0.0042
     18  C43       14.5020   20.3860    9.6460 C.ar  1001  1901001     0.0002
     19  C44       15.8660   20.0610    9.7700 C.ar  1001  1901001     0.0067
     20 BR17       18.6530   20.4050    9.1620 Br    1001  1901001    -0.0490
     21  C45       16.8250   20.7690    9.0420 C.ar  1001  1901001     0.0343
     22  C46       16.4520   21.8180    8.2160 C.ar  1001  1901001     0.0025
     23  C23       13.4280   23.7410    4.9990 C.3   1001  1901001     0.1738
     24  O38       14.6100   24.5090    4.7010 O.3   1001  1901001    -0.2212
     25  C24       12.3630   24.6560    5.6450 C.3   1001  1901001     0.0586
     26  C25       10.9820   24.0190    5.7370 C.3   1001  1901001     0.1364
     27  S30       10.3960   23.7390    7.3860 S.O2  1001  1901001     0.0071
     28  O39       11.4940   23.4780    8.3070 O.2   1001  1901001    -0.1687
     29  O40        9.3260   22.7380    7.3360 O.2   1001  1901001    -0.1687
     30  C31        9.6330   25.2370    7.9580 C.ar  1001  1901001     0.1057
     31  C32       10.3690   26.2150    8.6210 C.ar  1001  1901001     0.0206
     32  C33        9.7360   27.3910    9.0750 C.ar  1001  1901001     0.0310
     33  C34        8.3680   27.5550    8.8560 C.ar  1001  1901001     0.1402
     34  F37        7.7590   28.6750    9.2160 F     1001  1901001    -0.2042
     35  C35        7.6210   26.5830    8.1840 C.ar  1001  1901001     0.0310
     36  C36        8.2590   25.4210    7.7480 C.ar  1001  1901001     0.0206
     37  C26        9.9700   24.4190    4.6820 C.3   1001  1901001     0.0241
     38  C27       10.2180   23.7890    3.2920 C.3   1001  1901001     0.0017
     39  C28        9.2720   24.4560    2.2640 C.3   1001  1901001     0.0001
     40  C29        9.8730   22.2850    3.3280 C.3   1001  1901001     0.0001
@<TRIPOS>BOND
     1     3     2    1
     2     4     2   ar
     3     4     5   ar
     4     2     1   ar
     5    39    38    1
     6     5     6   ar
     7    38    40    1
     8    38    37    1
     9     1     9    1
    10     1     7   ar
    11     9    10    1
    12     6     7   ar
    13     7     8    1
    14    10    11    1
    15    37    26    1
    16    24    23    1
    17    23    25    1
    18    23    14    1
    19    11    13   am
    20    11    12    2
    21    13    14    1
    22    25    26    1
    23    26    27    1
    24    14    15    1
    25    15    16    1
    26    29    27    2
    27    27    30    1
    28    27    28    2
    29    36    30   ar
    30    36    35   ar
    31    30    31   ar
    32    16    22   ar
    33    16    17   ar
    34    35    33   ar
    35    22    21   ar
    36    31    32   ar
    37    17    18   ar
    38    33    32   ar
    39    33    34    1
    40    21    20    1
    41    21    19   ar
    42    18    19   ar
