@<TRIPOS>MOLECULE
1xl8_OCB_B_1.pdb
 20 19 0 0 0
SMALL
GASTEIGER

@<TRIPOS>ATOM
      1  CAA       55.0570   51.5400  109.5940 C.3   613  OCB613      0.0000
      2  CAB       54.6240   50.5880  108.4780 C.3   613  OCB613      0.0000
      3  CAC       54.1650   49.2440  109.0460 C.3   613  OCB613      0.0000
      4  CAD       53.7240   48.3130  107.9150 C.3   613  OCB613      0.0000
      5  CAE       53.1010   47.0310  108.4680 C.3   613  OCB613      0.0006
      6  CAF       52.4500   46.2210  107.3450 C.3   613  OCB613      0.0116
      7  CAG       51.6180   45.0730  107.9180 C.3   613  OCB613      0.1096
      8  CAH       50.7810   44.3920  106.8320 C.2   613  OCB613      0.3168
      9  OAI       51.0440   44.5540  105.6420 O.2   613  OCB613     -0.2501
     10  OAK       49.7550   43.5840  107.2170 O.3   613  OCB613     -0.4539
     11  CAP       49.0070   43.0260  106.1250 C.3   613  OCB613      0.1602
     12  CAQ       47.6200   43.6800  106.1510 C.3   613  OCB613      0.1553
     13  CAR       46.6490   43.0800  105.1320 C.2   613  OCB613      0.3684
     14  OAL       45.4710   42.8880  105.4400 O.co2 613  OCB613     -0.2455
     15  OAS       47.0290   42.7730  104.0030 O.co2 613  OCB613     -0.2455
     16  CAO       48.8660   41.5100  106.3110 C.3   613  OCB613     -0.0282
     17  NAN       50.1430   40.7770  106.3490 N.4   613  OCB613      0.3882
     18  CAT       49.8230   39.3420  106.3790 C.3   613  OCB613     -0.0958
     19  CAJ       50.9080   41.1080  107.5610 C.3   613  OCB613     -0.0958
     20  CAM       50.9620   41.0380  105.1550 C.3   613  OCB613     -0.0958
@<TRIPOS>BOND
     1    15    13   ar
     2    13    14   ar
     3    13    12    1
     4    20    17    1
     5     9     8    2
     6    11    12    1
     7    11    16    1
     8    11    10    1
     9    16    17    1
    10    17    18    1
    11    17    19    1
    12     8    10    1
    13     8     7    1
    14     6     7    1
    15     6     5    1
    16     4     5    1
    17     4     3    1
    18     2     3    1
    19     2     1    1
