@<TRIPOS>MOLECULE
1xl8_152_A_1.pdb
 11 10 0 0 0
SMALL
GASTEIGER

@<TRIPOS>ATOM
      1  C1       -10.5400  143.3060   78.5480 C.2   613  152613      0.3674
      2  O1A       -9.8780  144.2640   78.9870 O.co2 613  152613     -0.2456
      3  O1B      -11.6650  143.0020   79.0050 O.co2 613  152613     -0.2456
      4  C2        -9.9570  142.4730   77.4090 C.3   613  152613      0.1446
      5  C3       -10.5080  141.0390   77.3800 C.3   613  152613      0.1433
      6  O3       -10.0220  140.3670   76.2020 O.3   613  152613     -0.2248
      7  C4       -10.0270  140.3020   78.6450 C.3   613  152613     -0.0392
      8  N5       -10.4570  138.8950   78.6310 N.4   613  152613      0.3874
      9  C5A      -11.8210  138.7780   78.1080 C.3   613  152613     -0.0959
     10  C5B       -9.5440  138.1170   77.7970 C.3   613  152613     -0.0959
     11  C5C      -10.4210  138.3720   79.9970 C.3   613  152613     -0.0959
@<TRIPOS>BOND
     1     6     5    1
     2     5     4    1
     3     5     7    1
     4     4     1    1
     5    10     8    1
     6     9     8    1
     7     1     2   ar
     8     1     3   ar
     9     8     7    1
    10     8    11    1
