@<TRIPOS>MOLECULE
1xlc_XYL_A_1.pdb
 10 9 0 0 0
SMALL
GASTEIGER

@<TRIPOS>ATOM
      1  C1        25.8650   73.1800    9.0330 C.3   400  XYL400      0.2175
      2  C2        26.8840   74.1000    9.6100 C.3   400  XYL400      0.2175
      3  C3        26.2630   75.3160   10.3200 C.3   400  XYL400      0.2175
      4  C4        27.2880   76.4240   10.5790 C.3   400  XYL400      0.2175
      5  C5        26.7550   77.7840   10.8420 C.3   400  XYL400      0.2175
      6  O1        26.4920   72.2570    8.0700 O.3   400  XYL400     -0.2175
      7  O2        27.7300   73.3460   10.4560 O.3   400  XYL400     -0.2175
      8  O3        25.6230   75.0190   11.5680 O.3   400  XYL400     -0.2175
      9  O4        28.2180   75.9610   11.5300 O.3   400  XYL400     -0.2175
     10  O5        25.7530   78.0900    9.8750 O.3   400  XYL400     -0.2175
@<TRIPOS>BOND
     1     6     1    1
     2     1     2    1
     3     2     3    1
     4     2     7    1
     5    10     5    1
     6     3     4    1
     7     3     8    1
     8     4     5    1
     9     4     9    1
