@<TRIPOS>MOLECULE
1xld_XYL_A_1.pdb
 10 9 0 0 0
SMALL
GASTEIGER

@<TRIPOS>ATOM
      1  C1        25.3690   73.1820    9.0220 C.3   400  XYL400      0.2175
      2  C2        26.5010   74.0590    9.5360 C.3   400  XYL400      0.2175
      3  C3        25.9870   75.1900   10.4710 C.3   400  XYL400      0.2175
      4  C4        27.1320   76.2180   10.5370 C.3   400  XYL400      0.2175
      5  C5        26.6450   77.6040   10.8790 C.3   400  XYL400      0.2175
      6  O1        25.8150   72.2050    8.0620 O.3   400  XYL400     -0.2175
      7  O2        27.5300   73.2800   10.1520 O.3   400  XYL400     -0.2175
      8  O3        25.5650   74.7980   11.7890 O.3   400  XYL400     -0.2175
      9  O4        28.1380   75.7540   11.4380 O.3   400  XYL400     -0.2175
     10  O5        25.6760   77.9640    9.8890 O.3   400  XYL400     -0.2175
@<TRIPOS>BOND
     1     6     1    1
     2     1     2    1
     3     2     7    1
     4     2     3    1
     5    10     5    1
     6     3     4    1
     7     3     8    1
     8     4     5    1
     9     4     9    1
