@<TRIPOS>MOLECULE
1xlf_GCO_A_1.pdb
 13 12 0 0 0
SMALL
GASTEIGER

@<TRIPOS>ATOM
      1  C1        22.7560   74.6970   11.2070 C.2   400  GCO400      0.3973
      2  C2        23.9790   74.7970   10.3030 C.3   400  GCO400      0.2865
      3  C3        25.2030   75.4020   10.9890 C.3   400  GCO400      0.2260
      4  C4        26.4870   75.2920   10.1450 C.3   400  GCO400      0.2180
      5  C5        27.4940   76.3770   10.5340 C.3   400  GCO400      0.2175
      6  C6        26.7700   77.5820   11.1230 C.3   400  GCO400      0.2175
      7  O11       22.0330   75.6820   11.5120 O.co2 400  GCO400     -0.2427
      8  O12       22.4870   73.5560   11.6410 O.co2 400  GCO400     -0.2427
      9  O2        24.3530   73.4780    9.8680 O.3   400  GCO400     -0.2080
     10  O3        25.4030   74.7200   12.2400 O.3   400  GCO400     -0.2169
     11  O4        27.0870   74.0000   10.3180 O.3   400  GCO400     -0.2175
     12  O5        28.4200   75.9200   11.5220 O.3   400  GCO400     -0.2175
     13  O6        25.9260   78.1620   10.1230 O.3   400  GCO400     -0.2175
@<TRIPOS>BOND
     1     9     2    1
     2    13     6    1
     3     4    11    1
     4     4     5    1
     5     4     3    1
     6     2     3    1
     7     2     1    1
     8     5     6    1
     9     5    12    1
    10     3    10    1
    11     1     7   ar
    12     1     8   ar
