@<TRIPOS>MOLECULE
1xlg_XYL_A_1.pdb
 10 9 0 0 0
SMALL
GASTEIGER

@<TRIPOS>ATOM
      1  C1        26.0700   73.0140    9.0480 C.3   400  XYL400      0.2175
      2  C2        27.2160   73.8260    9.6740 C.3   400  XYL400      0.2175
      3  C3        26.6360   75.1340   10.1690 C.3   400  XYL400      0.2175
      4  C4        27.5250   76.1450   10.8400 C.3   400  XYL400      0.2175
      5  C5        26.8020   77.4060   11.2350 C.3   400  XYL400      0.2175
      6  O1        26.6070   71.9300    8.2710 O.3   400  XYL400     -0.2175
      7  O2        27.7390   72.9630   10.6440 O.3   400  XYL400     -0.2175
      8  O3        25.6040   74.8430   11.1460 O.3   400  XYL400     -0.2175
      9  O4        28.1260   75.5060   11.9680 O.3   400  XYL400     -0.2175
     10  O5        26.0850   78.0100   10.1570 O.3   400  XYL400     -0.2175
@<TRIPOS>BOND
     1     6     1    1
     2     1     2    1
     3     2     3    1
     4     2     7    1
     5    10     5    1
     6     3     4    1
     7     3     8    1
     8     4     5    1
     9     4     9    1
