@<TRIPOS>MOLECULE
1xli_GLT_A_1.pdb
 12 12 0 0 0
SMALL
GASTEIGER

@<TRIPOS>ATOM
      1  C1        24.2930   75.6160    9.7940 C.3   400  GLT400      0.2324
      2  C2        25.2210   74.4590    9.5410 C.3   400  GLT400      0.2252
      3  C3        26.4390   74.2520   10.3850 C.3   400  GLT400      0.2166
      4  C4        27.2480   75.4490   10.7740 C.3   400  GLT400      0.1972
      5  C5        26.4920   76.6610   11.2310 C.3   400  GLT400      0.1159
      6  C6        27.3990   77.8080   11.5510 C.3   400  GLT400      0.1955
      7  S5        25.2900   77.1760    9.9130 S.3   400  GLT400     -0.1017
      8  O1        23.5680   75.5350   10.9840 O.3   400  GLT400     -0.2082
      9  O2        24.5810   73.2170    9.1710 O.3   400  GLT400     -0.2166
     10  O3        27.3960   73.1430   10.2440 O.3   400  GLT400     -0.2175
     11  O4        28.2630   75.1160   11.6880 O.3   400  GLT400     -0.2193
     12  O6        27.0650   78.9890   10.8560 O.3   400  GLT400     -0.2194
@<TRIPOS>BOND
     1     9     2    1
     2     2     1    1
     3     2     3    1
     4     1     7    1
     5     1     8    1
     6     7     5    1
     7    10     3    1
     8     3     4    1
     9     4     5    1
    10     4    11    1
    11    12     6    1
    12     5     6    1
