@<TRIPOS>MOLECULE
1xlj_XYL_A_1.pdb
 10 9 0 0 0
SMALL
GASTEIGER

@<TRIPOS>ATOM
      1  C1        25.9170   73.4050    8.9600 C.3   400  XYL400      0.2175
      2  C2        26.9370   74.3330    9.5890 C.3   400  XYL400      0.2175
      3  C3        26.3360   75.4960   10.4190 C.3   400  XYL400      0.2175
      4  C4        27.3200   76.6350   10.5880 C.3   400  XYL400      0.2175
      5  C5        26.7640   78.0100   10.9200 C.3   400  XYL400      0.2175
      6  O1        26.5150   72.3400    8.1930 O.3   400  XYL400     -0.2175
      7  O2        27.7540   73.4600   10.3940 O.3   400  XYL400     -0.2175
      8  O3        25.7600   75.1240   11.6830 O.3   400  XYL400     -0.2175
      9  O4        28.3350   76.3930   11.6110 O.3   400  XYL400     -0.2175
     10  O5        25.8200   78.4110    9.9820 O.3   400  XYL400     -0.2175
@<TRIPOS>BOND
     1     6     1    1
     2     1     2    1
     3     2     7    1
     4     2     3    1
     5    10     5    1
     6     3     4    1
     7     3     8    1
     8     4     5    1
     9     4     9    1
