@<TRIPOS>MOLECULE
1xlm_XYL_A_1.pdb
 10 9 0 0 0
SMALL
GASTEIGER

@<TRIPOS>ATOM
      1  C1        45.1670   39.0300   19.9040 C.3   400  XYL400      0.2175
      2  C2        46.4660   39.8280   19.7140 C.3   400  XYL400      0.2175
      3  C3        47.2990   39.9800   21.0730 C.3   400  XYL400      0.2175
      4  C4        48.7580   40.4930   20.8380 C.3   400  XYL400      0.2175
      5  C5        49.2960   41.5100   21.8420 C.3   400  XYL400      0.2175
      6  O1        44.7270   38.7690   18.6940 O.3   400  XYL400     -0.2175
      7  O2        47.2440   39.1510   18.7540 O.3   400  XYL400     -0.2175
      8  O3        47.2580   38.8310   21.8790 O.3   400  XYL400     -0.2175
      9  O4        49.7030   39.4630   20.7630 O.3   400  XYL400     -0.2175
     10  O5        48.3720   42.3850   22.4550 O.3   400  XYL400     -0.2175
@<TRIPOS>BOND
     1     6     1    1
     2     7     2    1
     3     2     1    1
     4     2     3    1
     5     9     4    1
     6     4     3    1
     7     4     5    1
     8     3     8    1
     9     5    10    1
