@<TRIPOS>MOLECULE
1xlr_VNL_A_1.pdb
 12 12 0 0 0
SMALL
GASTEIGER

@<TRIPOS>ATOM
      1  C1        10.9680   -5.8620   33.0640 C.ar  181  VNL181      0.0830
      2  CO1       11.6960   -4.6140   33.2620 C.ar  181  VNL181      0.0101
      3  CO2       11.3620   -6.9970   33.8450 C.ar  181  VNL181      0.0468
      4  CM1       12.8340   -4.5710   34.1980 C.ar  181  VNL181      0.0454
      5  CM2       12.4700   -6.9120   34.7670 C.ar  181  VNL181      0.1776
      6  OM        12.7240   -7.8110   35.7110 O.3   181  VNL181     -0.4682
      7  CZ        13.1670   -5.8020   34.9360 C.ar  181  VNL181      0.2293
      8  CC         9.8450   -5.9810   32.1630 C.2   181  VNL181      0.3879
      9  CV        12.0100   -8.9140   35.8060 C.3   181  VNL181      0.2526
     10  O1         9.4770   -4.9770   31.5540 O.co2 181  VNL181     -0.2406
     11  O2         9.3720   -7.1320   31.8760 O.co2 181  VNL181     -0.2406
     12  O3        14.1370   -5.8430   35.8700 O.3   181  VNL181     -0.2833
@<TRIPOS>BOND
     1    10     8   ar
     2    11     8   ar
     3     8     1    1
     4     1     2   ar
     5     1     3   ar
     6     2     4   ar
     7     3     5   ar
     8     4     7   ar
     9     5     7   ar
    10     5     6    1
    11     7    12    1
    12     6     9    1
