@<TRIPOS>MOLECULE
1xls_REA_A_1.pdb
 22 22 0 0 0
SMALL
GASTEIGER

@<TRIPOS>ATOM
      1  C1        29.3870  -18.8020   32.7750 C.3   801  REA801      0.0183
      2  C2        29.9150  -20.3050   33.0840 C.3   801  REA801      0.0044
      3  C3        29.6890  -21.4290   31.9640 C.3   801  REA801      0.0047
      4  C4        28.5530  -21.2040   31.1830 C.3   801  REA801      0.0217
      5  C5        28.2960  -19.9440   30.6120 C.2   801  REA801     -0.0479
      6  C6        28.6520  -18.6490   31.2850 C.2   801  REA801     -0.0307
      7  C7        28.4270  -17.3360   30.7610 C.2   801  REA801     -0.0052
      8  C8        28.7950  -16.6560   29.6160 C.2   801  REA801     -0.0046
      9  C9        28.4600  -15.4020   29.1060 C.2   801  REA801     -0.0219
     10  C10       28.9780  -14.9690   27.8860 C.2   801  REA801     -0.0043
     11  C11       29.8400  -15.7540   27.1290 C.2   801  REA801     -0.0006
     12  C12       30.3480  -15.3420   25.9270 C.2   801  REA801     -0.0041
     13  C13       31.2340  -16.1180   25.0830 C.2   801  REA801     -0.0153
     14  C14       31.3120  -15.6070   23.7740 C.2   801  REA801      0.0819
     15  C15       32.1080  -16.1010   22.5530 C.2   801  REA801      0.3876
     16  C16       30.7570  -17.9970   32.6880 C.3   801  REA801      0.0043
     17  C17       28.6610  -18.1910   34.0220 C.3   801  REA801      0.0043
     18  C18       27.6250  -20.1140   29.2470 C.3   801  REA801      0.0260
     19  C19       27.4770  -14.3670   29.8110 C.3   801  REA801      0.0310
     20  C20       32.0080  -17.3780   25.5420 C.3   801  REA801      0.0312
     21  O1        31.6630  -16.0160   21.4330 O.co2 801  REA801     -0.2406
     22  O2        33.2600  -16.6180   22.7820 O.co2 801  REA801     -0.2406
@<TRIPOS>BOND
     1    21    15   ar
     2    15    22   ar
     3    15    14    1
     4    14    13    2
     5    13    20    1
     6    13    12    1
     7    12    11    2
     8    11    10    1
     9    10     9    2
    10     9     8    1
    11     9    19    1
    12    18     5    1
    13     8     7    2
    14     5     4    1
    15     5     6    2
    16     7     6    1
    17     4     3    1
    18     6     1    1
    19     3     2    1
    20    16     1    1
    21     1     2    1
    22     1    17    1
