@<TRIPOS>MOLECULE
1xls_TCD_E_1.pdb
 24 26 0 0 0
SMALL
GASTEIGER

@<TRIPOS>ATOM
      1  C1         3.2120  -11.5140   42.9520 C.ar  805  TCD805      0.1474
      2  O21        4.3680  -12.1860   43.2740 O.3   805  TCD805     -0.4353
      3  C2         2.6260  -10.5580   43.8100 C.ar  805  TCD805      0.0407
      4  C3         1.4540   -9.9350   43.4460 C.ar  805  TCD805      0.0407
      5  C4         0.8610  -10.1680   42.1890 C.ar  805  TCD805      0.1474
      6  O31       -0.2700   -9.4790   41.9570 O.3   805  TCD805     -0.4353
      7  C5         1.4400  -11.1190   41.3140 C.ar  805  TCD805      0.0407
      8  C6         2.6250  -11.7440   41.6960 C.ar  805  TCD805      0.0407
      9  C22        4.2240  -13.1130   44.2940 C.ar  805  TCD805      0.2404
     10  N23        2.9140  -13.3800   44.6600 N.ar  805  TCD805     -0.2082
     11  C24        2.6000  -14.2520   45.6340 C.ar  805  TCD805      0.1134
     12  C25        3.5270  -14.9640   46.3610 C.ar  805  TCD805      0.0779
     13 CL25        3.0350  -16.0810   47.6240 Cl    805  TCD805     -0.0806
     14  C26        4.8680  -14.7610   46.0610 C.ar  805  TCD805      0.0291
     15  C27        5.3030  -13.7790   44.9590 C.ar  805  TCD805      0.1119
     16 CL27        7.0020  -13.5270   44.5760 Cl    805  TCD805     -0.0773
     17  C32       -1.5260  -10.0550   41.7990 C.ar  805  TCD805      0.2404
     18  N33       -1.7380  -11.3470   42.1320 N.ar  805  TCD805     -0.2082
     19  C34       -2.9680  -11.9050   41.9850 C.ar  805  TCD805      0.1134
     20  C35       -4.0850  -11.1790   41.4900 C.ar  805  TCD805      0.0779
     21 CL35       -5.6790  -11.9150   41.3320 Cl    805  TCD805     -0.0806
     22  C36       -3.8420   -9.8280   41.1590 C.ar  805  TCD805      0.0291
     23  C37       -2.5920   -9.2520   41.2980 C.ar  805  TCD805      0.1119
     24 CL37       -2.3450   -7.5640   40.8410 Cl    805  TCD805     -0.0773
@<TRIPOS>BOND
     1    24    23    1
     2    22    23   ar
     3    22    20   ar
     4    23    17   ar
     5     7     8   ar
     6     7     5   ar
     7    21    20    1
     8    20    19   ar
     9     8     1   ar
    10    17     6    1
    11    17    18   ar
    12     6     5    1
    13    19    18   ar
    14     5     4   ar
    15     1     2    1
    16     1     3   ar
    17     2     9    1
    18     4     3   ar
    19     9    10   ar
    20     9    15   ar
    21    16    15    1
    22    10    11   ar
    23    15    14   ar
    24    11    12   ar
    25    14    12   ar
    26    12    13    1
