@<TRIPOS>MOLECULE
1xlt_NDP_C_1.pdb
 48 52 0 0 0
SMALL
GASTEIGER

@<TRIPOS>ATOM
      1  PA       120.6860    9.7590   68.0030 P.3   500  NDP500      0.2189
      2  O1A      119.8170    9.8530   66.8040 O.2   500  NDP500     -0.5170
      3  O2A      120.1350    9.7280   69.3780 O.3   500  NDP500     -0.4371
      4  O5B      121.6000    8.5000   67.7490 O.3   500  NDP500     -0.3112
      5  C5B      122.4130    8.1810   66.6680 C.3   500  NDP500      0.1813
      6  C4B      122.8760    6.8020   66.3320 C.3   500  NDP500      0.1820
      7  O4B      124.2180    6.4060   66.7170 O.3   500  NDP500     -0.3136
      8  C3B      122.0970    5.6810   66.8470 C.3   500  NDP500      0.2157
      9  O3B      120.8910    5.4900   66.0170 O.3   500  NDP500     -0.2175
     10  C2B      122.9130    4.4750   66.8940 C.3   500  NDP500      0.2314
     11  O2B      122.5760    3.3080   66.2850 O.3   500  NDP500     -0.2630
     12  C1B      124.2140    4.9470   66.4020 C.3   500  NDP500      0.3158
     13  N9A      125.5550    4.4390   67.0640 N.pl3 500  NDP500     -0.1439
     14  C8A      125.8490    4.4230   68.4300 C.3   500  NDP500      0.3377
     15  N7A      127.0540    3.9420   68.6310 N.2   500  NDP500     -0.2095
     16  C5A      127.6050    3.6250   67.4220 C.2   500  NDP500      0.2526
     17  C6A      128.8150    3.0840   66.8700 C.2   500  NDP500      0.4393
     18  N6A      129.8310    2.7210   67.6780 N.pl3 500  NDP500      0.2180
     19  N1A      128.9410    2.9370   65.5220 N.2   500  NDP500      0.0021
     20  C2A      127.9420    3.2860   64.6420 C.3   500  NDP500      0.5254
     21  N3A      126.7680    3.7940   65.0260 N.2   500  NDP500     -0.0055
     22  C4A      126.6050    3.9570   66.3630 C.2   500  NDP500      0.3518
     23  O3       121.7640   10.9410   68.0610 O.3   500  NDP500     -0.2703
     24  PN       121.6890   12.3680   67.1670 P.3   500  NDP500      0.2189
     25  O1N      121.4670   12.2140   65.7270 O.2   500  NDP500     -0.5170
     26  O2N      122.9190   13.0140   67.6320 O.3   500  NDP500     -0.4371
     27  O5D      120.5050   12.7580   68.0800 O.3   500  NDP500     -0.3112
     28  C5D      120.3880   13.3600   69.3570 C.3   500  NDP500      0.1813
     29  C4D      119.2310   13.1070   70.3100 C.3   500  NDP500      0.1799
     30  O4D      119.5040   13.1730   71.7440 O.3   500  NDP500     -0.3327
     31  C3D      117.9960   13.9380   69.9170 C.3   500  NDP500      0.2158
     32  O3D      116.6790   13.3240   70.0590 O.3   500  NDP500     -0.2175
     33  C2D      118.2510   15.1030   70.9230 C.3   500  NDP500      0.2309
     34  O2D      117.2260   15.9880   71.1810 O.3   500  NDP500     -0.2158
     35  C1D      118.7000   14.3290   72.2000 C.3   500  NDP500      0.2263
     36  N1N      119.6900   14.9590   73.1780 N.pl3 500  NDP500     -0.2787
     37  C2N      120.6580   15.9070   72.7600 C.3   500  NDP500      0.1244
     38  C3N      121.5740   16.4710   73.7030 C.2   500  NDP500      0.0544
     39  C7N      122.5660   17.4440   73.2230 C.2   500  NDP500      0.2818
     40  O7N      122.5370   18.6000   73.6270 O.2   500  NDP500     -0.2670
     41  N7N      123.4620   16.9360   72.3420 N.am  500  NDP500     -0.0839
     42  C4N      121.5340   16.0920   75.0850 C.2   500  NDP500      0.0033
     43  C5N      120.5880   15.1630   75.5050 C.2   500  NDP500      0.0157
     44  C6N      119.7070   14.6230   74.5850 C.2   500  NDP500      0.0633
     45  P2B      123.0230    1.8030   66.0310 P.3   500  NDP500      0.5328
     46  O1X      122.8210    0.9990   67.2780 O.3   500  NDP500     -0.1145
     47  O2X      122.1620    1.4180   64.9060 O.2   500  NDP500     -0.2224
     48  O3X      124.3990    1.8520   65.6390 O.3   500  NDP500     -0.1145
@<TRIPOS>BOND
     1    20    21    1
     2    20    19    1
     3    47    45    2
     4    21    22    2
     5    19    17    2
     6    48    45    1
     7    25    24    2
     8     9     8    1
     9    45    11    1
    10    45    46    1
    11    11    10    1
    12     6     5    1
    13     6     7    1
    14     6     8    1
    15    22    13    1
    16    22    16    1
    17    12     7    1
    18    12    10    1
    19    12    13    1
    20     5     4    1
    21     2     1    2
    22     8    10    1
    23    17    16    1
    24    17    18    1
    25    13    14    1
    26    24    26    1
    27    24    23    1
    28    24    27    1
    29    16    15    2
    30     4     1    1
    31     1    23    1
    32     1     3    1
    33    27    28    1
    34    14    15    1
    35    28    29    1
    36    31    32    1
    37    31    29    1
    38    31    33    1
    39    29    30    1
    40    33    34    1
    41    33    35    1
    42    30    35    1
    43    35    36    1
    44    41    39   am
    45    37    36    1
    46    37    38    1
    47    36    44    1
    48    39    40    2
    49    39    38    1
    50    38    42    2
    51    44    43    2
    52    42    43    1
