@<TRIPOS>MOLECULE
1xlt_NAD_A_1.pdb
 44 48 0 0 0
SMALL
GASTEIGER

@<TRIPOS>ATOM
      1  PA       162.9080   35.4870   73.8220 P.3   400  NAD400      0.2189
      2  O1A      162.1680   35.5760   75.1160 O.3   400  NAD400     -0.4371
      3  O2A      163.8060   36.5890   73.3590 O.2   400  NAD400     -0.5170
      4  O5B      161.7970   35.1880   72.7090 O.3   400  NAD400     -0.3112
      5  C5B      160.5880   35.7780   72.3130 C.3   400  NAD400      0.1813
      6  C4B      160.3650   36.3460   70.9350 C.3   400  NAD400      0.1821
      7  O4B      160.0660   37.7730   70.8290 O.3   400  NAD400     -0.3135
      8  C3B      161.4720   36.2250   69.9530 C.3   400  NAD400      0.2184
      9  O3B      161.5000   34.8690   69.3660 O.3   400  NAD400     -0.2174
     10  C2B      161.3650   37.2800   68.9210 C.3   400  NAD400      0.2570
     11  O2B      161.3370   37.1110   67.5630 O.3   400  NAD400     -0.2130
     12  C1B      160.1690   38.0110   69.3430 C.3   400  NAD400      0.3186
     13  N9A      160.1290   39.5720   69.1990 N.pl3 400  NAD400     -0.1439
     14  C8A      160.9320   40.4840   69.9070 C.3   400  NAD400      0.3377
     15  N7A      160.6430   41.7240   69.5590 N.2   400  NAD400     -0.2095
     16  C5A      159.6570   41.6920   68.6230 C.2   400  NAD400      0.2526
     17  C6A      158.8880   42.5920   67.8360 C.2   400  NAD400      0.4393
     18  N6A      159.0990   43.9190   67.9610 N.pl3 400  NAD400      0.2180
     19  N1A      157.9340   42.1090   66.9570 N.2   400  NAD400      0.0021
     20  C2A      157.6860   40.7570   66.8030 C.3   400  NAD400      0.5254
     21  N3A      158.3500   39.7990   67.4930 N.2   400  NAD400     -0.0055
     22  C4A      159.2970   40.2480   68.3660 C.2   400  NAD400      0.3518
     23  O3       163.8430   34.1710   73.6890 O.3   400  NAD400     -0.2703
     24  PN       163.3290   32.7610   73.6570 P.3   400  NAD400      0.2189
     25  O1N      162.0800   32.4490   74.2710 O.3   400  NAD400     -0.4371
     26  O2N      164.4410   31.8810   73.8700 O.2   400  NAD400     -0.5170
     27  O5D      163.1560   32.7570   72.1860 O.3   400  NAD400     -0.3112
     28  C5D      163.0380   31.9930   71.0230 C.3   400  NAD400      0.1813
     29  C4D      164.1990   31.4180   70.2690 C.3   400  NAD400      0.1799
     30  O4D      165.2840   30.8360   71.0710 O.3   400  NAD400     -0.3327
     31  C3D      163.6710   30.5030   69.1320 C.3   400  NAD400      0.2158
     32  O3D      164.1660   30.6950   67.7560 O.3   400  NAD400     -0.2175
     33  C2D      164.0620   29.1050   69.8110 C.3   400  NAD400      0.2309
     34  O2D      164.2130   27.9760   69.0180 O.3   400  NAD400     -0.2158
     35  C1D      165.3820   29.4390   70.5980 C.3   400  NAD400      0.2263
     36  N1N      165.6970   28.7270   71.9290 N.pl3 400  NAD400     -0.2787
     37  C2N      167.0040   28.2770   72.2720 C.3   400  NAD400      0.1244
     38  C3N      167.2240   27.6150   73.5380 C.2   400  NAD400      0.0544
     39  C7N      168.5740   27.1390   73.9010 C.2   400  NAD400      0.2818
     40  O7N      169.2190   26.4050   73.1470 O.2   400  NAD400     -0.2670
     41  N7N      168.9720   27.5770   75.1190 N.am  400  NAD400     -0.0839
     42  C4N      166.1520   27.4010   74.4620 C.2   400  NAD400      0.0033
     43  C5N      164.8920   27.8350   74.1340 C.2   400  NAD400      0.0157
     44  C6N      164.6760   28.4670   72.9220 C.2   400  NAD400      0.0633
@<TRIPOS>BOND
     1    20    19    1
     2    20    21    1
     3    19    17    2
     4    21    22    2
     5    11    10    1
     6    32    31    1
     7    17    18    1
     8    17    16    1
     9    22    16    1
    10    22    13    1
    11    16    15    2
    12    10    12    1
    13    10     8    1
    14    34    33    1
    15    31    33    1
    16    31    29    1
    17    13    12    1
    18    13    14    1
    19    12     7    1
    20     9     8    1
    21    15    14    1
    22    33    35    1
    23     8     6    1
    24    29    28    1
    25    29    30    1
    26    35    30    1
    27    35    36    1
    28     7     6    1
    29     6     5    1
    30    28    27    1
    31    36    37    1
    32    36    44    1
    33    27    24    1
    34    37    38    1
    35     5     4    1
    36     4     1    1
    37    44    43    2
    38    40    39    2
    39     3     1    2
    40    38    39    1
    41    38    42    2
    42    24    23    1
    43    24    26    2
    44    24    25    1
    45    23     1    1
    46     1     2    1
    47    39    41   am
    48    43    42    1
