@<TRIPOS>MOLECULE
1xlu_FUL_A_1.pdb
 10 10 0 0 0
SMALL
GASTEIGER

@<TRIPOS>ATOM
      1  C1        75.9260  133.4410   28.1150 C.3   532  FUL532      0.1776
      2  C2        74.7800  134.0180   27.2890 C.3   532  FUL532      0.2141
      3  O2        74.9690  133.9030   25.8980 O.3   532  FUL532     -0.2176
      4  C3        73.6050  133.1540   27.7310 C.3   532  FUL532      0.2172
      5  O3        72.4390  133.4080   26.9690 O.3   532  FUL532     -0.2175
      6  C4        73.3830  133.3200   29.2450 C.3   532  FUL532      0.2116
      7  O4        72.7170  134.5420   29.4850 O.3   532  FUL532     -0.2177
      8  C5        74.7050  133.1680   30.0440 C.3   532  FUL532      0.1483
      9  C6        74.5990  133.5050   31.5300 C.3   532  FUL532      0.0349
     10  O5        75.7670  133.9000   29.4490 O.3   532  FUL532     -0.3508
@<TRIPOS>BOND
     1     3     2    1
     2     5     4    1
     3     2     4    1
     4     2     1    1
     5     4     6    1
     6     1    10    1
     7     6     7    1
     8     6     8    1
     9    10     8    1
    10     8     9    1
