@<TRIPOS>MOLECULE
1xlv_FUL_A_1.pdb
 10 10 0 0 0
SMALL
GASTEIGER

@<TRIPOS>ATOM
      1  C1        98.3590    1.8610   35.5670 C.3   532  FUL532      0.1776
      2  C2        97.6310    2.9500   36.3290 C.3   532  FUL532      0.2141
      3  O2        97.6770    2.7890   37.7220 O.3   532  FUL532     -0.2176
      4  C3        98.4270    4.1720   35.9210 C.3   532  FUL532      0.2172
      5  O3        98.0450    5.3010   36.6930 O.3   532  FUL532     -0.2175
      6  C4        98.3710    4.3550   34.3800 C.3   532  FUL532      0.2116
      7  O4        97.2640    5.1630   33.9730 O.3   532  FUL532     -0.2177
      8  C5        98.5420    3.0070   33.6150 C.3   532  FUL532      0.1483
      9  C6        98.1860    3.0130   32.1300 C.3   532  FUL532      0.0349
     10  O5        97.8770    1.9240   34.2460 O.3   532  FUL532     -0.3508
@<TRIPOS>BOND
     1     9     8    1
     2     8    10    1
     3     8     6    1
     4     7     6    1
     5    10     1    1
     6     6     4    1
     7     1     2    1
     8     4     2    1
     9     4     5    1
    10     2     3    1
