@<TRIPOS>MOLECULE
1xlw_FUC_A_1.pdb
 10 10 0 0 0
SMALL
GASTEIGER

@<TRIPOS>ATOM
      1  C1       148.0370   16.4400   31.5840 C.3   537  FUC537      0.1776
      2  C2       147.5340   17.1710   32.8400 C.3   537  FUC537      0.2141
      3  C3       146.1960   16.4760   33.1910 C.3   537  FUC537      0.2172
      4  C4       146.4620   14.9710   33.4200 C.3   537  FUC537      0.2116
      5  C5       147.3470   14.3500   32.3040 C.3   537  FUC537      0.1483
      6  C6       147.8280   12.9290   32.5840 C.3   537  FUC537      0.0349
      7  O2       147.4420   18.5690   32.6350 O.3   537  FUC537     -0.2176
      8  O3       145.4630   17.0770   34.2700 O.3   537  FUC537     -0.2175
      9  O4       147.0210   14.7750   34.7090 O.3   537  FUC537     -0.2177
     10  O5       148.4730   15.1580   32.0150 O.3   537  FUC537     -0.3508
@<TRIPOS>BOND
     1     1    10    1
     2     1     2    1
     3    10     5    1
     4     5     6    1
     5     5     4    1
     6     7     2    1
     7     2     3    1
     8     3     4    1
     9     3     8    1
    10     4     9    1
