@<TRIPOS>MOLECULE
1xlw_FUL_A_1.pdb
 10 10 0 0 0
SMALL
GASTEIGER

@<TRIPOS>ATOM
      1  C1        98.1940    1.4210   35.5350 C.3   532  FUL532      0.1776
      2  C2        97.6420    2.6190   36.2950 C.3   532  FUL532      0.2141
      3  O2        97.7240    2.5010   37.6950 O.3   532  FUL532     -0.2176
      4  C3        98.5350    3.7440   35.7800 C.3   532  FUL532      0.2172
      5  O3        98.2290    4.9720   36.4240 O.3   532  FUL532     -0.2175
      6  C4        98.4560    3.8190   34.2300 C.3   532  FUL532      0.2116
      7  O4        97.3140    4.5610   33.8520 O.3   532  FUL532     -0.2177
      8  C5        98.4950    2.4360   33.5240 C.3   532  FUL532      0.1483
      9  C6        98.1500    2.4480   32.0320 C.3   532  FUL532      0.0349
     10  O5        97.6940    1.4820   34.2090 O.3   532  FUL532     -0.3508
@<TRIPOS>BOND
     1     9     8    1
     2     8    10    1
     3     8     6    1
     4     7     6    1
     5    10     1    1
     6     6     4    1
     7     1     2    1
     8     4     2    1
     9     4     5    1
    10     2     3    1
