@<TRIPOS>MOLECULE
1xlx_CIO_A_1.pdb
 25 27 0 0 0
SMALL
GASTEIGER

@<TRIPOS>ATOM
      1  O25        7.9420    4.6870   -6.5890 O.co2 101  CIO101     -0.2457
      2  C23        7.5860    3.4940   -6.9050 C.2   101  CIO101      0.3643
      3  O24        8.3870    2.5060   -6.9390 O.co2 101  CIO101     -0.2457
      4  C4         6.1320    3.2870   -7.3190 C.3   101  CIO101      0.1035
      5  C5         6.0640    2.7220   -8.7220 C.3   101  CIO101      0.0126
      6  C6         4.6350    2.7440   -9.2690 C.3   101  CIO101      0.0188
      7  C3         5.3430    2.3310   -6.4460 C.3   101  CIO101      0.0126
      8  C2         3.8900    2.3100   -6.9890 C.3   101  CIO101      0.0188
      9  C1         3.7010    1.8680   -8.4480 C.3   101  CIO101      0.0981
     10  C21        4.1120    0.4820   -8.6500 C.1   101  CIO101      0.0752
     11  N22        4.4000   -0.6190   -8.8760 N.1   101  CIO101     -0.1956
     12  C7         2.2530    1.8440   -8.9660 C.ar  101  CIO101     -0.0065
     13  C8         1.1400    2.1900   -8.1900 C.ar  101  CIO101      0.0000
     14  C9        -0.1550    2.1250   -8.7190 C.ar  101  CIO101      0.0398
     15  C10       -0.4000    1.7080  -10.0480 C.ar  101  CIO101      0.1724
     16  O11       -1.6840    1.6250  -10.6010 O.3   101  CIO101     -0.4684
     17  C12       -2.8660    1.8650   -9.8090 C.3   101  CIO101      0.2526
     18  C13        0.6990    1.3670  -10.8250 C.ar  101  CIO101      0.1717
     19  C20        2.0010    1.4220  -10.2850 C.ar  101  CIO101      0.0367
     20  O14        0.4640    0.9490  -12.1020 O.3   101  CIO101     -0.4761
     21  C15        1.6130    0.8440  -12.9960 C.3   101  CIO101      0.1660
     22  C16        1.5100   -0.4340  -13.7600 C.3   101  CIO101      0.0435
     23  C17        0.4070   -0.1240  -14.7200 C.3   101  CIO101      0.0038
     24  C18        0.4930    1.3530  -14.9750 C.3   101  CIO101      0.0038
     25  C19        1.6120    1.8690  -14.1020 C.3   101  CIO101      0.0435
@<TRIPOS>BOND
     1    24    23    1
     2    24    25    1
     3    23    22    1
     4    25    21    1
     5    22    21    1
     6    21    20    1
     7    20    18    1
     8    18    19   ar
     9    18    15   ar
    10    16    15    1
    11    16    17    1
    12    19    12   ar
    13    15    14   ar
    14     6     5    1
    15     6     9    1
    16    12     9    1
    17    12    13   ar
    18    11    10    3
    19     5     4    1
    20    14    13   ar
    21    10     9    1
    22     9     8    1
    23     4     2    1
    24     4     7    1
    25     8     7    1
    26     3     2   ar
    27     2     1   ar
