@<TRIPOS>MOLECULE
1xlz_FIL_A_1.pdb
 21 22 0 0 0
SMALL
GASTEIGER

@<TRIPOS>ATOM
      1  O19        6.5760    3.1870   -7.0220 O.2   1003  FIL1003    -0.2209
      2  C18        6.5170    2.8530   -8.2060 C.2   1003  FIL1003     0.4604
      3  N20        7.4940    2.1760   -8.8220 N.am  1003  FIL1003    -0.0461
      4  O21        5.3120    3.2080   -8.9550 O.3   1003  FIL1003    -0.3302
      5  N2         4.0190    3.1740   -8.3150 N.4   1003  FIL1003    -0.0197
      6  C1         3.3610    1.9280   -7.9340 C.3   1003  FIL1003     0.1382
      7  C17        4.2130    0.7060   -8.2580 C.3   1003  FIL1003     0.0275
      8  C3         2.0380    1.8280   -8.6130 C.ar  1003  FIL1003     0.0003
      9  C4         0.8720    2.0680   -7.8950 C.ar  1003  FIL1003     0.0005
     10  C5        -0.3680    1.9920   -8.5070 C.ar  1003  FIL1003     0.0398
     11  C6        -0.4670    1.6670   -9.8500 C.ar  1003  FIL1003     0.1724
     12  O7        -1.6970    1.5790  -10.4530 O.3   1003  FIL1003    -0.4684
     13  C8        -2.9020    2.1440   -9.9420 C.3   1003  FIL1003     0.2526
     14  C9         0.7060    1.4250  -10.5830 C.ar  1003  FIL1003     0.1718
     15  C16        1.9510    1.5090   -9.9600 C.ar  1003  FIL1003     0.0372
     16  O10        0.6080    1.1050  -11.9060 O.3   1003  FIL1003    -0.4761
     17  C11        1.7240    1.0960  -12.7980 C.3   1003  FIL1003     0.1660
     18  C12        1.9170   -0.2950  -13.3580 C.3   1003  FIL1003     0.0435
     19  C13        1.0070   -0.3610  -14.5680 C.3   1003  FIL1003     0.0038
     20  C14        0.8700    1.0630  -15.0700 C.3   1003  FIL1003     0.0038
     21  C15        1.3770    1.9720  -13.9680 C.3   1003  FIL1003     0.0435
@<TRIPOS>BOND
     1    20    19    1
     2    20    21    1
     3    19    18    1
     4    21    17    1
     5    18    17    1
     6    17    16    1
     7    16    14    1
     8    14    15   ar
     9    14    11   ar
    10    12    13    1
    11    12    11    1
    12    15     8   ar
    13    11    10   ar
    14     4     5    1
    15     4     2    1
    16     3     2   am
    17     8     6    1
    18     8     9   ar
    19    10     9   ar
    20     5     6    1
    21     7     6    1
    22     2     1    2
