@<TRIPOS>MOLECULE
1xm4_PIL_A_1.pdb
 25 27 0 0 0
SMALL
GASTEIGER

@<TRIPOS>ATOM
      1 CL25       84.2230    4.1420   62.1940 Cl    1003  PIL1003    -0.0792
      2  C24       83.7590    3.1500   60.8640 C.ar  1003  PIL1003     0.0929
      3  C23       82.4610    3.2340   60.4140 C.ar  1003  PIL1003     0.1116
      4  N22       82.1200    2.4890   59.3530 N.ar  1003  PIL1003    -0.2405
      5  C21       83.0170    1.6920   58.7430 C.ar  1003  PIL1003     0.1116
      6  C19       84.3220    1.6080   59.2090 C.ar  1003  PIL1003     0.0929
      7 CL20       85.4620    0.5040   58.4430 Cl    1003  PIL1003    -0.0792
      8  C18       84.7170    2.3150   60.3070 C.ar  1003  PIL1003     0.0977
      9  N16       86.0210    2.2750   60.8080 N.am  1003  PIL1003    -0.1736
     10  C15       86.2890    1.8620   62.0590 C.2   1003  PIL1003     0.2691
     11  O17       85.4190    1.5040   62.8300 O.2   1003  PIL1003    -0.2680
     12  C14       87.6950    1.9120   62.5860 C.ar  1003  PIL1003     0.0586
     13  C13       88.7810    2.2920   61.7990 C.ar  1003  PIL1003     0.0079
     14  C12       90.0540    2.3500   62.3450 C.ar  1003  PIL1003     0.0402
     15  C9        90.2810    2.0350   63.6840 C.ar  1003  PIL1003     0.1724
     16  O10       91.5310    2.0800   64.3100 O.3   1003  PIL1003    -0.4684
     17  C11       92.7290    2.3910   63.5910 C.3   1003  PIL1003     0.2526
     18  C2        89.2070    1.6580   64.4510 C.ar  1003  PIL1003     0.1722
     19  C1        87.9190    1.5910   63.9060 C.ar  1003  PIL1003     0.0446
     20  O3        89.4720    1.3550   65.7500 O.3   1003  PIL1003    -0.4761
     21  C4        88.4730    0.7980   66.6020 C.3   1003  PIL1003     0.1660
     22  C5        87.4590    1.8730   66.9680 C.3   1003  PIL1003     0.0435
     23  C6        87.9550    2.4290   68.2830 C.3   1003  PIL1003     0.0038
     24  C7        88.6440    1.2750   68.9620 C.3   1003  PIL1003     0.0038
     25  C8        89.1190    0.3490   67.8870 C.3   1003  PIL1003     0.0435
@<TRIPOS>BOND
     1     7     6    1
     2     5     6   ar
     3     5     4   ar
     4     6     8   ar
     5     4     3   ar
     6     8     9    1
     7     8     2   ar
     8     3     2   ar
     9     9    10   am
    10     2     1    1
    11    13    14   ar
    12    13    12   ar
    13    10    12    1
    14    10    11    2
    15    14    15   ar
    16    12    19   ar
    17    17    16    1
    18    15    16    1
    19    15    18   ar
    20    19    18   ar
    21    18    20    1
    22    20    21    1
    23    21    22    1
    24    21    25    1
    25    22    23    1
    26    25    24    1
    27    23    24    1
