@<TRIPOS>MOLECULE
1xm6_5RM_A_1.pdb
 19 20 0 0 0
SMALL
GASTEIGER

@<TRIPOS>ATOM
      1  O19       50.7850    2.2010  -10.0540 O.2   1003  5RM1003    -0.1832
      2  C4        49.7650    2.4050   -9.3980 C.1   1003  5RM1003     0.3128
      3  O5        48.9710    1.2920   -8.9670 O.3   1003  5RM1003    -0.4033
      4  N3        49.5030    3.4380   -8.5800 N.2   1003  5RM1003    -0.1678
      5  C2        48.4580    3.1390   -7.6190 C.3   1003  5RM1003     0.1859
      6  C1        47.9970    1.7310   -8.0280 C.3   1003  5RM1003     0.1896
      7  C18       48.0490    0.7240   -6.8730 C.3   1003  5RM1003     0.0516
      8  C6        46.6100    1.7270   -8.6360 C.ar  1003  5RM1003     0.0198
      9  C7        45.5100    2.1740   -7.8950 C.ar  1003  5RM1003     0.0025
     10  C8        44.2280    2.1600   -8.4410 C.ar  1003  5RM1003     0.0398
     11  C9        44.0260    1.6590   -9.7300 C.ar  1003  5RM1003     0.1724
     12  O10       42.7850    1.6190  -10.3080 O.3   1003  5RM1003    -0.4684
     13  C11       41.5840    2.1170   -9.7040 C.3   1003  5RM1003     0.2526
     14  C12       45.1160    1.2070  -10.4870 C.ar  1003  5RM1003     0.1720
     15  C17       46.3930    1.2410   -9.9260 C.ar  1003  5RM1003     0.0392
     16  O13       44.8880    0.7470  -11.7810 O.3   1003  5RM1003    -0.4724
     17  C14       45.9050    0.1950  -12.6180 C.3   1003  5RM1003     0.2056
     18  C15       45.3630    0.0630  -14.0400 C.3   1003  5RM1003     0.0473
     19  C16       45.1150    1.4450  -14.5960 C.3   1003  5RM1003     0.0040
@<TRIPOS>BOND
     1    19    18    1
     2    18    17    1
     3    17    16    1
     4    16    14    1
     5    14    15   ar
     6    14    11   ar
     7    12    11    1
     8    12    13    1
     9     1     2    2
    10    15     8   ar
    11    11    10   ar
    12     2     3    1
    13     2     4    2
    14     3     6    1
    15     8     6    1
    16     8     9   ar
    17     4     5    1
    18    10     9   ar
    19     6     5    1
    20     6     7    1
