@<TRIPOS>MOLECULE
1xme_HEM_A_1.pdb
 43 50 0 0 0
SMALL
GASTEIGER

@<TRIPOS>ATOM
      1  CHA       89.6770   35.4350    3.9870 C.2   800  HEM800      0.0000
      2  CHB       90.1850   39.7200    1.7850 C.2   800  HEM800      0.0000
      3  CHC       86.2570   41.4010    4.0910 C.2   800  HEM800      0.0000
      4  CHD       85.5900   37.0060    6.0610 C.2   800  HEM800      0.0000
      5  C1A       90.1490   36.4490    3.1610 C.ar  800  HEM800      0.0000
      6  C2A       91.3130   36.2920    2.1790 C.ar  800  HEM800      0.0000
      7  C3A       91.4180   37.5080    1.5490 C.ar  800  HEM800      0.0000
      8  C4A       90.3720   38.3830    2.1260 C.ar  800  HEM800      0.0000
      9  CMA       92.4000   37.9250    0.4480 C.3   800  HEM800      0.0000
     10  CAA       92.1290   35.0290    1.9740 C.3   800  HEM800      0.0000
     11  CBA       93.1080   34.8030    3.1290 C.3   800  HEM800      0.0000
     12  CGA       93.8930   33.5000    3.0130 C.2   800  HEM800      0.0000
     13  O1A       95.0530   33.4530    3.4940 O.co2 800  HEM800      0.0000
     14  O2A       93.3250   32.5030    2.4940 O.co2 800  HEM800      0.0000
     15  C1B       89.1990   40.5900    2.2580 C.2   800  HEM800      0.0000
     16  C2B       89.0730   42.0100    1.9000 C.2   800  HEM800      0.0000
     17  C3B       87.9740   42.4780    2.5670 C.2   800  HEM800      0.0000
     18  C4B       87.4240   41.3580    3.3170 C.2   800  HEM800      0.0000
     19  CMB       89.9910   42.7640    0.9700 C.3   800  HEM800      0.0000
     20  CAB       87.3960   43.8480    2.5420 C.2   800  HEM800      0.0000
     21  CBB       87.9510   44.9770    2.9550 C.2   800  HEM800      0.0000
     22  C1C       85.6590   40.3610    4.7980 C.ar  800  HEM800      0.0000
     23  C2C       84.3770   40.4380    5.4820 C.ar  800  HEM800      0.0000
     24  C3C       84.1540   39.1230    6.0580 C.ar  800  HEM800      0.0000
     25  C4C       85.3400   38.3340    5.6830 C.ar  800  HEM800      0.0000
     26  CMC       83.5640   41.5780    5.5420 C.3   800  HEM800      0.0000
     27  CAC       83.0140   38.5920    6.8750 C.2   800  HEM800      0.0000
     28  CBC       81.8880   39.2110    7.2440 C.2   800  HEM800      0.0000
     29  C1D       86.6780   36.1860    5.7320 C.2   800  HEM800      0.0000
     30  C2D       86.8680   34.9180    6.2070 C.2   800  HEM800      0.0000
     31  C3D       88.0400   34.4300    5.6380 C.2   800  HEM800      0.0000
     32  C4D       88.5390   35.4790    4.7910 C.2   800  HEM800      0.0000
     33  CMD       85.9470   34.1800    7.1790 C.3   800  HEM800      0.0000
     34  CAD       88.6590   33.0570    5.8570 C.3   800  HEM800      0.0000
     35  CBD       89.6500   33.0310    7.0270 C.3   800  HEM800      0.0000
     36  CGD       90.2640   31.6370    7.2010 C.2   800  HEM800      0.0000
     37  O1D       90.6360   31.2860    8.3480 O.co2 800  HEM800      0.0000
     38  O2D       90.3950   30.9090    6.1750 O.co2 800  HEM800      0.0000
     39  NA        89.6140   37.7150    3.0670 N.ar  800  HEM800      0.0000
     40  NB        88.1880   40.2370    3.1280 N.2   800  HEM800      0.0000
     41  NC        86.1830   39.0960    4.9260 N.ar  800  HEM800      0.0000
     42  ND        87.6970   36.5440    4.8830 N.2   800  HEM800      0.0000
     43 FE         87.9440   38.4030    4.0590 Fe    800  HEM800      0.0000
@<TRIPOS>BOND
     1     9     7    1
     2    19    16    1
     3     7     8   ar
     4     7     6   ar
     5     2     8    2
     6     2    15    1
     7    16    15    1
     8    16    17    2
     9    10     6    1
    10    10    11    1
    11     8    39   ar
    12     6     5   ar
    13    15    40    2
    14    14    12   ar
    15    20    17    1
    16    20    21    2
    17    17    18    1
    18    12    11    1
    19    12    13   ar
    20    39     5   ar
    21    39    43    1
    22    40    18    1
    23    40    43    1
    24     5     1    2
    25    18     3    2
    26     1    32    1
    27    43    42    1
    28    43    41    1
    29     3    22    1
    30    32    42    2
    31    32    31    1
    32    22    41   ar
    33    22    23   ar
    34    42    29    1
    35    41    25   ar
    36    23    26    1
    37    23    24   ar
    38    31    34    1
    39    31    30    2
    40    25    24   ar
    41    25     4    1
    42    29     4    2
    43    29    30    1
    44    34    35    1
    45    24    27    1
    46    38    36   ar
    47    30    33    1
    48    27    28    2
    49    35    36    1
    50    36    37   ar
