@<TRIPOS>MOLECULE
1xmi_ATP_A_1.pdb
 31 33 0 0 0
SMALL
GASTEIGER

@<TRIPOS>ATOM
      1  PG        23.8700   21.3550  125.1530 P.3     2  ATP2        0.5373
      2  O1G       22.4310   21.0020  125.1240 O.2     2  ATP2       -0.2221
      3  O2G       24.0290   22.8260  125.5660 O.3     2  ATP2       -0.1143
      4  O3G       24.5890   20.4590  126.1760 O.3     2  ATP2       -0.1143
      5  PB        24.4060   22.0830  122.4340 P.3     2  ATP2        0.2277
      6  O1B       23.2540   21.7110  121.5910 O.2     2  ATP2       -0.5168
      7  O2B       24.3780   23.5560  122.8680 O.3     2  ATP2       -0.4368
      8  O3B       24.5010   21.0830  123.6980 O.3     2  ATP2       -0.2258
      9  PA        26.9650   22.6200  121.2490 P.3     2  ATP2        0.2189
     10  O1A       27.5520   23.2230  122.4630 O.3     2  ATP2       -0.4371
     11  O2A       26.5780   23.6670  120.1940 O.2     2  ATP2       -0.5170
     12  O3A       25.7220   21.6680  121.6080 O.3     2  ATP2       -0.2700
     13  O5'       28.0170   21.5480  120.6890 O.3     2  ATP2       -0.3112
     14  C5'       27.9710   21.0200  119.3830 C.3     2  ATP2        0.1813
     15  C4'       29.4080   20.7430  118.9700 C.3     2  ATP2        0.1821
     16  O4'       30.0910   21.9770  118.8940 O.3     2  ATP2       -0.3135
     17  C3'       30.1550   19.8860  119.9880 C.3     2  ATP2        0.2184
     18  O3'       30.8840   18.8990  119.2950 O.3     2  ATP2       -0.2174
     19  C2'       31.0810   20.8620  120.6950 C.3     2  ATP2        0.2570
     20  O2'       32.2940   20.2560  121.0660 O.3     2  ATP2       -0.2130
     21  C1'       31.2850   21.9470  119.6470 C.3     2  ATP2        0.3186
     22  N9        31.5370   23.2900  120.2020 N.pl3   2  ATP2       -0.1439
     23  C8        30.7080   24.0240  121.0090 C.3     2  ATP2        0.3377
     24  N7        31.3150   25.2050  121.2780 N.2     2  ATP2       -0.2095
     25  C5        32.5110   25.2420  120.6490 C.2     2  ATP2        0.2526
     26  C6        33.5210   26.1990  120.5870 C.2     2  ATP2        0.4393
     27  N6        33.4570   27.3070  121.3210 N.pl3   2  ATP2        0.2180
     28  N1        34.6560   25.9440  119.8450 N.2     2  ATP2        0.0021
     29  C2        34.7950   24.7470  119.1720 C.3     2  ATP2        0.5254
     30  N3        33.7910   23.7980  119.2420 N.2     2  ATP2       -0.0055
     31  C4        32.6650   24.0410  119.9670 C.2     2  ATP2        0.3518
@<TRIPOS>BOND
     1    16    15    1
     2    16    21    1
     3    15    14    1
     4    15    17    1
     5    29    30    1
     6    29    28    1
     7    30    31    2
     8    18    17    1
     9    14    13    1
    10    21    22    1
    11    21    19    1
    12    28    26    2
    13    31    22    1
    14    31    25    1
    15    17    19    1
    16    11     9    2
    17    22    23    1
    18    26    25    1
    19    26    27    1
    20    25    24    2
    21    13     9    1
    22    19    20    1
    23    23    24    1
    24     9    12    1
    25     9    10    1
    26     6     5    2
    27    12     5    1
    28     5     7    1
    29     5     8    1
    30     8     1    1
    31     2     1    2
    32     1     3    1
    33     1     4    1
