@<TRIPOS>MOLECULE
1xmj_ATP_A_1.pdb
 31 33 0 0 0
SMALL
GASTEIGER

@<TRIPOS>ATOM
      1  PG        55.0110   34.2260   47.9210 P.3     1  ATP1        0.5373
      2  O1G       55.9450   34.2600   46.7760 O.2     1  ATP1       -0.2221
      3  O2G       55.1140   32.8720   48.6470 O.3     1  ATP1       -0.1143
      4  O3G       55.3380   35.3900   48.8680 O.3     1  ATP1       -0.1143
      5  PB        52.9440   33.9160   46.0070 P.3     1  ATP1        0.2277
      6  O1B       53.3500   34.7540   44.8550 O.2     1  ATP1       -0.5168
      7  O2B       53.2330   32.4290   45.7660 O.3     1  ATP1       -0.4368
      8  O3B       53.5130   34.4610   47.4040 O.3     1  ATP1       -0.2258
      9  PA        50.2750   33.1050   46.7090 P.3     1  ATP1        0.2189
     10  O1A       50.7730   32.0820   47.6480 O.3     1  ATP1       -0.4371
     11  O2A       49.6330   32.5080   45.4500 O.2     1  ATP1       -0.5170
     12  O3A       51.3840   34.1940   46.2780 O.3     1  ATP1       -0.2700
     13  O5'       49.2160   34.0520   47.4780 O.3     1  ATP1       -0.3112
     14  C5'       48.4750   35.0250   46.7650 C.3     1  ATP1        0.1813
     15  C4'       47.2610   35.4450   47.5850 C.3     1  ATP1        0.1821
     16  O4'       46.3450   34.3690   47.6560 O.3     1  ATP1       -0.3135
     17  C3'       47.6720   35.8020   49.0060 C.3     1  ATP1        0.2184
     18  O3'       47.1720   37.0730   49.3520 O.3     1  ATP1       -0.2174
     19  C2'       47.1020   34.6960   49.8790 C.3     1  ATP1        0.2570
     20  O2'       46.5270   35.2220   51.0500 O.3     1  ATP1       -0.2130
     21  C1'       46.0680   34.0030   48.9980 C.3     1  ATP1        0.3186
     22  N9        46.0900   32.5290   49.1320 N.pl3   1  ATP1       -0.1439
     23  C8        47.1290   31.6890   48.8170 C.3     1  ATP1        0.3377
     24  N7        46.7530   30.4120   49.0670 N.2     1  ATP1       -0.2095
     25  C5        45.4830   30.4160   49.5330 C.2     1  ATP1        0.2526
     26  C6        44.6210   29.3950   49.9380 C.2     1  ATP1        0.4393
     27  N6        45.0020   28.1240   49.8720 N.pl3   1  ATP1        0.2180
     28  N1        43.3480   29.7000   50.3790 N.2     1  ATP1        0.0021
     29  C2        42.9350   31.0200   50.4150 C.3     1  ATP1        0.5254
     30  N3        43.7910   32.0290   50.0090 N.2     1  ATP1       -0.0055
     31  C4        45.0500   31.7400   49.5750 C.2     1  ATP1        0.3518
@<TRIPOS>BOND
     1     6     5    2
     2    11     9    2
     3     7     5    1
     4     5    12    1
     5     5     8    1
     6    12     9    1
     7     9    13    1
     8     9    10    1
     9    14    13    1
    10    14    15    1
    11     2     1    2
    12     8     1    1
    13    15    16    1
    14    15    17    1
    15    16    21    1
    16     1     3    1
    17     1     4    1
    18    23    24    1
    19    23    22    1
    20    21    22    1
    21    21    19    1
    22    17    18    1
    23    17    19    1
    24    24    25    2
    25    22    31    1
    26    25    31    1
    27    25    26    1
    28    31    30    2
    29    27    26    1
    30    19    20    1
    31    26    28    2
    32    30    29    1
    33    28    29    1
