@<TRIPOS>MOLECULE
1xmm_G7M_B_1.pdb
 25 27 0 0 0
SMALL
GASTEIGER

@<TRIPOS>ATOM
      1  OP3       45.8470    9.4240   38.0920 O.3   1502  G7M1502    -0.1145
      2  P         45.4590   10.7560   37.3170 P.3   1502  G7M1502     0.5327
      3  OP1       44.0460   11.2540   37.8520 O.3   1502  G7M1502    -0.1145
      4  OP2       45.4000   10.4750   35.7490 O.2   1502  G7M1502    -0.2224
      5  O5'       46.5680   11.8900   37.6100 O.3   1502  G7M1502    -0.2675
      6  C5'       46.2000   13.2570   37.7870 C.3   1502  G7M1502     0.1859
      7  C4'       47.4130   14.1860   37.7080 C.3   1502  G7M1502     0.1801
      8  O4'       48.2240   13.9700   38.8560 O.3   1502  G7M1502    -0.3326
      9  C3'       48.2810   13.9560   36.4760 C.3   1502  G7M1502     0.2158
     10  O3'       48.4230   15.1800   35.7740 O.3   1502  G7M1502    -0.2175
     11  C2'       49.6450   13.5390   36.9610 C.3   1502  G7M1502     0.2310
     12  O2'       50.6680   14.3670   36.4280 O.3   1502  G7M1502    -0.2158
     13  C1'       49.5510   13.6180   38.4800 C.3   1502  G7M1502     0.2287
     14  N9        49.9520   12.3480   39.1150 N.pl3 1502  G7M1502    -0.2454
     15  C8        49.2180   11.2730   39.5030 C.3   1502  G7M1502     0.1735
     16  N7        49.9970   10.3040   40.0610 N.3   1502  G7M1502    -0.2343
     17  CN7       49.5350    8.9950   40.5880 C.3   1502  G7M1502     0.0924
     18  C5        51.2510   10.7530   40.0420 C.3   1502  G7M1502     0.2475
     19  C6        52.6210   10.3460   40.4330 C.1   1502  G7M1502     0.2145
     20  O6        52.8350    9.1480   40.7250 O.2   1502  G7M1502    -0.2115
     21  N1        53.6540   11.1920   40.2050 N.2   1502  G7M1502    -0.2526
     22  C2        53.5350   12.4140   39.6330 C.1   1502  G7M1502     0.2525
     23  N2        54.6220   13.1990   39.4360 N.pl3 1502  G7M1502    -0.0226
     24  N3        52.3410   12.8890   39.2310 N.2   1502  G7M1502    -0.3118
     25  C4        51.1860   12.0600   39.4330 C.2   1502  G7M1502     0.2086
@<TRIPOS>BOND
     1     4     2    2
     2    10     9    1
     3    12    11    1
     4     9    11    1
     5     9     7    1
     6    11    13    1
     7     2     5    1
     8     2     3    1
     9     2     1    1
    10     5     6    1
    11     7     6    1
    12     7     8    1
    13    13     8    1
    14    13    14    1
    15    14    25    1
    16    14    15    1
    17    24    25    2
    18    24    22    2
    19    25    18    1
    20    23    22    1
    21    15    16    1
    22    22    21    2
    23    18    16    1
    24    18    19    1
    25    16    17    1
    26    21    19    2
    27    19    20    2
