@<TRIPOS>MOLECULE
1xmm_M7G_A_1.pdb
 29 31 0 0 0
SMALL
GASTEIGER

@<TRIPOS>ATOM
      1  PA        38.0490   39.5820   19.6620 P.3   401  M7G401      0.2231
      2  O1A       38.0360   41.1380   19.4080 O.2   401  M7G401     -0.5169
      3  O2A       37.5400   39.4290   21.1480 O.3   401  M7G401     -0.4370
      4  O3A       39.4840   38.7780   19.3180 O.3   401  M7G401     -0.2261
      5  O5'       36.8620   38.9070   18.8130 O.3   401  M7G401     -0.3111
      6  PB        39.9870   37.6990   18.1150 P.3   401  M7G401      0.5373
      7  O1B       39.1060   36.3870   18.0860 O.3   401  M7G401     -0.1143
      8  O2B       41.4820   37.1510   18.1460 O.3   401  M7G401     -0.1143
      9  O3B       39.9610   38.3760   16.6830 O.2   401  M7G401     -0.2221
     10  C5'       36.5290   39.2070   17.4620 C.3   401  M7G401      0.1813
     11  C4'       35.7290   38.0230   16.9290 C.3   401  M7G401      0.1799
     12  O4'       34.8100   38.4560   15.9350 O.3   401  M7G401     -0.3326
     13  C3'       36.6110   36.9470   16.3020 C.3   401  M7G401      0.2158
     14  O3'       36.3530   35.7280   16.9780 O.3   401  M7G401     -0.2175
     15  C2'       36.2090   36.8040   14.8500 C.3   401  M7G401      0.2310
     16  O2'       35.9640   35.4680   14.4560 O.3   401  M7G401     -0.2158
     17  C1'       34.9890   37.7030   14.7370 C.3   401  M7G401      0.2287
     18  N9        34.9300   38.4910   13.5420 N.pl3 401  M7G401     -0.2454
     19  C8        35.9910   39.3360   13.0190 C.3   401  M7G401      0.1735
     20  N7        35.3410   39.9040   11.8340 N.3   401  M7G401     -0.2343
     21  CM7       35.9890   40.8300   10.9400 C.3   401  M7G401      0.0924
     22  C5        34.0350   39.4370   11.6980 C.3   401  M7G401      0.2475
     23  C6        32.9330   39.6510   10.7420 C.1   401  M7G401      0.2145
     24  O6        33.0350   40.4030    9.7650 O.2   401  M7G401     -0.2115
     25  N1        31.7880   38.9950   10.9840 N.2   401  M7G401     -0.2526
     26  C2        31.6150   38.1670   12.0420 C.1   401  M7G401      0.2525
     27  N2        30.4360   37.5300   12.2230 N.pl3 401  M7G401     -0.0226
     28  N3        32.5930   37.9360   12.9510 N.2   401  M7G401     -0.3118
     29  C4        33.7770   38.5500   12.7910 C.2   401  M7G401      0.2086
@<TRIPOS>BOND
     1    24    23    2
     2    23    25    2
     3    23    22    1
     4    21    20    1
     5    25    26    2
     6    22    20    1
     7    22    29    1
     8    20    19    1
     9    26    27    1
    10    26    28    2
    11    29    28    2
    12    29    18    1
    13    19    18    1
    14    18    17    1
    15    16    15    1
    16    17    15    1
    17    17    12    1
    18    15    13    1
    19    12    11    1
    20    13    11    1
    21    13    14    1
    22     9     6    2
    23    11    10    1
    24    10     5    1
    25     7     6    1
    26     6     8    1
    27     6     4    1
    28     5     1    1
    29     4     1    1
    30     2     1    2
    31     1     3    1
