@<TRIPOS>MOLECULE
1xmn_SGN_B_1.pdb
 19 19 0 0 0
SMALL
GASTEIGER

@<TRIPOS>ATOM
      1  C1        54.8320  -20.8310   15.9350 C.3     6  SGN6        0.2893
      2  C2        55.2350  -19.5430   15.1500 C.3     6  SGN6        0.1832
      3  C3        56.7650  -19.3480   15.2690 C.3     6  SGN6        0.1772
      4  C4        57.1040  -19.1640   16.7610 C.3     6  SGN6        0.0669
      5  C5        56.6570  -20.4440   17.5400 C.3     6  SGN6        0.1524
      6  C6        56.8830  -20.3880   19.0750 C.3     6  SGN6        0.2020
      7  N         54.8100  -19.7060   13.7510 N.3     6  SGN6       -0.1129
      8  O1        55.4060  -22.0010   15.3540 O.3     6  SGN6       -0.1882
      9  O3        57.1590  -18.1850   14.5710 O.3     6  SGN6       -0.2213
     10  O5        55.2440  -20.7150   17.3080 O.3     6  SGN6       -0.3271
     11  O6        56.8360  -19.0290   19.5130 O.3     6  SGN6       -0.2385
     12  S1        54.4220  -18.4000   12.8350 S.3     6  SGN6       -0.1288
     13  O1S       54.1550  -17.2840   13.6950 O.3     6  SGN6       -0.2918
     14  O2S       55.5480  -18.1880   11.9700 O.3     6  SGN6       -0.2918
     15  O3S       53.2500  -18.8070   12.1130 O.3     6  SGN6       -0.2918
     16  S2        57.6270  -18.3260   20.6840 S.3     6  SGN6       -0.0001
     17  O4S       58.6160  -17.4760   20.0890 O.2     6  SGN6       -0.3452
     18  O5S       56.6350  -17.5810   21.4010 O.2     6  SGN6       -0.3452
     19  O6S       58.1950  -19.3720   21.4870 O.3     6  SGN6       -0.2682
@<TRIPOS>BOND
     1    14    12    1
     2    15    12    1
     3    12    13    1
     4    12     7    1
     5     7     2    1
     6     9     3    1
     7     2     3    1
     8     2     1    1
     9     3     4    1
    10     8     1    1
    11     1    10    1
    12     4     5    1
    13    10     5    1
    14     5     6    1
    15     6    11    1
    16    11    16    1
    17    17    16    2
    18    16    18    2
    19    16    19    1
