@<TRIPOS>MOLECULE
1xmn_IDS_B_1.pdb
 16 16 0 0 0
SMALL
GASTEIGER

@<TRIPOS>ATOM
      1  C1        66.3800  -13.6430   14.6200 C.3     3  IDS3        0.3017
      2  C2        66.0060  -12.3560   13.8400 C.3     3  IDS3        0.2322
      3  C3        65.8450  -11.1050   14.7350 C.3     3  IDS3        0.1895
      4  C4        67.0180  -10.9680   15.7340 C.3     3  IDS3        0.0770
      5  C5        67.2190  -12.3120   16.4870 C.3     3  IDS3        0.2228
      6  C6        68.3570  -12.3050   17.5060 C.2     3  IDS3        0.3915
      7  O1        65.2290  -14.1320   15.2550 O.3     3  IDS3       -0.1870
      8  O2        67.0340  -12.1060   12.9090 O.3     3  IDS3       -0.2357
      9  O3        64.6350  -11.2090   15.4670 O.3     3  IDS3       -0.2202
     10  O5        67.4450  -13.3700   15.5350 O.3     3  IDS3       -0.3174
     11  O61       69.5150  -12.4150   17.1620 O.co2   3  IDS3       -0.2430
     12  O62       68.1270  -12.1860   18.6870 O.co2   3  IDS3       -0.2430
     13  S         67.0230  -12.3680   11.3750 S.3     3  IDS3        0.0000
     14  O1S       66.1600  -11.3730   10.8130 O.2     3  IDS3       -0.3452
     15  O2S       68.3930  -12.2250   10.9620 O.2     3  IDS3       -0.3452
     16  O3S       66.5310  -13.7070   11.1990 O.3     3  IDS3       -0.2682
@<TRIPOS>BOND
     1    14    13    2
     2    15    13    2
     3    16    13    1
     4    13     8    1
     5     8     2    1
     6     2     1    1
     7     2     3    1
     8     1     7    1
     9     1    10    1
    10     3     9    1
    11     3     4    1
    12    10     5    1
    13     4     5    1
    14     5     6    1
    15    11     6   ar
    16     6    12   ar
