@<TRIPOS>MOLECULE
1xmn_0G6_B_1.pdb
 30 31 0 0 0
SMALL
GASTEIGER

@<TRIPOS>ATOM
      1  N         45.9990    3.2420   24.6590 N.3     1  0G61       -0.1228
      2  CA        45.8900    1.7890   24.6870 C.3     1  0G61        0.1721
      3  C         45.8820    1.3790   23.2180 C.2     1  0G61        0.2437
      4  O         46.7810    1.9000   22.5100 O.2     1  0G61       -0.2733
      5  CB        47.0790    1.1470   25.4560 C.3     1  0G61        0.0547
      6  CG        47.0440   -0.3840   25.5190 C.ar    1  0G61       -0.0202
      7  CD1       46.0230   -1.0560   26.2330 C.ar    1  0G61       -0.0042
      8  CD2       48.0470   -1.1100   24.8500 C.ar    1  0G61       -0.0042
      9  CE1       46.0190   -2.4730   26.2680 C.ar    1  0G61       -0.0003
     10  CE2       48.0370   -2.5240   24.8920 C.ar    1  0G61       -0.0003
     11  CZ        47.0280   -3.2110   25.5970 C.ar    1  0G61       -0.0000
     12  N1        44.9680    0.4890   22.6950 N.am    1  0G61       -0.2718
     13  CA1       45.0010    0.0830   21.2840 C.3     1  0G61        0.1535
     14  C1        44.6330    1.2630   20.3720 C.2     1  0G61        0.2595
     15  O1        43.7580    2.0470   20.7420 O.2     1  0G61       -0.2716
     16  CB1       44.0760   -1.0850   21.2110 C.3     1  0G61        0.0310
     17  CG1       43.5620   -1.3490   22.6130 C.3     1  0G61        0.0237
     18  CD        43.8230   -0.1110   23.4100 C.3     1  0G61        0.0939
     19  N2        45.2750    1.4170   19.2030 N.am    1  0G61       -0.2032
     20  CA2       44.8790    2.3740   18.1940 C.3     1  0G61        0.1257
     21  C2        44.2380    1.6190   16.9530 C.3     1  0G61        0.1718
     22  O2        43.4300    2.6100   16.3190 O.3     1  0G61       -0.2213
     23  CB2       46.0700    3.2240   17.7850 C.3     1  0G61        0.0280
     24  CG2       46.7140    4.0580   18.8900 C.3     1  0G61        0.0488
     25  CD3       48.0100    4.6810   18.3900 C.3     1  0G61        0.2205
     26  NE        48.6010    5.5500   19.4090 N.pl3   1  0G61       -0.0865
     27  CZ1       49.7490    6.2450   19.2910 C.cat   1  0G61        0.5346
     28  NH1       50.4990    6.1900   18.1890 N.pl3   1  0G61        0.1354
     29  NH2       50.1260    7.0140   20.3120 N.pl3   1  0G61        0.1354
     30  C3        43.2600    0.4340   17.2240 C.3     1  0G61        0.0373
@<TRIPOS>BOND
     1    22    21    1
     2    21    30    1
     3    21    20    1
     4    23    20    1
     5    23    24    1
     6    28    27    1
     7    20    19    1
     8    25    24    1
     9    25    26    1
    10    19    14   am
    11    27    26    2
    12    27    29    1
    13    14    15    2
    14    14    13    1
    15    16    13    1
    16    16    17    1
    17    13    12    1
    18     4     3    2
    19    17    18    1
    20    12     3   am
    21    12    18    1
    22     3     2    1
    23     1     2    1
    24     2     5    1
    25     8    10   ar
    26     8     6   ar
    27    10    11   ar
    28     5     6    1
    29     6     7   ar
    30    11     9   ar
    31     7     9   ar
