@<TRIPOS>MOLECULE
1xms_ANP_A_1.pdb
 31 33 0 0 0
SMALL
GASTEIGER

@<TRIPOS>ATOM
      1  PG        20.8340    7.8590    7.9310 P.3   400  ANP400      0.4884
      2  O1G       20.4570    7.5950    6.5820 O.2   400  ANP400     -0.2331
      3  O2G       20.4890    6.7580    8.8680 O.3   400  ANP400     -0.1240
      4  O3G       20.1770    9.0810    8.3230 O.3   400  ANP400     -0.1240
      5  PB        23.6680    6.8710    8.1300 P.3   400  ANP400      0.4669
      6  O1B       23.2030    5.6090    7.5150 O.3   400  ANP400     -0.1253
      7  O2B       24.7190    7.5820    7.4310 O.2   400  ANP400     -0.2351
      8  N3B       22.4560    7.8460    8.2830 N.3   400  ANP400     -0.0163
      9  PA        25.3810    7.5630   10.3570 P.3   400  ANP400      0.2220
     10  O1A       26.7900    7.6380    9.7440 O.2   400  ANP400     -0.5170
     11  O2A       24.8820    8.9540   10.3720 O.3   400  ANP400     -0.4370
     12  O3A       24.4650    6.5630    9.4760 O.3   400  ANP400     -0.2360
     13  O5'       25.6960    6.8740   11.8290 O.3   400  ANP400     -0.3111
     14  C5'       26.9570    6.0770   12.2090 C.3   400  ANP400      0.1813
     15  C4'       27.2310    6.2270   13.5110 C.3   400  ANP400      0.1821
     16  O4'       27.5750    7.6460   13.3780 O.3   400  ANP400     -0.3135
     17  C3'       26.0150    6.3300   14.5050 C.3   400  ANP400      0.2184
     18  O3'       25.3390    5.2430   15.0120 O.3   400  ANP400     -0.2174
     19  C2'       26.6250    7.4310   15.4790 C.3   400  ANP400      0.2570
     20  O2'       27.3650    6.6310   16.5470 O.3   400  ANP400     -0.2130
     21  C1'       27.6020    8.2510   14.6600 C.3   400  ANP400      0.3186
     22  N9        27.2520    9.5480   14.5840 N.pl3 400  ANP400     -0.1439
     23  C8        26.6000   10.2340   13.5560 C.3   400  ANP400      0.3377
     24  N7        26.3690   11.4790   13.7150 N.2   400  ANP400     -0.2095
     25  C5        26.8910   11.6900   14.9360 C.2   400  ANP400      0.2526
     26  C6        26.9420   12.8750   15.6680 C.2   400  ANP400      0.4393
     27  N6        26.4850   14.1090   15.3450 N.pl3 400  ANP400      0.2180
     28  N1        27.5560   12.8250   16.9490 N.2   400  ANP400      0.0021
     29  C2        28.0800   11.6010   17.4200 C.3   400  ANP400      0.5254
     30  N3        28.0810   10.4060   16.7940 N.2   400  ANP400     -0.0055
     31  C4        27.4490   10.5260   15.5120 C.2   400  ANP400      0.3518
@<TRIPOS>BOND
     1     2     1    2
     2     7     5    2
     3     6     5    1
     4     1     8    1
     5     1     4    1
     6     1     3    1
     7     5     8    1
     8     5    12    1
     9    12     9    1
    10    10     9    2
    11     9    11    1
    12     9    13    1
    13    13    14    1
    14    14    15    1
    15    16    15    1
    16    16    21    1
    17    15    17    1
    18    23    24    1
    19    23    22    1
    20    24    25    2
    21    17    18    1
    22    17    19    1
    23    22    21    1
    24    22    31    1
    25    21    19    1
    26    25    31    1
    27    25    26    1
    28    27    26    1
    29    19    20    1
    30    31    30    2
    31    26    28    2
    32    30    29    1
    33    28    29    1
