@<TRIPOS>MOLECULE
1xmu_ROF_A_1.pdb
 26 28 0 0 0
SMALL
GASTEIGER

@<TRIPOS>ATOM
      1  O24        4.4280    0.3650   41.8850 O.2   101  ROF101     -0.2680
      2  C23        2.3910   -0.5140   35.5470 C.3   101  ROF101      0.0038
      3  C22        1.0160    0.1900   35.6830 C.3   101  ROF101      0.0038
      4  C21        1.4290   -0.8940   36.6280 C.3   101  ROF101      0.0438
      5  C8         3.5200    0.7620   42.5870 C.2   101  ROF101      0.2691
      6  C9         2.1230    0.7120   42.0010 C.ar  101  ROF101      0.0586
      7  C10        0.9830    1.0520   42.7430 C.ar  101  ROF101      0.0079
      8  C11       -0.2920    1.0000   42.1920 C.ar  101  ROF101      0.0404
      9  C12       -0.4750    0.5980   40.8680 C.ar  101  ROF101      0.1779
     10  O15       -1.7080    0.5380   40.2430 O.3   101  ROF101     -0.4205
     11  C16       -2.9620    0.7270   40.8870 C.3   101  ROF101      0.5087
     12  F18       -3.0240   -0.1500   41.9380 F     101  ROF101     -0.1550
     13  F17       -3.0500    2.0240   41.3060 F     101  ROF101     -0.1550
     14  C13        0.7300    0.2320   40.0710 C.ar  101  ROF101      0.1725
     15  O19        0.5840   -0.1420   38.7530 O.3   101  ROF101     -0.4724
     16  C20        1.4790   -1.0570   38.1150 C.3   101  ROF101      0.2054
     17  C14        1.9840    0.3080   40.6860 C.ar  101  ROF101      0.0446
     18  N7         3.7290    1.2440   43.8220 N.am  101  ROF101     -0.1736
     19  C6         4.9740    1.3930   44.3390 C.ar  101  ROF101      0.0977
     20  C5         6.0470    2.2670   43.7880 C.ar  101  ROF101      0.0929
     21 CL26        5.7890    3.2470   42.4060 Cl    101  ROF101     -0.0792
     22  C4         7.2800    2.3210   44.4270 C.ar  101  ROF101      0.1116
     23  N3         7.5270    1.6060   45.5450 N.ar  101  ROF101     -0.2405
     24  C2         6.6240    0.7910   46.1170 C.ar  101  ROF101      0.1116
     25  C1         5.3540    0.6450   45.5710 C.ar  101  ROF101      0.0929
     26 CL25        4.2390   -0.4060   46.3360 Cl    101  ROF101     -0.0792
@<TRIPOS>BOND
     1     2     3    1
     2     2     4    1
     3     3     4    1
     4     4    16    1
     5    16    15    1
     6    15    14    1
     7    14    17   ar
     8    14     9   ar
     9    10     9    1
    10    10    11    1
    11    17     6   ar
    12     9     8   ar
    13    11    13    1
    14    11    12    1
    15     1     5    2
    16     6     5    1
    17     6     7   ar
    18     8     7   ar
    19    21    20    1
    20     5    18   am
    21    20    19   ar
    22    20    22   ar
    23    18    19    1
    24    19    25   ar
    25    22    23   ar
    26    23    24   ar
    27    25    24   ar
    28    25    26    1
