@<TRIPOS>MOLECULE
1xmv_ADP_A_1.pdb
 27 29 0 0 0
SMALL
GASTEIGER

@<TRIPOS>ATOM
      1  PB        23.8020    6.8150    8.6530 P.3   400  ADP400      0.5373
      2  O1B       22.4020    6.9600    9.1080 O.3   400  ADP400     -0.1143
      3  O2B       24.0450    5.5450    7.8930 O.2   400  ADP400     -0.2221
      4  O3B       24.2510    8.1160    7.9080 O.3   400  ADP400     -0.1143
      5  PA        25.6660    7.6600   10.7040 P.3   400  ADP400      0.2231
      6  O1A       24.9950    8.9940   10.8660 O.3   400  ADP400     -0.4370
      7  O2A       26.9890    7.6690    9.9850 O.2   400  ADP400     -0.5169
      8  O3A       24.6120    6.7080   10.0220 O.3   400  ADP400     -0.2261
      9  O5'       25.7090    7.1270   12.1840 O.3   400  ADP400     -0.3111
     10  C5'       26.3070    5.8470   12.5350 C.3   400  ADP400      0.1813
     11  C4'       26.9420    5.9200   13.9250 C.3   400  ADP400      0.1821
     12  O4'       27.8280    7.0820   13.9270 O.3   400  ADP400     -0.3135
     13  C3'       25.9710    6.2140   15.0810 C.3   400  ADP400      0.2184
     14  O3'       25.3920    4.9720   15.5280 O.3   400  ADP400     -0.2174
     15  C2'       26.8800    6.9500   16.0730 C.3   400  ADP400      0.2570
     16  O2'       27.6460    6.0690   16.9130 O.3   400  ADP400     -0.2130
     17  C1'       27.8300    7.7720   15.1820 C.3   400  ADP400      0.3186
     18  N9        27.2990    9.1860   14.9830 N.pl3 400  ADP400     -0.1439
     19  C8        26.6150    9.6700   13.9050 C.3   400  ADP400      0.3377
     20  N7        26.2760   10.9610   14.0210 N.2   400  ADP400     -0.2095
     21  C5        26.7690   11.3170   15.2300 C.2   400  ADP400      0.2526
     22  C6        26.7300   12.5820   15.9330 C.2   400  ADP400      0.4393
     23  N6        26.1850   13.6660   15.5070 N.pl3 400  ADP400      0.2180
     24  N1        27.3560   12.5580   17.1730 N.2   400  ADP400      0.0021
     25  C2        27.9680   11.4240   17.7030 C.3   400  ADP400      0.5254
     26  N3        28.0110   10.2460   17.0650 N.2   400  ADP400     -0.0055
     27  C4        27.4090   10.2370   15.8500 C.2   400  ADP400      0.3518
@<TRIPOS>BOND
     1     3     1    2
     2     4     1    1
     3     1     2    1
     4     1     8    1
     5     7     5    2
     6     8     5    1
     7     5     6    1
     8     5     9    1
     9     9    10    1
    10    10    11    1
    11    19    20    1
    12    19    18    1
    13    11    12    1
    14    11    13    1
    15    12    17    1
    16    20    21    2
    17    18    17    1
    18    18    27    1
    19    13    14    1
    20    13    15    1
    21    17    15    1
    22    21    27    1
    23    21    22    1
    24    23    22    1
    25    27    26    2
    26    22    24    2
    27    15    16    1
    28    26    25    1
    29    24    25    1
