@<TRIPOS>MOLECULE
1xmy_ROL_A_1.pdb
 20 22 0 0 0
SMALL
GASTEIGER

@<TRIPOS>ATOM
      1  C5        42.7690    1.9210   61.6930 C.ar  101  ROL101     -0.0162
      2  C6        42.8690    1.6580   63.0710 C.ar  101  ROL101      0.0359
      3  C7        44.1190    1.4740   63.7140 C.ar  101  ROL101      0.1717
      4  C8        45.2880    1.5110   62.9460 C.ar  101  ROL101      0.1724
      5  C9        45.1830    1.7440   61.5780 C.ar  101  ROL101      0.0397
      6  C10       43.9520    1.9370   60.9670 C.ar  101  ROL101     -0.0009
      7  C3        41.4730    2.1000   60.8260 C.3   101  ROL101      0.0642
      8  C2        40.4790    1.0970   61.4040 C.3   101  ROL101      0.1280
      9  C1        39.7570    2.0300   62.2930 C.1   101  ROL101      0.1264
     10  O1        38.9610    1.6460   63.1230 O.2   101  ROL101     -0.2270
     11  N1        40.1640    3.2950   62.0950 N.2   101  ROL101     -0.2059
     12  C4        40.9230    3.5040   60.8930 C.3   101  ROL101      0.1429
     13  O3        44.2790    1.2380   65.1040 O.3   101  ROL101     -0.4761
     14  C11       43.1130    1.3130   65.9190 C.3   101  ROL101      0.1660
     15  C15       42.5890   -0.0590   66.3550 C.3   101  ROL101      0.0435
     16  C14       42.6170    0.0890   67.9000 C.3   101  ROL101      0.0038
     17  C13       43.9760    0.7200   68.1660 C.3   101  ROL101      0.0038
     18  C12       43.9160    1.8620   67.1350 C.3   101  ROL101      0.0435
     19  O2        46.5620    1.3250   63.5180 O.3   101  ROL101     -0.4684
     20  C16       47.7590    1.9950   63.0260 C.3   101  ROL101      0.2526
@<TRIPOS>BOND
     1     7    12    1
     2     7     8    1
     3     7     1    1
     4    12    11    1
     5     6     5   ar
     6     6     1   ar
     7     8     9    1
     8     5     4   ar
     9     1     2   ar
    10    11     9    2
    11     9    10    2
    12     4    19    1
    13     4     3   ar
    14    20    19    1
    15     2     3   ar
    16     3    13    1
    17    13    14    1
    18    14    15    1
    19    14    18    1
    20    15    16    1
    21    18    17    1
    22    16    17    1
