@<TRIPOS>MOLECULE
1xn0_ROL_A_1.pdb
 20 22 0 0 0
SMALL
GASTEIGER

@<TRIPOS>ATOM
      1  C5         2.0360    2.0080   -8.4080 C.ar  1003  ROL1003    -0.0162
      2  C6         1.9810    1.7080   -9.7740 C.ar  1003  ROL1003     0.0359
      3  C7         0.7420    1.6530  -10.4530 C.ar  1003  ROL1003     0.1717
      4  C8        -0.4540    1.9000   -9.7610 C.ar  1003  ROL1003     0.1724
      5  C9        -0.3980    2.1990   -8.4010 C.ar  1003  ROL1003     0.0397
      6  C10        0.8330    2.2510   -7.7370 C.ar  1003  ROL1003    -0.0009
      7  C3         3.3570    2.0860   -7.6230 C.3   1003  ROL1003     0.0642
      8  C2         3.8900    3.4670   -7.6060 C.3   1003  ROL1003     0.1280
      9  C1         4.7820    3.4790   -8.8130 C.1   1003  ROL1003     0.1264
     10  O1         5.4350    4.4550   -9.1140 O.2   1003  ROL1003    -0.2270
     11  N1         5.0870    2.2080   -9.1200 N.2   1003  ROL1003    -0.2059
     12  C4         4.5170    1.2500   -8.1990 C.3   1003  ROL1003     0.1429
     13  O3         0.6660    1.3550  -11.8140 O.3   1003  ROL1003    -0.4761
     14  C11        1.9460    1.3530  -12.5160 C.3   1003  ROL1003     0.1660
     15  C15        2.3830   -0.0700  -12.8790 C.3   1003  ROL1003     0.0435
     16  C14        1.2550   -0.4810  -13.8590 C.3   1003  ROL1003     0.0038
     17  C13        0.9090    0.8220  -14.6110 C.3   1003  ROL1003     0.0038
     18  C12        1.3500    1.9260  -13.6350 C.3   1003  ROL1003     0.0435
     19  O2        -1.6640    1.8410  -10.4500 O.3   1003  ROL1003    -0.4684
     20  C16       -2.9050    2.4230   -9.9950 C.3   1003  ROL1003     0.2526
@<TRIPOS>BOND
     1    17    16    1
     2    17    18    1
     3    16    15    1
     4    18    14    1
     5    15    14    1
     6    14    13    1
     7    13     3    1
     8     3     2   ar
     9     3     4   ar
    10    19    20    1
    11    19     4    1
    12     2     1   ar
    13     4     5   ar
    14    11     9    2
    15    11    12    1
    16    10     9    2
    17     9     8    1
    18     1     6   ar
    19     1     7    1
    20     5     6   ar
    21    12     7    1
    22     7     8    1
