@<TRIPOS>MOLECULE
1xng_DND_A_1.pdb
 44 48 0 0 0
SMALL
GASTEIGER

@<TRIPOS>ATOM
      1  PN       -10.7210    6.2880  -13.3730 P.3   301  DND301      0.2189
      2  O11      -10.5680    4.8040  -13.4020 O.3   301  DND301     -0.4371
      3  O12      -11.4020    6.7840  -14.6690 O.2   301  DND301     -0.5170
      4  O3P      -11.5470    6.6490  -12.1170 O.3   301  DND301     -0.2703
      5  O5D       -9.3690    7.0900  -12.9790 O.3   301  DND301     -0.3112
      6  C5D       -9.4250    8.4850  -13.3230 C.3   301  DND301      0.1813
      7  C4D       -8.3600    8.5500  -14.4170 C.3   301  DND301      0.1799
      8  O4D       -8.1980    9.8930  -14.9790 O.3   301  DND301     -0.3327
      9  C3D       -6.9130    8.1490  -14.1610 C.3   301  DND301      0.2158
     10  O3D       -5.9600    7.7840  -15.1790 O.3   301  DND301     -0.2175
     11  C2D       -6.3280    9.3180  -13.4510 C.3   301  DND301      0.2309
     12  O2D       -4.9560    9.5370  -13.0570 O.3   301  DND301     -0.2158
     13  C1D       -7.1720   10.3770  -14.0890 C.3   301  DND301      0.2263
     14  N1N       -6.9620   11.7720  -13.7840 N.pl3 301  DND301     -0.2787
     15  C6N       -7.4090   12.0730  -12.4690 C.3   301  DND301      0.1195
     16  C5N       -7.3210   13.3720  -11.9470 C.2   301  DND301     -0.0044
     17  C4N       -6.7720   14.3500  -12.7800 C.2   301  DND301      0.0050
     18  C3N       -6.3250   14.0480  -14.1020 C.2   301  DND301      0.0940
     19  C2N       -6.3960   12.7260  -14.6690 C.2   301  DND301      0.0699
     20  C7N       -5.7630   15.2400  -14.8740 C.2   301  DND301      0.3890
     21  O7N       -5.3480   15.0260  -16.0550 O.co2 301  DND301     -0.2405
     22  O8N       -5.7990   16.3120  -14.2010 O.co2 301  DND301     -0.2405
     23  PA       -12.9300    7.4250  -11.8020 P.3   301  DND301      0.2189
     24  O13      -12.9890    7.1980  -10.3470 O.3   301  DND301     -0.4371
     25  O14      -12.8940    8.8210  -12.2850 O.2   301  DND301     -0.5170
     26  O5B      -14.0690    6.5540  -12.5850 O.3   301  DND301     -0.3112
     27  C5B      -14.1600    5.1760  -12.2420 C.3   301  DND301      0.1813
     28  C4B      -15.4070    4.9370  -11.4190 C.3   301  DND301      0.1821
     29  O4B      -16.5500    5.3210  -12.2460 O.3   301  DND301     -0.3135
     30  C3B      -15.5470    3.5260  -11.0360 C.3   301  DND301      0.2184
     31  O3B      -14.8160    2.8430  -10.0580 O.3   301  DND301     -0.2174
     32  C2B      -17.0400    3.4300  -10.7910 C.3   301  DND301      0.2570
     33  O2B      -17.3020    3.5920   -9.4150 O.3   301  DND301     -0.2130
     34  C1B      -17.5700    4.3700  -11.8460 C.3   301  DND301      0.3186
     35  N9A      -18.0830    3.8600  -13.1160 N.pl3 301  DND301     -0.1439
     36  C4A      -19.3030    4.1100  -13.6200 C.2   301  DND301      0.3518
     37  N3A      -20.3990    4.8290  -13.2080 N.2   301  DND301     -0.0055
     38  C2A      -21.5080    4.8700  -13.9920 C.3   301  DND301      0.5254
     39  N1A      -21.5210    4.1970  -15.1790 N.2   301  DND301      0.0021
     40  C6A      -20.4840    3.4640  -15.6640 C.2   301  DND301      0.4393
     41  C5A      -19.3370    3.4320  -14.8300 C.2   301  DND301      0.2526
     42  N7A      -18.1860    2.7780  -15.0860 N.2   301  DND301     -0.2095
     43  C8A      -17.4330    3.0540  -14.0240 C.3   301  DND301      0.3377
     44  N6A      -20.5410    2.8290  -16.8300 N.pl3 301  DND301      0.2180
@<TRIPOS>BOND
     1    44    40    1
     2    21    20   ar
     3    40    39    2
     4    40    41    1
     5    10     9    1
     6    39    38    1
     7    42    41    2
     8    42    43    1
     9     8     7    1
    10     8    13    1
    11    20    22   ar
    12    20    18    1
    13    41    36    1
    14     3     1    2
    15    19    18    2
    16    19    14    1
    17     7     9    1
    18     7     6    1
    19     9    11    1
    20    18    17    1
    21    13    14    1
    22    13    11    1
    23    43    35    1
    24    38    37    1
    25    14    15    1
    26    36    37    2
    27    36    35    1
    28    11    12    1
    29     2     1    1
    30     1     5    1
    31     1     4    1
    32     6     5    1
    33    35    34    1
    34    17    16    2
    35    26    27    1
    36    26    23    1
    37    15    16    1
    38    25    23    2
    39    29    34    1
    40    29    28    1
    41    27    28    1
    42     4    23    1
    43    34    32    1
    44    23    24    1
    45    28    30    1
    46    30    32    1
    47    30    31    1
    48    32    33    1
