@<TRIPOS>MOLECULE
1xng_ATP_A_1.pdb
 31 33 0 0 0
SMALL
GASTEIGER

@<TRIPOS>ATOM
      1  PG        -2.0010   20.8120  -17.0070 P.3   303  ATP303      0.5373
      2  O1G       -1.1180   20.0350  -16.0930 O.3   303  ATP303     -0.1143
      3  O2G       -1.1470   21.4060  -18.1650 O.2   303  ATP303     -0.2221
      4  O3G       -3.0860   19.8560  -17.5260 O.3   303  ATP303     -0.1143
      5  PB        -3.3710   21.7920  -14.6830 P.3   303  ATP303      0.2277
      6  O1B       -3.9810   23.0620  -14.2800 O.2   303  ATP303     -0.5168
      7  O2B       -2.3410   21.2710  -13.7180 O.3   303  ATP303     -0.4368
      8  O3B       -2.7790   21.9800  -16.1540 O.3   303  ATP303     -0.2258
      9  PA        -4.6750   19.2530  -14.4330 P.3   303  ATP303      0.2189
     10  O1A       -5.9430   18.7330  -14.9820 O.2   303  ATP303     -0.5170
     11  O2A       -3.4880   18.3940  -14.8310 O.3   303  ATP303     -0.4371
     12  O3A       -4.5050   20.7230  -14.9680 O.3   303  ATP303     -0.2700
     13  O5'       -4.7640   19.4610  -12.8800 O.3   303  ATP303     -0.3112
     14  C5'       -5.8480   18.9550  -12.1730 C.3   303  ATP303      0.1813
     15  C4'       -6.6520   20.0940  -11.5460 C.3   303  ATP303      0.1821
     16  O4'       -6.8860   19.7900  -10.1830 O.3   303  ATP303     -0.3135
     17  C3'       -5.9630   21.4520  -11.5670 C.3   303  ATP303      0.2184
     18  O3'       -6.3540   22.1520  -12.7480 O.3   303  ATP303     -0.2174
     19  C2'       -6.4130   22.0870  -10.2570 C.3   303  ATP303      0.2570
     20  O2'       -7.6070   22.8180  -10.2480 O.3   303  ATP303     -0.2130
     21  C1'       -6.4440   20.8780   -9.3450 C.3   303  ATP303      0.3186
     22  N9        -5.1400   20.4350   -8.7130 N.pl3 303  ATP303     -0.1439
     23  C8        -4.3890   19.3060   -9.0180 C.3   303  ATP303      0.3377
     24  N7        -3.3230   19.3150   -8.2400 N.2   303  ATP303     -0.2095
     25  C5        -3.3230   20.4020   -7.4150 C.2   303  ATP303      0.2526
     26  C6        -2.4950   20.9460   -6.4150 C.2   303  ATP303      0.4393
     27  N6        -1.3240   20.4640   -6.0230 N.pl3 303  ATP303      0.2180
     28  N1        -2.8750   22.1270   -5.7830 N.2   303  ATP303      0.0021
     29  C2        -4.0370   22.7890   -6.1160 C.3   303  ATP303      0.5254
     30  N3        -4.8600   22.2860   -7.0970 N.2   303  ATP303     -0.0055
     31  C4        -4.5020   21.1160   -7.7310 C.2   303  ATP303      0.3518
@<TRIPOS>BOND
     1     3     1    2
     2     4     1    1
     3     1     8    1
     4     1     2    1
     5     8     5    1
     6    10     9    2
     7    12     5    1
     8    12     9    1
     9    11     9    1
    10     5     6    2
    11     5     7    1
    12     9    13    1
    13    13    14    1
    14    18    17    1
    15    14    15    1
    16    17    15    1
    17    17    19    1
    18    15    16    1
    19    19    20    1
    20    19    21    1
    21    16    21    1
    22    21    22    1
    23    23    22    1
    24    23    24    1
    25    22    31    1
    26    24    25    2
    27    31    25    1
    28    31    30    2
    29    25    26    1
    30    30    29    1
    31    26    27    1
    32    26    28    2
    33    29    28    1
