@<TRIPOS>MOLECULE
1xnj_ADX_A_1.pdb
 27 29 0 0 0
SMALL
GASTEIGER

@<TRIPOS>ATOM
      1  SB        38.8780   45.1880   15.7790 S.3   2900  ADX2900     0.0049
      2  O1B       40.0880   45.2300   16.5390 O.2   2900  ADX2900    -0.3449
      3  O2B       38.9250   43.8650   15.2100 O.2   2900  ADX2900    -0.3449
      4  O3B       37.8020   45.5830   16.6020 O.3   2900  ADX2900    -0.2679
      5  PA        39.5470   47.8010   14.5740 P.3   2900  ADX2900     0.2383
      6  O1A       41.0390   47.8380   14.8440 O.3   2900  ADX2900    -0.4361
      7  O2A       38.9900   48.2600   13.2380 O.2   2900  ADX2900    -0.5161
      8  O3A       39.0780   46.2410   14.5680 O.3   2900  ADX2900    -0.1945
      9  O5'       38.7340   48.4380   15.6480 O.3   2900  ADX2900    -0.3102
     10  C5'       39.2710   48.7050   16.9120 C.3   2900  ADX2900     0.1814
     11  C4'       38.2380   49.2360   17.8290 C.3   2900  ADX2900     0.1821
     12  O4'       37.6020   50.4710   17.4220 O.3   2900  ADX2900    -0.3135
     13  C3'       37.0630   48.3730   18.1780 C.3   2900  ADX2900     0.2184
     14  O3'       36.5140   48.5610   19.4630 O.3   2900  ADX2900    -0.2174
     15  C2'       36.0100   48.8670   17.2000 C.3   2900  ADX2900     0.2570
     16  O2'       34.7290   48.5600   17.4720 O.3   2900  ADX2900    -0.2130
     17  C1'       36.1450   50.3340   17.2540 C.3   2900  ADX2900     0.3186
     18  N9        35.9790   51.0910   15.9730 N.pl3 2900  ADX2900    -0.1439
     19  C8        36.6210   50.8730   14.7120 C.3   2900  ADX2900     0.3377
     20  N7        36.2870   51.9500   13.8890 N.2   2900  ADX2900    -0.2095
     21  C5        35.4320   52.7560   14.6030 C.2   2900  ADX2900     0.2526
     22  C6        34.7790   53.9370   14.3600 C.2   2900  ADX2900     0.4393
     23  N6        34.9000   54.6870   13.2260 N.pl3 2900  ADX2900     0.2180
     24  N1        34.0190   54.4340   15.3680 N.2   2900  ADX2900     0.0021
     25  C2        33.7720   53.8110   16.5570 C.3   2900  ADX2900     0.5254
     26  N3        34.4150   52.6200   16.7950 N.2   2900  ADX2900    -0.0055
     27  C4        35.2780   52.1950   15.9000 C.2   2900  ADX2900     0.3518
@<TRIPOS>BOND
     1    23    22    1
     2     7     5    2
     3    20    21    2
     4    20    19    1
     5    22    21    1
     6    22    24    2
     7     8     5    1
     8     8     1    1
     9     5     6    1
    10     5     9    1
    11    21    27    1
    12    19    18    1
    13     3     1    2
    14    24    25    1
    15     9    10    1
    16     1     2    2
    17     1     4    1
    18    27    18    1
    19    27    26    2
    20    18    17    1
    21    25    26    1
    22    10    11    1
    23    15    17    1
    24    15    16    1
    25    15    13    1
    26    17    12    1
    27    12    11    1
    28    11    13    1
    29    13    14    1
