@<TRIPOS>MOLECULE
1xnj_ADP_B_1.pdb
 27 29 0 0 0
SMALL
GASTEIGER

@<TRIPOS>ATOM
      1  PB        13.2610   41.0150   71.8010 P.3   2800  ADP2800     0.5373
      2  O1B       12.1080   41.7380   71.2800 O.3   2800  ADP2800    -0.1143
      3  O2B       14.5110   41.2740   71.0500 O.2   2800  ADP2800    -0.2221
      4  O3B       13.6660   41.2820   73.2880 O.3   2800  ADP2800    -0.1143
      5  PA        13.7440   38.1900   71.4110 P.3   2800  ADP2800     0.2231
      6  O1A       13.8990   38.2630   69.8850 O.2   2800  ADP2800    -0.5169
      7  O2A       15.1840   38.1690   71.7830 O.3   2800  ADP2800    -0.4370
      8  O3A       12.8140   39.4500   71.7280 O.3   2800  ADP2800    -0.2261
      9  O5'       12.7400   36.9330   71.6910 O.3   2800  ADP2800    -0.3111
     10  C5'       11.4550   36.6420   71.1980 C.3   2800  ADP2800     0.1813
     11  C4'       11.1840   35.1170   71.3800 C.3   2800  ADP2800     0.1821
     12  O4'        9.9580   34.7330   70.8130 O.3   2800  ADP2800    -0.3135
     13  C3'       12.2520   34.2080   70.7830 C.3   2800  ADP2800     0.2184
     14  O3'       12.6390   33.1550   71.6610 O.3   2800  ADP2800    -0.2174
     15  C2'       11.5680   33.6950   69.5300 C.3   2800  ADP2800     0.2570
     16  O2'       12.0230   32.4450   69.1620 O.3   2800  ADP2800    -0.2130
     17  C1'       10.1320   33.6530   69.8990 C.3   2800  ADP2800     0.3186
     18  N9         9.2600   33.7670   68.7350 N.pl3 2800  ADP2800    -0.1439
     19  C8         8.1120   33.0180   68.4970 C.3   2800  ADP2800     0.3377
     20  N7         7.5900   33.4760   67.2860 N.2   2800  ADP2800    -0.2095
     21  C5         8.3560   34.5380   66.8140 C.2   2800  ADP2800     0.2526
     22  C6         8.2770   35.3240   65.6800 C.2   2800  ADP2800     0.4393
     23  N6         7.3590   35.1250   64.7750 N.pl3 2800  ADP2800     0.2180
     24  N1         9.1890   36.2950   65.4970 N.2   2800  ADP2800     0.0021
     25  C2        10.2360   36.4790   66.3560 C.3   2800  ADP2800     0.5254
     26  N3        10.3530   35.7270   67.5160 N.2   2800  ADP2800    -0.0055
     27  C4         9.3970   34.7570   67.7110 C.2   2800  ADP2800     0.3518
@<TRIPOS>BOND
     1    23    22    1
     2    24    22    2
     3    24    25    1
     4    22    21    1
     5    25    26    1
     6    21    20    2
     7    21    27    1
     8    20    19    1
     9    26    27    2
    10    27    18    1
    11    19    18    1
    12    18    17    1
    13    16    15    1
    14    15    17    1
    15    15    13    1
    16     6     5    2
    17    17    12    1
    18    13    11    1
    19    13    14    1
    20    12    11    1
    21     3     1    2
    22    10    11    1
    23    10     9    1
    24     2     1    1
    25     5     9    1
    26     5     8    1
    27     5     7    1
    28     8     1    1
    29     1     4    1
