@<TRIPOS>MOLECULE
1xnk_XS2_A_1.pdb
 29 31 0 0 0
SMALL
GASTEIGER

@<TRIPOS>ATOM
      1  C1        20.6440   22.9560    9.3080 C.3   601  XS2601      0.2694
      2  O1        21.3580   22.2410    8.3070 O.3   601  XS2601     -0.3259
      3  C6        22.0120   23.1090    7.3920 C.3   601  XS2601      0.1769
      4  C2        21.5000   23.1020   10.5680 C.3   601  XS2601      0.2388
      5  O2        22.7640   23.6500   10.2220 O.3   601  XS2601     -0.2149
      6  C3        21.7000   21.7440   11.2490 C.3   601  XS2601      0.1996
      7  O3        22.3470   21.9400   12.4980 O.3   601  XS2601     -0.2192
      8  C4        20.3660   21.0150   11.4770 C.3   601  XS2601      0.1126
      9  S1        20.6770   19.2880   12.0140 S.3   601  XS2601     -0.1050
     10  C5        19.5440   20.9920   10.1810 C.3   601  XS2601      0.1583
     11  O6        19.4100   22.3230    9.6340 O.3   601  XS2601     -0.3276
     12  C7        19.6740   19.1310   13.5180 C.3   601  XS2601      0.1955
     13  C8        18.6950   17.9530   13.4700 C.3   601  XS2601      0.2202
     14  O8        17.7700   18.1390   12.4050 O.3   601  XS2601     -0.2168
     15  C9        17.9330   17.8500   14.7890 C.3   601  XS2601      0.1978
     16  O9        17.1670   16.6570   14.7950 O.3   601  XS2601     -0.2193
     17  C10       18.8780   17.8530   15.9990 C.3   601  XS2601      0.1125
     18  S2        17.8760   17.9930   17.5200 S.3   601  XS2601     -0.1050
     19  C11       19.8530   19.0340   15.8990 C.3   601  XS2601      0.1567
     20  O12       20.5560   18.9930   14.6380 O.3   601  XS2601     -0.3417
     21  C13       19.0700   17.8440   18.8830 C.3   601  XS2601      0.1955
     22  C14       18.7150   18.7680   20.0490 C.3   601  XS2601      0.2202
     23  O14       18.7080   20.1160   19.6090 O.3   601  XS2601     -0.2168
     24  C15       19.7260   18.5970   21.1800 C.3   601  XS2601      0.1986
     25  O15       19.3210   19.3730   22.3000 O.3   601  XS2601     -0.2193
     26  C16       19.8230   17.1230   21.5850 C.3   601  XS2601      0.1205
     27  S3        21.1320   16.8870   22.8300 S.3   601  XS2601     -0.0777
     28  C17       20.1170   16.2660   20.3460 C.3   601  XS2601      0.1575
     29  O18       19.1080   16.4820   19.3330 O.3   601  XS2601     -0.3417
@<TRIPOS>BOND
     1     3     2    1
     2     2     1    1
     3     1    11    1
     4     1     4    1
     5    11    10    1
     6    10     8    1
     7     5     4    1
     8     4     6    1
     9     6     8    1
    10     6     7    1
    11     8     9    1
    12     9    12    1
    13    14    13    1
    14    13    12    1
    15    13    15    1
    16    12    20    1
    17    20    19    1
    18    15    16    1
    19    15    17    1
    20    19    17    1
    21    17    18    1
    22    18    21    1
    23    21    29    1
    24    21    22    1
    25    29    28    1
    26    23    22    1
    27    22    24    1
    28    28    26    1
    29    24    26    1
    30    24    25    1
    31    26    27    1
