@<TRIPOS>MOLECULE
1xnn_HYQ_A_1.pdb
 26 30 0 0 0
SMALL
GASTEIGER

@<TRIPOS>ATOM
      1  C1        29.9310    0.8080    4.3390 C.3   101  HYQ101      0.0860
      2  C4        29.2060    2.0660    4.6920 C.2   101  HYQ101      0.2351
      3  O10       29.5770    2.7700    5.6270 O.2   101  HYQ101     -0.2741
      4  N9        28.1640    2.2560    3.8530 N.am  101  HYQ101     -0.2081
      5  C14       27.4140    3.3940    3.8120 C.ar  101  HYQ101      0.0607
      6  C16       28.1650    4.6140    3.4820 C.ar  101  HYQ101      0.0170
      7  C19       27.4810    5.8800    3.5260 C.ar  101  HYQ101      0.0254
      8  C20       26.0500    5.9110    3.8290 C.ar  101  HYQ101      0.1429
      9  N23       25.4790    7.1300    3.7780 N.pl3 101  HYQ101      0.0577
     10  O26       24.5710    7.4000    2.8220 O.2   101  HYQ101     -0.1261
     11  O25       25.9040    8.1950    4.5330 O.2   101  HYQ101     -0.1261
     12  C17       25.2430    4.7330    4.0970 C.ar  101  HYQ101      0.0237
     13  C21       23.7970    4.7850    4.3270 C.ar  101  HYQ101      0.0017
     14  C24       23.0400    3.5440    4.5610 C.ar  101  HYQ101      0.0001
     15  C22       23.7240    2.2410    4.5810 C.ar  101  HYQ101      0.0000
     16  C18       25.1870    2.1640    4.3730 C.ar  101  HYQ101      0.0013
     17  C15       25.9660    3.3800    4.1040 C.ar  101  HYQ101      0.0157
     18  C6        28.0350    1.2700    2.9510 C.2   101  HYQ101      0.2351
     19  O13       27.1550    1.1160    2.1080 O.2   101  HYQ101     -0.2741
     20  C2        29.1700    0.2950    3.0800 C.3   101  HYQ101      0.0860
     21  C5        28.6210   -1.1350    3.3140 C.3   101  HYQ101      0.0091
     22  C12       27.7260   -1.1420    4.5650 C.3   101  HYQ101      0.0005
     23  C8        28.4730   -0.6500    5.7970 C.3   101  HYQ101      0.0005
     24  C3        29.9180   -0.2450    5.4720 C.3   101  HYQ101      0.0091
     25  C7        30.5560   -1.5230    4.9090 C.3   101  HYQ101      0.0005
     26  C11       29.8010   -2.0450    3.6860 C.3   101  HYQ101      0.0005
@<TRIPOS>BOND
     1    19    18    2
     2    10     9    2
     3    18    20    1
     4    18     4   am
     5    20    21    1
     6    20     1    1
     7    21    26    1
     8    21    22    1
     9     6     7   ar
    10     6     5   ar
    11     7     8   ar
    12    26    25    1
    13     9     8    1
    14     9    11    2
    15     5     4    1
    16     5    17   ar
    17     8    12   ar
    18     4     2   am
    19    12    17   ar
    20    12    13   ar
    21    17    16   ar
    22    13    14   ar
    23     1     2    1
    24     1    24    1
    25    16    15   ar
    26    14    15   ar
    27    22    23    1
    28     2     3    2
    29    25    24    1
    30    24    23    1
