@<TRIPOS>MOLECULE
1xnx_ATE_A_1.pdb
 20 23 0 0 0
SMALL
GASTEIGER

@<TRIPOS>ATOM
      1  O1        13.2040   26.3340   77.7700 O.3   500  ATE500     -0.2232
      2  C3        11.9670   26.3850   77.0590 C.3   500  ATE500      0.1520
      3  C2        12.2530   27.1930   75.7730 C.3   500  ATE500      0.0329
      4  C1        12.3650   28.7020   76.0320 C.3   500  ATE500      0.0026
      5  C4        10.9860   26.9480   78.1110 C.3   500  ATE500      0.0329
      6  C5        11.2160   28.4660   78.3170 C.3   500  ATE500      0.0025
      7  C6        10.1940   28.9870   79.3460 C.3   500  ATE500      0.0001
      8  C10       11.3020   29.3260   76.9900 C.3   500  ATE500      0.0002
      9  C19        9.9350   29.2260   76.2150 C.3   500  ATE500      0.0000
     10  C9        11.5190   30.8630   77.2590 C.3   500  ATE500      0.0000
     11  C11       11.6170   31.7630   76.0000 C.3   500  ATE500      0.0000
     12  C8        10.4320   31.3510   78.3060 C.3   500  ATE500      0.0000
     13  C7        10.3320   30.4930   79.5950 C.3   500  ATE500      0.0000
     14  C14       10.6110   32.8710   78.5900 C.3   500  ATE500      0.0000
     15  C15        9.7350   33.6390   79.5780 C.3   500  ATE500      0.0000
     16  C13       10.7240   33.7830   77.3240 C.3   500  ATE500      0.0000
     17  C12       11.7670   33.2680   76.3070 C.3   500  ATE500      0.0000
     18  C18        9.3690   33.9500   76.5540 C.3   500  ATE500      0.0000
     19  C17       10.8660   35.0740   78.1100 C.3   500  ATE500      0.0000
     20  C16       10.3450   35.0090   79.3560 C.3   500  ATE500      0.0000
@<TRIPOS>BOND
     1     3     4    1
     2     3     2    1
     3    11    17    1
     4    11    10    1
     5     4     8    1
     6     9     8    1
     7    17    16    1
     8    18    16    1
     9     8    10    1
    10     8     6    1
    11     2     1    1
    12     2     5    1
    13    10    12    1
    14    16    19    1
    15    16    14    1
    16    19    20    1
    17     5     6    1
    18    12    14    1
    19    12    13    1
    20     6     7    1
    21    14    15    1
    22     7    13    1
    23    20    15    1
