@<TRIPOS>MOLECULE
1xny_BTN_A_1.pdb
 16 17 0 0 0
SMALL
GASTEIGER

@<TRIPOS>ATOM
      1  C11       47.6030  -99.9730 -136.0480 C.2   9600  BTN9600     0.3649
      2  O11       47.9330 -100.7100 -136.9770 O.co2 9600  BTN9600    -0.2457
      3  O12       46.6600  -99.1880 -136.1870 O.co2 9600  BTN9600    -0.2457
      4  C10       48.3600 -100.0280 -134.7270 C.3   9600  BTN9600     0.1141
      5  C9        47.6680 -100.8860 -133.6430 C.3   9600  BTN9600     0.0118
      6  C8        47.0800 -100.0180 -132.5290 C.3   9600  BTN9600     0.0015
      7  C7        45.5720  -99.8830 -132.5960 C.3   9600  BTN9600     0.0129
      8  C2        44.8060 -100.4900 -131.3990 C.3   9600  BTN9600     0.0729
      9  S1        45.1740 -102.3350 -131.0180 S.3   9600  BTN9600    -0.1369
     10  C6        43.6180 -102.3190 -129.9110 C.3   9600  BTN9600     0.0848
     11  C5        42.6270 -101.3960 -130.6740 C.3   9600  BTN9600     0.1509
     12  N1        41.8450 -102.3340 -131.6410 N.2   9600  BTN9600    -0.1859
     13  C3        42.0040 -102.0230 -132.8580 C.1   9600  BTN9600     0.2386
     14  O3        41.5340 -102.5470 -133.9330 O.2   9600  BTN9600    -0.2023
     15  N2        42.8660 -100.8790 -133.0640 N.2   9600  BTN9600    -0.1860
     16  C4        43.2910 -100.4430 -131.6510 C.3   9600  BTN9600     0.1500
@<TRIPOS>BOND
     1     2     1   ar
     2     3     1   ar
     3     1     4    1
     4     4     5    1
     5    14    13    2
     6     5     6    1
     7    15    13    2
     8    15    16    1
     9    13    12    2
    10     7     6    1
    11     7     8    1
    12    16     8    1
    13    16    11    1
    14    12    11    1
    15     8     9    1
    16     9    10    1
    17    11    10    1
