@<TRIPOS>MOLECULE
1xnz_FCD_A_1.pdb
 15 16 0 0 0
SMALL
GASTEIGER

@<TRIPOS>ATOM
      1  OA        -1.7430   -0.9210    8.2900 O.2   268  FCD268     -0.4468
      2  CA        -0.6720   -0.6120    9.0320 C.ar  268  FCD268      0.2246
      3  C          0.6840   -0.4120    8.4630 C.2   268  FCD268      0.4216
      4  OB         0.7990   -0.5480    7.2320 O.co2 268  FCD268     -0.2371
      5  CB        -1.0830   -0.5240   10.3760 C.ar  268  FCD268      0.0475
      6  CG        -2.4570   -0.7990   10.4000 C.ar  268  FCD268      0.0409
      7  CD        -2.8360   -1.0440    9.0650 C.ar  268  FCD268      0.1464
      8  OXT        1.6290   -0.1280    9.2070 O.co2 268  FCD268     -0.2371
      9  C1        -4.1460   -1.3850    8.5250 C.ar  268  FCD268      0.0451
     10  C2        -4.1870   -2.3800    7.5030 C.ar  268  FCD268      0.0039
     11  C3        -5.4150   -2.7640    6.9190 C.ar  268  FCD268      0.0002
     12  C4        -6.6050   -2.1520    7.3560 C.ar  268  FCD268      0.0009
     13  C5        -6.5910   -1.1630    8.3680 C.ar  268  FCD268      0.0115
     14  C6        -5.3700   -0.7670    8.9640 C.ar  268  FCD268      0.0606
     15 CL2        -5.4030    0.4160   10.1620 Cl    268  FCD268     -0.0821
@<TRIPOS>BOND
     1    11    12   ar
     2    11    10   ar
     3     4     3   ar
     4    12    13   ar
     5    10     9   ar
     6     1     2   ar
     7     1     7   ar
     8    13    14   ar
     9     3     2    1
    10     3     8   ar
    11     9    14   ar
    12     9     7    1
    13    14    15    1
    14     2     5   ar
    15     7     6   ar
    16     5     6   ar
