@<TRIPOS>MOLECULE
1xo2_FSE_B_1.pdb
 21 23 0 0 0
SMALL
GASTEIGER

@<TRIPOS>ATOM
      1  C6        -3.3430   37.3090  140.4710 C.ar  309  FSE309      0.0423
      2  C5        -2.2480   36.9270  141.3070 C.ar  309  FSE309      0.0096
      3  C10       -0.8130   36.9320  140.8240 C.ar  309  FSE309      0.0770
      4  C9        -0.6730   37.3920  139.4240 C.ar  309  FSE309      0.1517
      5  C8        -1.7940   37.7850  138.5820 C.ar  309  FSE309      0.0796
      6  C7        -3.1420   37.7120  139.1040 C.ar  309  FSE309      0.1988
      7  C4         0.3860   36.5050  141.5920 C.ar  309  FSE309      0.2402
      8  C3         1.7430   36.5530  140.8980 C.ar  309  FSE309      0.2684
      9  C2         1.8710   37.0080  139.5440 C.ar  309  FSE309      0.1872
     10  C1'        3.0270   37.1880  138.6610 C.ar  309  FSE309      0.0413
     11  C6'        4.3630   37.0660  139.1300 C.ar  309  FSE309      0.0066
     12  C5'        5.4560   37.2550  138.2600 C.ar  309  FSE309      0.0455
     13  C4'        5.2320   37.5670  136.8960 C.ar  309  FSE309      0.2343
     14  C3'        3.9340   37.6800  136.3640 C.ar  309  FSE309      0.2344
     15  C2'        2.8290   37.5000  137.2090 C.ar  309  FSE309      0.0485
     16  O1         0.6840   37.4160  138.8670 O.2   309  FSE309     -0.4499
     17  O4         0.3500   36.0890  142.8010 O.2   309  FSE309     -0.2829
     18  O3'        3.8500   38.0040  134.9950 O.3   309  FSE309     -0.2831
     19  O4'        6.3100   37.7360  136.1160 O.3   309  FSE309     -0.2831
     20  O3         2.8920   36.1430  141.6130 O.3   309  FSE309     -0.2798
     21  O7        -4.2200   38.0240  138.2600 O.3   309  FSE309     -0.2865
@<TRIPOS>BOND
     1    18    14    1
     2    19    13    1
     3    14    13   ar
     4    14    15   ar
     5    13    12   ar
     6    15    10   ar
     7    21     6    1
     8    12    11   ar
     9     5     6   ar
    10     5     4   ar
    11    10    11   ar
    12    10     9    1
    13    16     4   ar
    14    16     9   ar
    15     6     1   ar
    16     4     3   ar
    17     9     8   ar
    18     1     2   ar
    19     3     2   ar
    20     3     7   ar
    21     8     7   ar
    22     8    20    1
    23     7    17    2
