@<TRIPOS>MOLECULE
1xoe_NAG_A_1.pdb
 14 14 0 0 0
SMALL
GASTEIGER

@<TRIPOS>ATOM
      1  C1        40.1170    1.8400   58.6130 C.3   501  NAG501      0.1665
      2  C2        40.9420    1.1440   59.6950 C.3   501  NAG501      0.1576
      3  C3        41.9250    0.1760   59.0450 C.3   501  NAG501      0.2069
      4  C4        41.0950   -0.8550   58.1980 C.3   501  NAG501      0.2134
      5  C5        40.2310   -0.0710   57.0720 C.3   501  NAG501      0.1809
      6  C6        39.3150   -0.9810   56.2170 C.3   501  NAG501      0.2141
      7  C7        41.4010    2.2570   61.8070 C.2   501  NAG501      0.2420
      8  C8        42.1430    3.2720   62.6100 C.3   501  NAG501      0.0964
      9  N2        41.6640    2.1390   60.5040 N.am  501  NAG501     -0.2019
     10  O3        42.6820   -0.4640   60.0610 O.3   501  NAG501     -0.2184
     11  O4        41.9630   -1.8070   57.5590 O.3   501  NAG501     -0.2176
     12  O5        39.4170    0.8750   57.7690 O.3   501  NAG501     -0.3489
     13  O6        38.7530   -2.0560   56.9220 O.3   501  NAG501     -0.2176
     14  O7        40.5710    1.5740   62.4110 O.2   501  NAG501     -0.2733
@<TRIPOS>BOND
     1     6    13    1
     2     6     5    1
     3     5    12    1
     4     5     4    1
     5    11     4    1
     6    12     1    1
     7     4     3    1
     8     1     2    1
     9     3     2    1
    10     3    10    1
    11     2     9    1
    12     9     7   am
    13     7    14    2
    14     7     8    1
