@<TRIPOS>MOLECULE
1xoe_ABX_A_1.pdb
 21 21 0 0 0
SMALL
GASTEIGER

@<TRIPOS>ATOM
      1  C1        24.4360   16.8070   63.3160 C.3   500  ABX500      0.1186
      2  C2        25.5780   17.8010   63.0090 C.3   500  ABX500      0.1038
      3  N1        25.5590   18.7420   64.1490 N.3   500  ABX500     -0.2075
      4  C3        24.2280   18.6770   64.7690 C.3   500  ABX500      0.1763
      5  C4        23.3860   17.6660   63.9960 C.3   500  ABX500      0.0415
      6  C5        23.5960   20.0830   64.7770 C.2   500  ABX500      0.3803
      7  O1        22.3710   20.1060   65.3070 O.co2 500  ABX500     -0.2441
      8  O2        24.1570   21.0380   64.3430 O.co2 500  ABX500     -0.2441
      9  N2        26.9240   16.2120   61.6420 N.am  500  ABX500     -0.2057
     10  C6        27.2550   14.8880   61.7710 C.2   500  ABX500      0.2419
     11  C7        27.1250   14.0640   60.4930 C.3   500  ABX500      0.0964
     12  O3        27.6210   14.3720   62.8090 O.2   500  ABX500     -0.2733
     13  C8        26.9800   17.1600   62.7770 C.3   500  ABX500      0.1118
     14  C9        27.7110   18.4480   62.2950 C.3   500  ABX500      0.0231
     15  C10       29.1930   18.1140   61.9780 C.3   500  ABX500      0.0018
     16  C11       29.7600   19.1560   60.9850 C.3   500  ABX500      0.0001
     17  C12       30.0360   18.1150   63.2680 C.3   500  ABX500      0.0001
     18  C13       23.8350   16.1050   62.0820 C.2   500  ABX500      0.3180
     19  O4        23.3450   16.6550   61.1310 O.2   500  ABX500     -0.2501
     20  O5        23.8390   14.7830   62.2630 O.3   500  ABX500     -0.4444
     21  C14       23.2850   13.9020   61.2750 C.3   500  ABX500      0.2556
@<TRIPOS>BOND
     1    11    10    1
     2    16    15    1
     3    19    18    2
     4    21    20    1
     5     9    10   am
     6     9    13    1
     7    10    12    2
     8    15    14    1
     9    15    17    1
    10    18    20    1
    11    18     1    1
    12    14    13    1
    13    13     2    1
    14     2     1    1
    15     2     3    1
    16     1     5    1
    17     5     4    1
    18     3     4    1
    19     8     6   ar
    20     4     6    1
    21     6     7   ar
