@<TRIPOS>MOLECULE
1xog_NAG_A_1.pdb
 14 14 0 0 0
SMALL
GASTEIGER

@<TRIPOS>ATOM
      1  C1        40.0080    1.8980   58.5790 C.3   501  NAG501      0.1665
      2  C2        40.8650    1.1810   59.6130 C.3   501  NAG501      0.1576
      3  C3        41.8120    0.2000   58.9190 C.3   501  NAG501      0.2069
      4  C4        40.9490   -0.8170   58.0800 C.3   501  NAG501      0.2134
      5  C5        40.0450    0.0000   57.0110 C.3   501  NAG501      0.1809
      6  C6        39.0820   -0.8970   56.1940 C.3   501  NAG501      0.2141
      7  C7        41.3400    2.3470   61.6890 C.2   501  NAG501      0.2420
      8  C8        42.1330    3.3440   62.4580 C.3   501  NAG501      0.0964
      9  N2        41.6300    2.1570   60.3970 N.am  501  NAG501     -0.2019
     10  O3        42.6040   -0.4650   59.9010 O.3   501  NAG501     -0.2184
     11  O4        41.7920   -1.7780   57.3830 O.3   501  NAG501     -0.2176
     12  O5        39.2660    0.9610   57.7640 O.3   501  NAG501     -0.3489
     13  O6        38.6640   -2.0460   56.8710 O.3   501  NAG501     -0.2176
     14  O7        40.4440    1.7430   62.3110 O.2   501  NAG501     -0.2733
@<TRIPOS>BOND
     1     6    13    1
     2     6     5    1
     3     5    12    1
     4     5     4    1
     5    11     4    1
     6    12     1    1
     7     4     3    1
     8     1     2    1
     9     3     2    1
    10     3    10    1
    11     2     9    1
    12     9     7   am
    13     7    14    2
    14     7     8    1
