@<TRIPOS>MOLECULE
1xog_ABW_A_1.pdb
 21 21 0 0 0
SMALL
GASTEIGER

@<TRIPOS>ATOM
      1  C1        24.4830   16.4930   63.0060 C.3   1000  ABW1000     0.1308
      2  C13       25.3620   17.6270   62.4610 C.3   1000  ABW1000     0.1462
      3  O6        25.4500   18.5300   63.5570 O.3   1000  ABW1000    -0.3452
      4  C3        24.3470   18.3540   64.4150 C.3   1000  ABW1000     0.2183
      5  C4        23.4660   17.2780   63.7970 C.3   1000  ABW1000     0.0549
      6  C5        23.5920   19.6620   64.6450 C.2   1000  ABW1000     0.3913
      7  O1        22.6040   19.6340   65.3560 O.co2 1000  ABW1000    -0.2430
      8  O2        24.0330   20.6860   64.0940 O.co2 1000  ABW1000    -0.2430
      9  N2        26.8100   16.3090   60.9210 N.am  1000  ABW1000    -0.2047
     10  C6        27.1940   15.0070   61.0790 C.2   1000  ABW1000     0.2419
     11  C7        27.0930   14.1490   59.8070 C.3   1000  ABW1000     0.0964
     12  O4        27.5780   14.5440   62.1360 O.2   1000  ABW1000    -0.2733
     13  C8        26.8220   17.2870   62.0190 C.3   1000  ABW1000     0.1229
     14  C2        27.4680   18.5960   61.5060 C.3   1000  ABW1000     0.0242
     15  C9        28.7780   19.1620   62.1010 C.3   1000  ABW1000     0.0018
     16  C10       29.0500   20.4490   61.3160 C.3   1000  ABW1000     0.0001
     17  C15       28.6970   19.5270   63.6070 C.3   1000  ABW1000     0.0001
     18  C14       23.7800   15.6740   61.8930 C.2   1000  ABW1000     0.3191
     19  O3        23.2170   16.1670   60.9490 O.2   1000  ABW1000    -0.2500
     20  O5        23.8690   14.3570   62.1030 O.3   1000  ABW1000    -0.4443
     21  C16       23.2740   13.4440   61.1790 C.3   1000  ABW1000     0.2556
@<TRIPOS>BOND
     1    11    10    1
     2     9    10   am
     3     9    13    1
     4    19    18    2
     5    10    12    2
     6    21    20    1
     7    16    15    1
     8    14    13    1
     9    14    15    1
    10    18    20    1
    11    18     1    1
    12    13     2    1
    13    15    17    1
    14     2     1    1
    15     2     3    1
    16     1     5    1
    17     3     4    1
    18     5     4    1
    19     8     6   ar
    20     4     6    1
    21     6     7   ar
