@<TRIPOS>MOLECULE
1xoi_NBG_A_1.pdb
 15 15 0 0 0
SMALL
GASTEIGER

@<TRIPOS>ATOM
      1  C1       -11.9340   46.9330  105.8030 C.3   861  NBG861      0.2446
      2  C2       -12.1220   47.9840  106.9440 C.3   861  NBG861      0.2326
      3  C3       -10.8590   48.9110  107.0950 C.3   861  NBG861      0.2190
      4  C4        -9.5650   48.0450  107.2260 C.3   861  NBG861      0.2144
      5  C5        -9.4500   47.1260  105.9740 C.3   861  NBG861      0.1828
      6  C6        -8.2030   46.2100  105.9920 C.3   861  NBG861      0.2142
      7  C7       -13.6670   45.4050  104.9380 C.2   861  NBG861      0.2440
      8  C8       -14.6040   44.2560  105.2260 C.3   861  NBG861      0.0965
      9  N1       -12.9240   45.8800  105.9790 N.am  861  NBG861     -0.1751
     10  O3       -11.0040   49.7740  108.2340 O.3   861  NBG861     -0.2174
     11  O2       -13.3050   48.7530  106.7420 O.3   861  NBG861     -0.2157
     12  O4        -8.3980   48.8770  107.3620 O.3   861  NBG861     -0.2176
     13  O5       -10.6310   46.2940  105.8850 O.3   861  NBG861     -0.3315
     14  O6        -8.0980   45.4420  107.1960 O.3   861  NBG861     -0.2176
     15  O7       -13.6200   45.8630  103.8040 O.2   861  NBG861     -0.2733
@<TRIPOS>BOND
     1    15     7    2
     2     7     8    1
     3     7     9   am
     4     1    13    1
     5     1     9    1
     6     1     2    1
     7    13     5    1
     8     5     6    1
     9     5     4    1
    10     6    14    1
    11    11     2    1
    12     2     3    1
    13     3     4    1
    14     3    10    1
    15     4    12    1
