@<TRIPOS>MOLECULE
1xoi_288_A_1.pdb
 25 27 0 0 0
SMALL
GASTEIGER

@<TRIPOS>ATOM
      1  C1         6.2280   36.2070   81.7240 C.ar  862  288862      0.0331
      2  C2         4.9590   36.5610   82.2800 C.ar  862  288862      0.1317
      3  C3         5.9630   35.6080   80.4650 C.2   862  288862      0.0394
      4  C4         7.4230   36.4970   82.4600 C.ar  862  288862      0.0140
      5  N5         4.0160   36.1870   81.3900 N.2   862  288862     -0.3972
      6  C6         4.8920   37.1840   83.5510 C.ar  862  288862      0.0329
      7  C7         4.6160   35.6130   80.2910 C.2   862  288862      0.1862
      8  C8         7.3320   37.1170   83.7140 C.ar  862  288862      0.0578
      9  C9         6.0720   37.4590   84.2550 C.ar  862  288862      0.0140
     10  C10        3.8580   35.1020   79.1280 C.2   862  288862      0.2950
     11 CL11        8.7570   37.4800   84.6080 Cl    862  288862     -0.0822
     12  N12        4.4650   34.5320   78.0390 N.am  862  288862     -0.1896
     13  O13        2.6380   35.2020   79.1510 O.2   862  288862     -0.2655
     14  C14        3.5930   34.0730   76.9330 C.3   862  288862      0.2002
     15  C15        2.9900   32.6860   77.1950 C.2   862  288862      0.2478
     16  N16        2.1080   32.1210   76.2640 N.am  862  288862     -0.2770
     17  O17        3.2800   32.0930   78.2240 O.2   862  288862     -0.2729
     18  C18        1.7770   32.8970   75.0220 C.3   862  288862      0.0755
     19  C19        1.5060   30.7700   76.5000 C.3   862  288862      0.1289
     20  C20        2.3710   32.2890   73.7350 C.3   862  288862      0.0198
     21  C21        0.2580   33.0520   74.7870 C.3   862  288862      0.0198
     22  C22        0.5450   30.7830   77.7130 C.3   862  288862      0.2035
     23  C23        1.1930   32.1160   72.7590 C.3   862  288862      0.0018
     24  C24        0.1490   33.1580   73.2440 C.3   862  288862      0.0018
     25  O25       -0.0050   29.4830   77.9110 O.3   862  288862     -0.2185
@<TRIPOS>BOND
     1    23    24    1
     2    23    20    1
     3    24    21    1
     4    20    18    1
     5    21    18    1
     6    18    16    1
     7    16    19    1
     8    16    15   am
     9    19    22    1
    10    14    15    1
    11    14    12    1
    12    15    17    2
    13    22    25    1
    14    12    10   am
    15    10    13    2
    16    10     7    1
    17     7     3    1
    18     7     5    2
    19     3     1    2
    20     5     2    2
    21     1     2   ar
    22     1     4   ar
    23     2     6   ar
    24     4     8   ar
    25     6     9   ar
    26     8     9   ar
    27     8    11    1
