@<TRIPOS>MOLECULE
1xoi_PLP_A_1.pdb
 15 15 0 0 0
SMALL
GASTEIGER

@<TRIPOS>ATOM
      1  N1        -9.1510   52.3940   97.9220 N.ar  860  PLP860     -0.2452
      2  C2        -7.9450   52.6300   97.3570 C.ar  860  PLP860      0.0978
      3  C2A       -7.8810   52.9200   95.8340 C.3   860  PLP860      0.0555
      4  C3        -6.8320   52.7200   98.1500 C.ar  860  PLP860      0.2049
      5  O3        -5.5940   52.9380   97.5690 O.3   860  PLP860     -0.2857
      6  C4        -6.9810   52.5850   99.5400 C.ar  860  PLP860      0.0182
      7  C4A       -5.8930   52.6930  100.3580 C.3   860  PLP860      0.0342
      8  C5        -8.2320   52.3610  100.0960 C.ar  860  PLP860      0.0261
      9  C6        -9.2950   52.2670   99.2650 C.ar  860  PLP860      0.0965
     10  C5A       -8.4860   52.2280  101.6320 C.3   860  PLP860      0.1815
     11  O4P       -8.5570   53.5300  102.2270 O.3   860  PLP860     -0.2653
     12  P         -9.3350   53.8800  103.6100 P.3   860  PLP860      0.5329
     13  O1P      -10.6780   53.3030  103.4480 O.2   860  PLP860     -0.2224
     14  O2P       -9.3020   55.3270  103.5020 O.3   860  PLP860     -0.1145
     15  O3P       -8.5270   53.2650  104.6610 O.3   860  PLP860     -0.1145
@<TRIPOS>BOND
     1     3     2    1
     2     2     1   ar
     3     2     4   ar
     4     5     4    1
     5     1     9   ar
     6     4     6   ar
     7     9     8   ar
     8     6     8   ar
     9     6     7    1
    10     8    10    1
    11    10    11    1
    12    11    12    1
    13    13    12    2
    14    14    12    1
    15    12    15    1
