@<TRIPOS>MOLECULE
1xom_CIO_A_1.pdb
 25 27 0 0 0
SMALL
GASTEIGER

@<TRIPOS>ATOM
      1  O25       14.0820    5.8760   18.9490 O.co2 603  CIO603     -0.2457
      2  C23       12.9580    6.1930   18.4940 C.2   603  CIO603      0.3643
      3  O24       11.9790    6.3800   19.2400 O.co2 603  CIO603     -0.2457
      4  C4        12.7620    6.3720   17.0060 C.3   603  CIO603      0.1035
      5  C5        14.1000    6.6980   16.3470 C.3   603  CIO603      0.0126
      6  C6        13.9840    6.7830   14.8250 C.3   603  CIO603      0.0188
      7  C3        12.1490    5.1170   16.3770 C.3   603  CIO603      0.0126
      8  C2        12.0620    5.2080   14.8430 C.3   603  CIO603      0.0188
      9  C1        13.4250    5.4970   14.2070 C.3   603  CIO603      0.0981
     10  C21       14.3230    4.3810   14.5570 C.1   603  CIO603      0.0752
     11  N22       15.0350    3.5150   14.8530 N.1   603  CIO603     -0.1956
     12  C7        13.4010    5.6650   12.6950 C.ar  603  CIO603     -0.0065
     13  C8        12.2390    5.6860   11.9170 C.ar  603  CIO603      0.0000
     14  C9        12.3110    5.8530   10.5250 C.ar  603  CIO603      0.0398
     15  C10       13.5500    6.0030    9.9000 C.ar  603  CIO603      0.1724
     16  O11       13.7090    6.1690    8.5440 O.3   603  CIO603     -0.4684
     17  C12       12.6080    6.1300    7.6360 C.3   603  CIO603      0.2526
     18  C13       14.6980    5.9850   10.6630 C.ar  603  CIO603      0.1717
     19  C20       14.6230    5.8190   12.0450 C.ar  603  CIO603      0.0367
     20  O14       15.9040    6.1370   10.0270 O.3   603  CIO603     -0.4761
     21  C15       17.1450    6.2900   10.7230 C.3   603  CIO603      0.1660
     22  C16       18.2450    6.4290    9.6820 C.3   603  CIO603      0.0435
     23  C17       18.3420    7.9250    9.4170 C.3   603  CIO603      0.0038
     24  C18       17.8980    8.6320   10.6890 C.3   603  CIO603      0.0038
     25  C19       17.1920    7.5830   11.5340 C.3   603  CIO603      0.0435
@<TRIPOS>BOND
     1    17    16    1
     2    16    15    1
     3    23    22    1
     4    23    24    1
     5    22    21    1
     6    15    14   ar
     7    15    18   ar
     8    20    18    1
     9    20    21    1
    10    14    13   ar
    11    18    19   ar
    12    24    25    1
    13    21    25    1
    14    13    12   ar
    15    19    12   ar
    16    12     9    1
    17     9    10    1
    18     9     6    1
    19     9     8    1
    20    10    11    3
    21     6     5    1
    22     8     7    1
    23     5     4    1
    24     7     4    1
    25     4     2    1
    26     2     1   ar
    27     2     3   ar
