@<TRIPOS>MOLECULE
1xon_PIL_A_1.pdb
 25 27 0 0 0
SMALL
GASTEIGER

@<TRIPOS>ATOM
      1 CL25        4.8180   -0.3840   53.4140 Cl    501  PIL501     -0.0792
      2  C24        6.3430   -0.6150   52.6290 C.ar  501  PIL501      0.0929
      3  C23        6.4520   -0.3840   51.2640 C.ar  501  PIL501      0.1116
      4  N22        7.6250   -0.5180   50.5890 N.ar  501  PIL501     -0.2405
      5  C21        8.7070   -0.9220   51.3160 C.ar  501  PIL501      0.1116
      6  C19        8.6790   -1.1830   52.6810 C.ar  501  PIL501      0.0929
      7 CL20       10.1090   -1.6900   53.4810 Cl    501  PIL501     -0.0792
      8  C18        7.4680   -1.0280   53.3640 C.ar  501  PIL501      0.0977
      9  N16        7.3310   -1.2610   54.7580 N.am  501  PIL501     -0.1736
     10  C15        6.5570   -2.3080   55.2220 C.2   501  PIL501      0.2691
     11  O17        5.9700   -3.0850   54.4740 O.2   501  PIL501     -0.2680
     12  C14        6.4340   -2.4850   56.6950 C.ar  501  PIL501      0.0586
     13  C13        7.2010   -1.7690   57.6320 C.ar  501  PIL501      0.0079
     14  C12        7.0280   -2.0040   59.0040 C.ar  501  PIL501      0.0402
     15  C9         6.0940   -2.9460   59.4660 C.ar  501  PIL501      0.1724
     16  O10        5.9450   -3.1670   60.8120 O.3   501  PIL501     -0.4684
     17  C11        6.6950   -2.4190   61.7860 C.3   501  PIL501      0.2526
     18  C2         5.3210   -3.6530   58.5410 C.ar  501  PIL501      0.1722
     19  C1         5.4960   -3.4260   57.1590 C.ar  501  PIL501      0.0446
     20  O3         4.4160   -4.5620   59.0510 O.3   501  PIL501     -0.4761
     21  C4         3.6970   -5.3490   58.0790 C.3   501  PIL501      0.1660
     22  C5         2.7320   -4.4030   57.5740 C.3   501  PIL501      0.0435
     23  C6         1.5180   -4.4480   58.4970 C.3   501  PIL501      0.0038
     24  C7         1.7050   -5.6610   59.3800 C.3   501  PIL501      0.0038
     25  C8         2.8790   -6.4240   58.7900 C.3   501  PIL501      0.0435
@<TRIPOS>BOND
     1     4     3   ar
     2     4     5   ar
     3     3     2   ar
     4     5     6   ar
     5     2     8   ar
     6     2     1    1
     7     6     8   ar
     8     6     7    1
     9     8     9    1
    10    11    10    2
    11     9    10   am
    12    10    12    1
    13    12    19   ar
    14    12    13   ar
    15    19    18   ar
    16    22    21    1
    17    22    23    1
    18    13    14   ar
    19    21    25    1
    20    21    20    1
    21    23    24    1
    22    18    20    1
    23    18    15   ar
    24    25    24    1
    25    14    15   ar
    26    15    16    1
    27    16    17    1
