@<TRIPOS>MOLECULE
1xoq_ROF_A_1.pdb
 26 28 0 0 0
SMALL
GASTEIGER

@<TRIPOS>ATOM
      1  O24       14.4670   29.3330   55.4470 O.2   502  ROF502     -0.2680
      2  C23       12.2940   34.0110   50.5240 C.3   502  ROF502      0.0038
      3  C22       13.2130   34.7760   51.4750 C.3   502  ROF502      0.0038
      4  C21       13.4880   33.3980   51.0880 C.3   502  ROF502      0.0438
      5  C8        14.3680   28.2670   54.8280 C.2   502  ROF502      0.2691
      6  C9        14.1730   28.3350   53.3630 C.ar  502  ROF502      0.0586
      7  C10       14.1450   27.2090   52.5320 C.ar  502  ROF502      0.0079
      8  C11       13.9400   27.3560   51.1490 C.ar  502  ROF502      0.0404
      9  C12       13.7900   28.6400   50.5920 C.ar  502  ROF502      0.1779
     10  O15       13.5900   28.8740   49.2590 O.3   502  ROF502     -0.4205
     11  C16       13.9070   27.8890   48.2820 C.3   502  ROF502      0.5087
     12  F18       13.0380   26.8940   48.3900 F     502  ROF502     -0.1550
     13  F17       15.1600   27.4650   48.4490 F     502  ROF502     -0.1550
     14  C13       13.8040   29.7510   51.4160 C.ar  502  ROF502      0.1725
     15  O19       13.6450   30.9910   50.8550 O.3   502  ROF502     -0.4724
     16  C20       13.9570   32.1060   51.6840 C.3   502  ROF502      0.2054
     17  C14       14.0010   29.5930   52.7940 C.ar  502  ROF502      0.0446
     18  N7        14.4570   27.0870   55.4590 N.am  502  ROF502     -0.1736
     19  C6        14.6180   26.9290   56.8680 C.ar  502  ROF502      0.0977
     20  C5        15.7500   26.3280   57.4250 C.ar  502  ROF502      0.0929
     21 CL26       17.0390   25.8210   56.4070 Cl    502  ROF502     -0.0792
     22  C4        15.8430   26.1570   58.8080 C.ar  502  ROF502      0.1116
     23  N3        14.8460   26.5700   59.6120 N.ar  502  ROF502     -0.2405
     24  C2        13.7380   27.1360   59.1220 C.ar  502  ROF502      0.1116
     25  C1        13.5970   27.3190   57.7410 C.ar  502  ROF502      0.0929
     26 CL25       12.1660   28.0480   57.1000 Cl    502  ROF502     -0.0792
@<TRIPOS>BOND
     1    11    12    1
     2    11    13    1
     3    11    10    1
     4    10     9    1
     5     2     4    1
     6     2     3    1
     7     9     8   ar
     8     9    14   ar
     9    15    14    1
    10    15    16    1
    11     4     3    1
    12     4    16    1
    13     8     7   ar
    14    14    17   ar
    15     7     6   ar
    16    17     6   ar
    17     6     5    1
    18     5     1    2
    19     5    18   am
    20    18    19    1
    21    21    20    1
    22    19    20   ar
    23    19    25   ar
    24    26    25    1
    25    20    22   ar
    26    25    24   ar
    27    22    23   ar
    28    24    23   ar
