@<TRIPOS>MOLECULE
1xor_ZAR_A_1.pdb
 19 20 0 0 0
SMALL
GASTEIGER

@<TRIPOS>ATOM
      1  O1         8.9550    2.0750   53.5620 O.2   701  ZAR701     -0.2204
      2  C2         8.4970    1.1650   54.2480 C.1   701  ZAR701      0.1733
      3  N3         7.1500    0.9280   54.2980 N.2   701  ZAR701     -0.0726
      4  N4         6.5470   -0.0400   55.0070 N.2   701  ZAR701     -0.1377
      5  C5         7.2800   -0.7640   55.7880 C.2   701  ZAR701      0.1044
      6  C6         8.7570   -0.7050   55.7980 C.2   701  ZAR701      0.0333
      7  C7         9.3290    0.2750   55.0890 C.2   701  ZAR701      0.0971
      8  C8         6.5140   -1.8080   56.5080 C.ar  701  ZAR701      0.0227
      9  C9         6.7860   -1.9950   57.8750 C.ar  701  ZAR701      0.0416
     10  C10        6.0580   -2.9440   58.6230 C.ar  701  ZAR701      0.1726
     11  C11        5.0450   -3.6950   57.9990 C.ar  701  ZAR701      0.1779
     12  C12        4.7590   -3.4740   56.6370 C.ar  701  ZAR701      0.0403
     13  C13        5.4850   -2.5300   55.8990 C.ar  701  ZAR701      0.0049
     14  C14        3.7670   -5.8100   58.5700 C.3   701  ZAR701      0.5087
     15  O15        4.4090   -4.5710   58.8760 O.3   701  ZAR701     -0.4205
     16  F16        3.6540   -6.0670   57.2470 F     701  ZAR701     -0.1550
     17  F17        2.5020   -5.7300   59.0710 F     701  ZAR701     -0.1550
     18  O18        6.2600   -3.2270   59.9760 O.3   701  ZAR701     -0.4684
     19  C19        6.8840   -2.2270   60.7960 C.3   701  ZAR701      0.2526
@<TRIPOS>BOND
     1     1     2    2
     2     2     3    2
     3     2     7    1
     4     3     4    1
     5     4     5    2
     6     7     6    2
     7     5     6    1
     8     5     8    1
     9    13     8   ar
    10    13    12   ar
    11     8     9   ar
    12    12    11   ar
    13    16    14    1
    14     9    10   ar
    15    11    10   ar
    16    11    15    1
    17    14    15    1
    18    14    17    1
    19    10    18    1
    20    18    19    1
