@<TRIPOS>MOLECULE
1xos_VIA_A_1.pdb
 33 36 0 0 0
SMALL
GASTEIGER

@<TRIPOS>ATOM
      1  C34       -0.5200   69.5830   42.5040 C.3     1  VIA1        0.0004
      2  C33       -0.6090   68.3410   43.3430 C.3     1  VIA1        0.0064
      3  C32        0.7000   68.0690   44.0170 C.3     1  VIA1        0.0498
      4  C30        0.8560   66.6780   44.4560 C.2     1  VIA1        0.1051
      5  N29        1.0030   66.2070   45.7300 N.2     1  VIA1       -0.1827
      6  N28        1.1330   64.8800   45.7020 N.pl3   1  VIA1       -0.2099
      7  C31        1.3020   64.0880   46.9040 C.3     1  VIA1        0.1358
      8  C24        1.0770   64.4190   44.3740 C.3     1  VIA1        0.2631
      9  C23        1.1460   63.1040   43.7230 C.1     1  VIA1        0.2168
     10  O27        1.2960   62.0090   44.3010 O.2     1  VIA1       -0.2113
     11  N22        1.0220   63.1550   42.3070 N.2     1  VIA1       -0.2682
     12  C21        0.8500   64.3860   41.6120 C.1     1  VIA1        0.1525
     13  N26        0.7830   65.5720   42.1890 N.2     1  VIA1       -0.3394
     14  C25        0.8940   65.5810   43.5510 C.2     1  VIA1        0.1728
     15  C9         0.7290   64.4170   40.1250 C.ar    1  VIA1        0.1215
     16  C8        -0.1910   65.3240   39.5790 C.ar    1  VIA1        0.0350
     17  C7        -0.3890   65.4600   38.1910 C.ar    1  VIA1        0.1231
     18  C6         0.4020   64.6380   37.3560 C.ar    1  VIA1        0.0231
     19  C5         1.3370   63.7340   37.8700 C.ar    1  VIA1        0.0390
     20  C4         1.5280   63.6030   39.2710 C.ar    1  VIA1        0.1499
     21  O3         2.4190   62.7670   39.9140 O.3     1  VIA1       -0.4747
     22  C2         3.0520   61.6690   39.2380 C.3     1  VIA1        0.2056
     23  C1         2.0050   60.5870   39.0740 C.3     1  VIA1        0.0512
     24  S10       -1.5390   66.5660   37.5580 S.O2    1  VIA1        0.0634
     25  O11       -2.3640   67.0010   38.6200 O.2     1  VIA1       -0.1528
     26  O12       -2.2000   65.9270   36.4840 O.2     1  VIA1       -0.1528
     27  N14       -0.6900   67.8710   37.0290 N.3     1  VIA1       -0.1527
     28  C19        0.1440   68.6530   37.9190 C.3     1  VIA1        0.1131
     29  C18        0.4010   70.1110   37.4660 C.3     1  VIA1        0.0915
     30  N17        0.8010   70.2130   36.0680 N.3     1  VIA1       -0.2690
     31  C20        1.1440   71.5550   35.6370 C.3     1  VIA1        0.0897
     32  C16       -0.1450   69.5450   35.1970 C.3     1  VIA1        0.0915
     33  C15       -0.3860   68.0780   35.6220 C.3     1  VIA1        0.1131
@<TRIPOS>BOND
     1    32    33    1
     2    32    30    1
     3    33    27    1
     4    31    30    1
     5    30    29    1
     6    26    24    2
     7    27    24    1
     8    27    28    1
     9    18    19   ar
    10    18    17   ar
    11    29    28    1
    12    24    17    1
    13    24    25    2
    14    19    20   ar
    15    17    16   ar
    16    23    22    1
    17    22    21    1
    18    20    21    1
    19    20    15   ar
    20    16    15   ar
    21    15    12    1
    22    12    13    2
    23    12    11    2
    24    13    14    2
    25    11     9    2
    26     1     2    1
    27     2     3    1
    28    14     8    1
    29    14     4    1
    30     9    10    2
    31     9     8    1
    32     3     4    1
    33     8     6    1
    34     4     5    2
    35     6     5    1
    36     6     7    1
