@<TRIPOS>MOLECULE
1xot_VDN_A_1.pdb
 34 37 0 0 0
SMALL
GASTEIGER

@<TRIPOS>ATOM
      1  C1         5.9540    2.5270   45.6530 C.3   101  VDN101      0.0512
      2  C2         5.3600    1.4260   44.7940 C.3   101  VDN101      0.2056
      3  O3         5.2620    1.8330   43.4210 O.3   101  VDN101     -0.4748
      4  C4         5.7510    0.8940   42.5630 C.ar  101  VDN101      0.1489
      5  C5         7.1350    0.7940   42.3390 C.ar  101  VDN101      0.0390
      6  C6         7.6690   -0.1870   41.4740 C.ar  101  VDN101      0.0231
      7  C7         6.8160   -1.1010   40.8450 C.ar  101  VDN101      0.1231
      8  C8         5.4550   -0.9820   41.0720 C.ar  101  VDN101      0.0341
      9  C9         4.9130    0.0040   41.9010 C.ar  101  VDN101      0.1114
     10  S10        7.2830   -2.2400   39.8120 S.O2  101  VDN101      0.0634
     11  O11        8.0360   -3.2980   40.4750 O.2   101  VDN101     -0.1528
     12  O12        6.0970   -2.7920   39.1830 O.2   101  VDN101     -0.1528
     13  C13        9.4740   -0.1190   34.2220 C.3   101  VDN101      0.0188
     14  N14        8.0590   -1.5350   38.6900 N.3   101  VDN101     -0.1527
     15  C15        7.4830   -0.2630   38.2080 C.3   101  VDN101      0.1131
     16  C16        7.8270   -0.1040   36.7360 C.3   101  VDN101      0.0915
     17  N17        9.2790   -0.1960   36.6650 N.3   101  VDN101     -0.2702
     18  C18        9.8860   -1.4530   37.1240 C.3   101  VDN101      0.0915
     19  C19        9.5070   -1.7070   38.5860 C.3   101  VDN101      0.1131
     20  C20        9.9140    0.5020   35.5400 C.3   101  VDN101      0.0722
     21  C21        3.4420   -0.1520   42.0260 C.1   101  VDN101      0.1184
     22  N22        2.7030    0.3820   43.1950 N.2   101  VDN101     -0.2785
     23  C23        1.3660    0.4980   43.1450 C.1   101  VDN101      0.2158
     24  C24        0.7160    0.2620   41.8220 C.3   101  VDN101      0.2637
     25  N25        1.3490   -0.0990   40.7190 N.pl3 101  VDN101     -0.1572
     26  N26        2.7360   -0.2410   40.7380 N.2   101  VDN101     -0.1078
     27  O27        0.6750    0.8210   44.0890 O.2   101  VDN101     -0.2113
     28  C28       -0.6500    0.3430   41.4730 C.2   101  VDN101      0.1253
     29  N29       -0.7110    0.0220   40.1470 N.2   101  VDN101     -0.3955
     30  C30        0.5500   -0.2470   39.6770 C.2   101  VDN101      0.1799
     31  C31       -1.8380    0.7230   42.3180 C.3   101  VDN101      0.0646
     32  C32        0.9600   -0.6890   38.3060 C.3   101  VDN101      0.0765
     33  C33        0.8990    0.4420   37.3140 C.3   101  VDN101      0.0089
     34  C34        1.0170   -0.1660   35.9300 C.3   101  VDN101      0.0005
@<TRIPOS>BOND
     1    13    20    1
     2    20    17    1
     3    34    33    1
     4    17    16    1
     5    17    18    1
     6    16    15    1
     7    18    19    1
     8    33    32    1
     9    15    14    1
    10    32    30    1
    11    19    14    1
    12    14    10    1
    13    12    10    2
    14    30    29    2
    15    30    25    1
    16    10    11    2
    17    10     7    1
    18    29    28    2
    19    25    26    1
    20    25    24    1
    21    26    21    2
    22     7     8   ar
    23     7     6   ar
    24     8     9   ar
    25    28    24    1
    26    28    31    1
    27     6     5   ar
    28    24    23    1
    29     9    21    1
    30     9     4   ar
    31    21    22    2
    32     5     4   ar
    33     4     3    1
    34    23    22    2
    35    23    27    2
    36     3     2    1
    37     2     1    1
