@<TRIPOS>MOLECULE
1xow_R18_A_1.pdb
 21 24 0 0 0
SMALL
GASTEIGER

@<TRIPOS>ATOM
      1  C1        27.2730    5.3280    3.7120 C.3   1001  R181001     0.0338
      2  C2        26.4510    6.5420    4.1340 C.3   1001  R181001     0.0738
      3  C3        24.9630    6.4080    3.9610 C.2   1001  R181001     0.1731
      4  C4        24.4020    5.1070    4.2980 C.2   1001  R181001     0.0329
      5  C5        25.1310    3.9470    4.3720 C.2   1001  R181001    -0.0236
      6  C6        24.4330    2.6110    4.7480 C.3   1001  R181001     0.0265
      7  C7        25.1750    1.4490    4.0730 C.3   1001  R181001     0.0090
      8  C8        26.6550    1.4300    4.4970 C.3   1001  R181001     0.0227
      9  C9        27.3360    2.8010    4.1460 C.2   1001  R181001    -0.0270
     10  C10       26.6220    3.9420    4.0680 C.2   1001  R181001    -0.0296
     11  C11       28.8100    2.7460    3.9390 C.2   1001  R181001    -0.0091
     12  C12       29.5530    1.6240    4.0180 C.2   1001  R181001    -0.0247
     13  C13       28.9480    0.2640    4.3110 C.3   1001  R181001     0.0447
     14  C14       27.4610    0.2610    3.8450 C.3   1001  R181001     0.0101
     15  C15       26.9340   -1.1800    4.1400 C.3   1001  R181001     0.0032
     16  C16       28.2410   -1.9740    3.8510 C.3   1001  R181001     0.0308
     17  C17       29.4280   -0.9660    3.5200 C.3   1001  R181001     0.1300
     18  C18       29.0060    0.0310    5.8840 C.3   1001  R181001     0.0068
     19  C27       29.4750   -0.7980    2.0210 C.3   1001  R181001     0.0333
     20  O83       24.2470    7.3520    3.6270 O.2   1001  R181001    -0.2913
     21  O97       30.6330   -1.5560    4.0600 O.3   1001  R181001    -0.2254
@<TRIPOS>BOND
     1    19    17    1
     2    17    16    1
     3    17    21    1
     4    17    13    1
     5    20     3    2
     6     1    10    1
     7     1     2    1
     8    14    15    1
     9    14    13    1
    10    14     8    1
    11    16    15    1
    12    11    12    2
    13    11     9    1
    14     3     2    1
    15     3     4    1
    16    12    13    1
    17    10     9    2
    18    10     5    1
    19     7     8    1
    20     7     6    1
    21     9     8    1
    22     4     5    2
    23    13    18    1
    24     5     6    1
