@<TRIPOS>MOLECULE
1xoz_CIA_A_1.pdb
 29 34 0 0 0
SMALL
GASTEIGER

@<TRIPOS>ATOM
      1  C3        42.8220   37.8770   10.1470 C.ar  501  CIA501      0.0026
      2  C2        42.9660   38.2730   11.5040 C.ar  501  CIA501      0.0002
      3  C1        43.8200   37.6730   12.4150 C.ar  501  CIA501      0.0023
      4  C6        44.5670   36.6040   11.8900 C.ar  501  CIA501      0.0279
      5  C7        45.5670   35.7220   12.5090 C.2   501  CIA501      0.0098
      6  C8        45.9500   34.8780   11.5180 C.2   501  CIA501      0.1273
      7  N9        45.3070   35.1450   10.3960 N.2   501  CIA501     -0.4046
      8  C5        44.4430   36.1950   10.5540 C.ar  501  CIA501      0.1308
      9  C4        43.5880   36.7990    9.6480 C.ar  501  CIA501      0.0320
     10  C13       46.9640   33.8340   11.7720 C.3   501  CIA501      0.1504
     11  N12       47.2580   33.5750   13.1710 N.am  501  CIA501     -0.2628
     12  C17       48.1380   32.5760   13.3970 C.2   501  CIA501      0.2468
     13  O20       48.6650   31.9330   12.5250 O.2   501  CIA501     -0.2730
     14  C16       48.4930   32.2400   14.7760 C.3   501  CIA501      0.1794
     15  N15       48.1260   33.1800   15.8350 N.am  501  CIA501     -0.2682
     16  C31       47.2490   34.1540   15.6280 C.2   501  CIA501      0.2445
     17  O32       46.8900   34.9790   16.4840 O.2   501  CIA501     -0.2731
     18  C11       46.6300   34.3090   14.2750 C.3   501  CIA501      0.1570
     19  C10       46.0970   35.7020   13.9150 C.3   501  CIA501      0.0580
     20  C18       48.7160   33.0530   17.1550 C.3   501  CIA501      0.1154
     21  C22       48.2060   34.2980   10.9340 C.ar  501  CIA501      0.0057
     22  C27       48.7360   33.4820    9.8960 C.ar  501  CIA501      0.0011
     23  C26       49.8220   33.8410    9.1280 C.ar  501  CIA501      0.0399
     24  C25       50.4030   35.0570    9.4070 C.ar  501  CIA501      0.1764
     25  O30       51.4800   35.6170    8.7840 O.3   501  CIA501     -0.4346
     26  C29       51.8080   36.6900    9.6600 C.3   501  CIA501      0.4294
     27  O28       50.6580   37.0270   10.4910 O.3   501  CIA501     -0.4346
     28  C24       49.9300   35.8680   10.3900 C.ar  501  CIA501      0.1762
     29  C23       48.8280   35.5130   11.1710 C.ar  501  CIA501      0.0379
@<TRIPOS>BOND
     1    25    24    1
     2    25    26    1
     3    23    24   ar
     4    23    22   ar
     5    24    28   ar
     6     9     1   ar
     7     9     8   ar
     8    26    27    1
     9    22    21   ar
    10     1     2   ar
    11    28    27    1
    12    28    29   ar
    13     7     8    2
    14     7     6    2
    15     8     4   ar
    16    21    29   ar
    17    21    10    1
    18     2     3   ar
    19     6    10    1
    20     6     5    1
    21    10    11    1
    22     4     3   ar
    23     4     5    2
    24     5    19    1
    25    13    12    2
    26    11    12   am
    27    11    18    1
    28    12    14    1
    29    19    18    1
    30    18    16    1
    31    14    15    1
    32    16    15   am
    33    16    17    2
    34    15    20    1
