@<TRIPOS>MOLECULE
1xp0_VDN_A_1.pdb
 34 37 0 0 0
SMALL
GASTEIGER

@<TRIPOS>ATOM
      1  C1       -17.3110   28.7690   59.4250 C.3   201  VDN201      0.0512
      2  C2       -18.4240   27.7500   59.5520 C.3   201  VDN201      0.2056
      3  O3       -19.4990   28.3170   60.2890 O.3   201  VDN201     -0.4748
      4  C4       -20.6790   27.6470   60.5320 C.ar  201  VDN201      0.1489
      5  C5       -20.8720   26.3220   60.1320 C.ar  201  VDN201      0.0390
      6  C6       -22.0880   25.7000   60.4070 C.ar  201  VDN201      0.0231
      7  C7       -23.1120   26.3870   61.0750 C.ar  201  VDN201      0.1231
      8  C8       -22.9030   27.7070   61.4740 C.ar  201  VDN201      0.0341
      9  C9       -21.7100   28.3360   61.1660 C.ar  201  VDN201      0.1114
     10  S10      -24.5130   25.6830   61.4210 S.O2  201  VDN201      0.0634
     11  O11      -25.6280   26.5010   61.0510 O.2   201  VDN201     -0.1528
     12  O12      -24.5590   24.4480   60.7000 O.2   201  VDN201     -0.1528
     13  C13      -23.9260   24.9690   67.8530 C.3   201  VDN201      0.0188
     14  N14      -24.6520   25.3890   62.9190 N.3   201  VDN201     -0.1527
     15  C15      -23.5890   24.5300   63.4650 C.3   201  VDN201      0.1131
     16  C16      -23.7010   24.3520   64.9680 C.3   201  VDN201      0.0915
     17  N17      -23.9540   25.6730   65.5070 N.3   201  VDN201     -0.2702
     18  C18      -25.3030   26.1390   65.2360 C.3   201  VDN201      0.0915
     19  C19      -25.4770   26.3040   63.7200 C.3   201  VDN201      0.1131
     20  C20      -23.3800   25.9480   66.8200 C.3   201  VDN201      0.0722
     21  C21      -21.3890   29.7160   61.6140 C.1   201  VDN201      0.1184
     22  N22      -21.0380   30.7260   60.6430 N.2   201  VDN201     -0.2785
     23  C23      -20.9950   32.0290   60.9210 C.1   201  VDN201      0.2158
     24  C24      -21.5360   32.3970   62.2430 C.3   201  VDN201      0.2637
     25  N25      -21.9910   31.5330   63.1240 N.pl3 201  VDN201     -0.1572
     26  N26      -22.0380   30.1810   62.8070 N.2   201  VDN201     -0.1078
     27  O27      -20.5730   32.8270   60.0980 O.2   201  VDN201     -0.2113
     28  C28      -21.7100   33.6360   62.8500 C.2   201  VDN201      0.1253
     29  N29      -22.2670   33.3890   64.0670 N.2   201  VDN201     -0.3955
     30  C30      -22.4610   32.0570   64.2250 C.2   201  VDN201      0.1799
     31  C31      -21.3840   35.0070   62.3250 C.3   201  VDN201      0.0646
     32  C32      -23.0180   31.3240   65.4100 C.3   201  VDN201      0.0765
     33  C33      -21.8600   30.6260   66.1240 C.3   201  VDN201      0.0089
     34  C34      -22.4100   29.8920   67.3240 C.3   201  VDN201      0.0005
@<TRIPOS>BOND
     1     1     2    1
     2     2     3    1
     3    27    23    2
     4     5     6   ar
     5     5     4   ar
     6     3     4    1
     7     6     7   ar
     8     4     9   ar
     9    22    23    2
    10    22    21    2
    11    12    10    2
    12    23    24    1
    13    11    10    2
    14     7    10    1
    15     7     8   ar
    16     9     8   ar
    17     9    21    1
    18    10    14    1
    19    21    26    2
    20    24    28    1
    21    24    25    1
    22    31    28    1
    23    26    25    1
    24    28    29    2
    25    14    15    1
    26    14    19    1
    27    25    30    1
    28    15    16    1
    29    19    18    1
    30    29    30    2
    31    30    32    1
    32    16    17    1
    33    18    17    1
    34    32    33    1
    35    17    20    1
    36    33    34    1
    37    20    13    1
