@<TRIPOS>MOLECULE
1xp1_AIH_A_1.pdb
 34 38 0 0 0
SMALL
GASTEIGER

@<TRIPOS>ATOM
      1  C1        31.0200   -0.1590   28.8830 C.3   600  AIH600      0.1184
      2  C2        31.2290   -1.6020   28.3540 C.3   600  AIH600      0.2023
      3  O3        29.9990   -2.3260   28.6030 O.3   600  AIH600     -0.4730
      4  C4        28.7870   -1.9020   28.1250 C.ar  600  AIH600      0.1447
      5  C5        27.8770   -2.9010   27.8170 C.ar  600  AIH600      0.0407
      6  C6        26.6200   -2.5960   27.2970 C.ar  600  AIH600      0.0452
      7  C7        26.2510   -1.2290   27.1610 C.ar  600  AIH600      0.1964
      8  O8        25.0100   -0.9830   26.6580 O.3   600  AIH600     -0.2866
      9  C9        27.1760   -0.2260   27.4850 C.ar  600  AIH600      0.0512
     10  C10       28.4710   -0.5330   27.9000 C.ar  600  AIH600      0.0628
     11  S11       29.4850    0.5350   28.2710 S.3   600  AIH600     -0.1029
     12  C12       32.3210    0.5570   28.5810 C.ar  600  AIH600     -0.0081
     13  C13       32.5280    1.3640   27.4550 C.ar  600  AIH600     -0.0000
     14  C14       33.7900    1.9610   27.3250 C.ar  600  AIH600      0.0417
     15  C15       34.8180    1.7460   28.2770 C.ar  600  AIH600      0.1957
     16  O16       36.0360    2.3080   28.1080 O.3   600  AIH600     -0.2866
     17  C17       34.6020    0.9470   29.4060 C.ar  600  AIH600      0.0417
     18  C18       33.3320    0.3420   29.5310 C.ar  600  AIH600     -0.0000
     19  C19       31.6000   -1.7960   26.8740 C.ar  600  AIH600      0.0186
     20  C20       32.5980   -2.7670   26.6020 C.ar  600  AIH600      0.0023
     21  C21       33.0380   -3.0360   25.3010 C.ar  600  AIH600      0.0367
     22  C22       32.4280   -2.3410   24.2250 C.ar  600  AIH600      0.1386
     23  C23       31.4720   -1.3810   24.4850 C.ar  600  AIH600      0.0367
     24  C24       31.0490   -1.0880   25.8190 C.ar  600  AIH600      0.0023
     25  O25       32.8320   -2.5750   22.9510 O.3   600  AIH600     -0.4740
     26  C26       33.6620   -3.7020   22.6190 C.3   600  AIH600      0.2226
     27  C27       33.8330   -3.8100   21.0910 C.3   600  AIH600      0.1200
     28  N28       32.6000   -4.0420   20.3000 N.3   600  AIH600     -0.2696
     29  C29       33.0510   -4.0280   18.8880 C.3   600  AIH600      0.0722
     30  C30       31.7120   -3.8610   18.1380 C.3   600  AIH600      0.0173
     31  C31       31.8860   -3.5740   16.6460 C.3   600  AIH600      0.0015
     32  C32       31.1200   -2.6760   18.9190 C.3   600  AIH600      0.0173
     33  C33       29.5960   -2.6780   18.7890 C.3   600  AIH600      0.0015
     34  C34       31.6110   -2.9360   20.3690 C.3   600  AIH600      0.0722
@<TRIPOS>BOND
     1    31    30    1
     2    30    29    1
     3    30    32    1
     4    33    32    1
     5    29    28    1
     6    32    34    1
     7    28    34    1
     8    28    27    1
     9    27    26    1
    10    26    25    1
    11    25    22    1
    12    22    23   ar
    13    22    21   ar
    14    23    24   ar
    15    21    20   ar
    16    24    19   ar
    17    20    19   ar
    18     8     7    1
    19    19     2    1
    20     7     6   ar
    21     7     9   ar
    22     6     5   ar
    23    14    13   ar
    24    14    15   ar
    25    13    12   ar
    26     9    10   ar
    27     5     4   ar
    28    10     4   ar
    29    10    11    1
    30    16    15    1
    31     4     3    1
    32    11     1    1
    33    15    17   ar
    34     2     3    1
    35     2     1    1
    36    12     1    1
    37    12    18   ar
    38    17    18   ar
