@<TRIPOS>MOLECULE
1xp5_TG1_A_1.pdb
 46 48 0 0 0
SMALL
GASTEIGER

@<TRIPOS>ATOM
      1  C34        0.7060   28.8700  -54.9540 C.3   999  TG1999      0.0474
      2  C11        1.1160   28.4780  -56.4260 C.3   999  TG1999      0.2470
      3  C7         1.0020   29.7010  -57.4580 C.3   999  TG1999      0.2380
      4  C8         2.1320   30.8650  -57.3420 C.3   999  TG1999      0.2067
      5  C9         2.0520   32.0590  -58.3610 C.3   999  TG1999      0.0869
      6  C10        1.8380   31.8160  -59.9200 C.3   999  TG1999      0.1465
      7  C1         0.5770   30.9230  -60.4400 C.3   999  TG1999      0.1022
      8  C2         0.3680   31.0360  -61.9940 C.3   999  TG1999      0.2195
      9  O1        -0.9690   31.5280  -62.3050 O.3   999  TG1999     -0.4477
     10  C13       -1.1220   32.0910  -63.6460 C.2   999  TG1999      0.3170
     11  O2        -0.4580   32.9940  -64.1610 O.2   999  TG1999     -0.2501
     12  C14       -2.2830   31.3590  -64.3530 C.3   999  TG1999      0.1096
     13  C15       -2.0130   30.9490  -65.8010 C.3   999  TG1999      0.0116
     14  C16       -1.9300   32.0890  -66.8370 C.3   999  TG1999      0.0006
     15  C17       -1.0360   31.7420  -68.0510 C.3   999  TG1999      0.0000
     16  C18       -1.8470   31.5320  -69.3480 C.3   999  TG1999      0.0000
     17  C19       -1.7960   32.6900  -70.3400 C.3   999  TG1999      0.0000
     18  C20       -2.9120   33.6870  -70.0000 C.3   999  TG1999      0.0000
     19  C3         0.4550   29.6500  -62.6100 C.3   999  TG1999      0.2271
     20  O3         1.7510   29.8840  -63.3650 O.3   999  TG1999     -0.4414
     21  C21        1.9100   29.5070  -64.6400 C.2   999  TG1999      0.3372
     22  O4         1.3530   28.4380  -65.2050 O.2   999  TG1999     -0.2453
     23  C22        2.8720   30.4660  -65.4690 C.2   999  TG1999      0.0495
     24  C23        2.0990   31.1300  -66.5420 C.3   999  TG1999      0.0375
     25  C24        4.1670   30.7660  -65.3800 C.2   999  TG1999     -0.0236
     26  C25        5.2290   30.2900  -64.4300 C.3   999  TG1999      0.0306
     27  C4         0.6510   28.7340  -61.4220 C.2   999  TG1999     -0.0052
     28  C26        0.7490   27.2560  -61.6880 C.3   999  TG1999      0.0296
     29  C5         0.7210   29.4110  -60.2260 C.2   999  TG1999      0.0000
     30  C6         0.9220   28.8260  -58.7680 C.3   999  TG1999      0.2211
     31  O5        -0.1290   27.9120  -58.3930 O.3   999  TG1999     -0.4435
     32  C12        0.1960   27.4630  -57.1380 C.2   999  TG1999      0.3477
     33  O12       -0.1600   26.3900  -56.6490 O.2   999  TG1999     -0.2473
     34  C31        3.2450   31.3210  -60.4490 C.3   999  TG1999      0.0443
     35  O9         1.8730   33.1590  -60.6100 O.3   999  TG1999     -0.4552
     36  C32        1.0980   34.2630  -60.7530 C.2   999  TG1999      0.3173
     37  O10       -0.1000   34.3410  -60.5560 O.2   999  TG1999     -0.2501
     38  C33        1.9320   35.3670  -61.2260 C.3   999  TG1999      0.1212
     39  O7         3.4940   30.2390  -57.4110 O.3   999  TG1999     -0.4493
     40  C27        4.2890   30.0040  -56.2440 C.2   999  TG1999      0.3169
     41  O8         4.0190   30.2480  -55.0590 O.2   999  TG1999     -0.2501
     42  C28        5.5720   29.3670  -56.6860 C.3   999  TG1999      0.1096
     43  C29        6.7610   30.0160  -55.9810 C.3   999  TG1999      0.0116
     44  C30        7.8380   28.9650  -55.9340 C.3   999  TG1999      0.0006
     45  O6        -0.3280   30.3640  -57.3460 O.3   999  TG1999     -0.2147
     46  O11        2.3390   27.6660  -56.3570 O.3   999  TG1999     -0.2114
@<TRIPOS>BOND
     1    17    18    1
     2    17    16    1
     3    16    15    1
     4    15    14    1
     5    14    13    1
     6    24    23    1
     7    13    12    1
     8    23    25    2
     9    23    21    1
    10    25    26    1
    11    22    21    2
    12    21    20    1
    13    12    10    1
    14    11    10    2
    15    10     9    1
    16    20    19    1
    17    19     8    1
    18    19    27    1
    19     9     8    1
    20     8     7    1
    21    28    27    1
    22    27    29    2
    23    38    36    1
    24    36    35    1
    25    36    37    2
    26    35     6    1
    27    34     6    1
    28     7    29    1
    29     7     6    1
    30    29    30    1
    31     6     5    1
    32    30    31    1
    33    30     3    1
    34    31    32    1
    35     5     4    1
    36     3    45    1
    37     3     4    1
    38     3     2    1
    39    39     4    1
    40    39    40    1
    41    32    33    2
    42    32     2    1
    43    42    40    1
    44    42    43    1
    45     2    46    1
    46     2     1    1
    47    40    41    2
    48    43    44    1
