@<TRIPOS>MOLECULE
1xp6_AIU_A_1.pdb
 34 38 0 0 0
SMALL
GASTEIGER

@<TRIPOS>ATOM
      1  C1        31.0270   -0.1900   28.7830 C.3   600  AIU600      0.1184
      2  C2        31.2250   -1.6340   28.2420 C.3   600  AIU600      0.2023
      3  O3        30.0210   -2.3830   28.5070 O.3   600  AIU600     -0.4730
      4  C4        28.8010   -1.9190   28.0510 C.ar  600  AIU600      0.1447
      5  C5        27.8900   -2.9280   27.7530 C.ar  600  AIU600      0.0407
      6  C6        26.6110   -2.6360   27.2660 C.ar  600  AIU600      0.0452
      7  C7        26.2660   -1.2640   27.1360 C.ar  600  AIU600      0.1964
      8  O8        25.0400   -0.9700   26.6450 O.3   600  AIU600     -0.2866
      9  C9        27.1900   -0.2550   27.4600 C.ar  600  AIU600      0.0512
     10  C10       28.4850   -0.5530   27.8910 C.ar  600  AIU600      0.0628
     11  S11       29.5020    0.5530   28.1750 S.3   600  AIU600     -0.1029
     12  C12       32.3330    0.5290   28.4880 C.ar  600  AIU600     -0.0081
     13  C13       32.5040    1.3730   27.3770 C.ar  600  AIU600     -0.0000
     14  C14       33.7600    1.9730   27.2170 C.ar  600  AIU600      0.0417
     15  C15       34.7850    1.7270   28.1480 C.ar  600  AIU600      0.1957
     16  O16       36.0150    2.2430   27.9460 O.3   600  AIU600     -0.2866
     17  C17       34.5960    0.9020   29.2720 C.ar  600  AIU600      0.0417
     18  C18       33.3440    0.2940   29.4330 C.ar  600  AIU600     -0.0000
     19  C19       31.5760   -1.8410   26.7630 C.ar  600  AIU600      0.0186
     20  C20       32.4990   -2.8610   26.4620 C.ar  600  AIU600      0.0023
     21  C21       32.8860   -3.1410   25.1300 C.ar  600  AIU600      0.0367
     22  C22       32.3380   -2.4080   24.0670 C.ar  600  AIU600      0.1386
     23  C23       31.4570   -1.3750   24.3620 C.ar  600  AIU600      0.0367
     24  C24       31.0550   -1.1170   25.6860 C.ar  600  AIU600      0.0023
     25  O25       32.7200   -2.6100   22.7790 O.3   600  AIU600     -0.4740
     26  C26       33.3950   -3.8340   22.4390 C.3   600  AIU600      0.2226
     27  C27       33.7950   -3.9440   20.9580 C.3   600  AIU600      0.1200
     28  N28       32.6910   -4.0790   19.9940 N.3   600  AIU600     -0.2696
     29  C29       33.3300   -4.1290   18.6540 C.3   600  AIU600      0.0722
     30  C30       32.2840   -3.5570   17.6700 C.3   600  AIU600      0.0173
     31  C31       31.8080   -4.6130   16.6500 C.3   600  AIU600      0.0015
     32  C32       31.0980   -3.1780   18.5790 C.3   600  AIU600      0.0173
     33  C33       30.3090   -1.9930   18.0100 C.3   600  AIU600      0.0015
     34  C34       31.7990   -2.9000   19.9220 C.3   600  AIU600      0.0722
@<TRIPOS>BOND
     1    31    30    1
     2    30    32    1
     3    30    29    1
     4    33    32    1
     5    32    34    1
     6    29    28    1
     7    34    28    1
     8    28    27    1
     9    27    26    1
    10    26    25    1
    11    25    22    1
    12    22    23   ar
    13    22    21   ar
    14    23    24   ar
    15    21    20   ar
    16    24    19   ar
    17    20    19   ar
    18     8     7    1
    19    19     2    1
    20     7     6   ar
    21     7     9   ar
    22    14    13   ar
    23    14    15   ar
    24     6     5   ar
    25    13    12   ar
    26     9    10   ar
    27     5     4   ar
    28    10     4   ar
    29    10    11    1
    30    16    15    1
    31     4     3    1
    32    15    17   ar
    33    11     1    1
    34     2     3    1
    35     2     1    1
    36    12     1    1
    37    12    18   ar
    38    17    18   ar
