@<TRIPOS>MOLECULE
1xp8_AGS_A_1.pdb
 31 33 0 0 0
SMALL
GASTEIGER

@<TRIPOS>ATOM
      1  PG        18.5510   14.8800    7.9480 P.3   400  AGS400      0.4340
      2  S1G       19.1390   14.2120    6.2290 S.3   400  AGS400      0.0416
      3  O2G       17.5050   13.9760    8.4790 O.2   400  AGS400     -0.2423
      4  O3G       19.7330   15.1560    8.7960 O.3   400  AGS400     -0.1305
      5  PB        18.6400   17.6900    7.6230 P.3   400  AGS400      0.2262
      6  O1B       17.6960   18.7390    8.0700 O.2   400  AGS400     -0.5168
      7  O2B       19.9070   17.5310    8.3710 O.3   400  AGS400     -0.4369
      8  O3B       17.8510   16.2860    7.5850 O.3   400  AGS400     -0.2405
      9  PA        20.4720   18.4010    5.5870 P.3   400  AGS400      0.2189
     10  O1A       21.2130   17.1820    5.9840 O.2   400  AGS400     -0.5170
     11  O2A       20.5270   19.7010    6.2910 O.3   400  AGS400     -0.4371
     12  O3A       18.9990   17.9560    6.0730 O.3   400  AGS400     -0.2701
     13  O5'       20.0510   18.4170    4.0310 O.3   400  AGS400     -0.3112
     14  C5'       19.2580   19.4800    3.4940 C.3   400  AGS400      0.1813
     15  C4'       19.6850   19.8210    2.0650 C.3   400  AGS400      0.1821
     16  O4'       21.0540   20.2600    1.9910 O.3   400  AGS400     -0.3135
     17  C3'       19.5850   18.6460    1.0930 C.3   400  AGS400      0.2184
     18  O3'       18.2510   18.4940    0.5990 O.3   400  AGS400     -0.2174
     19  C2'       20.4750   19.1820   -0.0250 C.3   400  AGS400      0.2570
     20  O2'       19.8500   20.2620   -0.7240 O.3   400  AGS400     -0.2130
     21  C1'       21.6510   19.7080    0.8010 C.3   400  AGS400      0.3186
     22  N9        22.5630   18.6120    1.2080 N.pl3 400  AGS400     -0.1439
     23  C8        22.5260   17.9430    2.3590 C.3   400  AGS400      0.3377
     24  N7        23.5270   17.0670    2.4050 N.2   400  AGS400     -0.2095
     25  C5        24.2110   17.1740    1.2710 C.2   400  AGS400      0.2526
     26  C6        25.3330   16.5400    0.7460 C.2   400  AGS400      0.4393
     27  N6        25.9580   15.5880    1.4330 N.pl3 400  AGS400      0.2180
     28  N1        25.7770   16.9000   -0.4680 N.2   400  AGS400      0.0021
     29  C2        25.1680   17.8410   -1.1700 C.3   400  AGS400      0.5254
     30  N3        24.1000   18.4630   -0.7000 N.2   400  AGS400     -0.0055
     31  C4        23.5980   18.1580    0.5060 C.2   400  AGS400      0.3518
@<TRIPOS>BOND
     1    29    30    1
     2    29    28    1
     3    20    19    1
     4    30    31    2
     5    28    26    2
     6    19    21    1
     7    19    17    1
     8    31    22    1
     9    31    25    1
    10    18    17    1
    11    26    25    1
    12    26    27    1
    13    21    22    1
    14    21    16    1
    15    17    15    1
    16    22    23    1
    17    25    24    2
    18    16    15    1
    19    15    14    1
    20    23    24    1
    21    14    13    1
    22    13     9    1
    23     9    10    2
    24     9    12    1
    25     9    11    1
    26    12     5    1
    27     2     1    1
    28     8     5    1
    29     8     1    1
    30     5     6    2
    31     5     7    1
    32     1     3    2
    33     1     4    1
