@<TRIPOS>MOLECULE
1xp9_AIJ_A_1.pdb
 33 37 0 0 0
SMALL
GASTEIGER

@<TRIPOS>ATOM
      1  C1        31.1360   -0.2850   28.6940 C.3   600  AIJ600      0.1184
      2  C2        31.2950   -1.7190   28.1530 C.3   600  AIJ600      0.2023
      3  O3        30.0630   -2.4370   28.4040 O.3   600  AIJ600     -0.4730
      4  C4        28.8690   -1.9850   27.9520 C.ar  600  AIJ600      0.1447
      5  C5        27.9440   -2.9910   27.6600 C.ar  600  AIJ600      0.0407
      6  C6        26.6930   -2.6550   27.1630 C.ar  600  AIJ600      0.0452
      7  C7        26.3510   -1.3020   27.0590 C.ar  600  AIJ600      0.1964
      8  O8        25.1290   -1.0050   26.5700 O.3   600  AIJ600     -0.2866
      9  C9        27.2910   -0.3120   27.3510 C.ar  600  AIJ600      0.0512
     10  C10       28.5930   -0.6260   27.7340 C.ar  600  AIJ600      0.0628
     11  S11       29.6230    0.4540   28.0710 S.3   600  AIJ600     -0.1029
     12  C12       32.4330    0.4380   28.4150 C.ar  600  AIJ600     -0.0081
     13  C13       32.6620    1.2840   27.3150 C.ar  600  AIJ600     -0.0000
     14  C14       33.9100    1.8730   27.1470 C.ar  600  AIJ600      0.0417
     15  C15       34.9420    1.6480   28.0870 C.ar  600  AIJ600      0.1957
     16  O16       36.1450    2.2380   27.9740 O.3   600  AIJ600     -0.2866
     17  C17       34.7100    0.8310   29.2040 C.ar  600  AIJ600      0.0417
     18  C18       33.4530    0.2370   29.3560 C.ar  600  AIJ600     -0.0000
     19  C19       31.6520   -1.9240   26.6840 C.ar  600  AIJ600      0.0186
     20  C20       32.4950   -2.9860   26.3360 C.ar  600  AIJ600      0.0023
     21  C21       32.8720   -3.2650   25.0010 C.ar  600  AIJ600      0.0367
     22  C22       32.4110   -2.4520   23.9480 C.ar  600  AIJ600      0.1386
     23  C23       31.5630   -1.3830   24.3090 C.ar  600  AIJ600      0.0367
     24  C24       31.1840   -1.1260   25.6300 C.ar  600  AIJ600      0.0023
     25  O25       32.7620   -2.6460   22.6350 O.3   600  AIJ600     -0.4740
     26  C26       33.3630   -3.9180   22.2850 C.3   600  AIJ600      0.2211
     27  C27       33.8170   -4.1220   20.7900 C.3   600  AIJ600      0.1016
     28  C28       34.6270   -2.8600   20.5950 C.3   600  AIJ600      0.0213
     29  N29       32.7160   -4.2020   19.7730 N.3   600  AIJ600     -0.2708
     30  C30       33.0520   -3.9170   18.3300 C.3   600  AIJ600      0.0722
     31  C31       31.7550   -3.3470   17.6770 C.3   600  AIJ600      0.0188
     32  C32       30.7560   -3.3120   18.8490 C.3   600  AIJ600      0.0188
     33  C33       31.6690   -3.2350   20.0840 C.3   600  AIJ600      0.0722
@<TRIPOS>BOND
     1    31    30    1
     2    31    32    1
     3    30    29    1
     4    32    33    1
     5    29    33    1
     6    29    27    1
     7    28    27    1
     8    27    26    1
     9    26    25    1
    10    25    22    1
    11    22    23   ar
    12    22    21   ar
    13    23    24   ar
    14    21    20   ar
    15    24    19   ar
    16    20    19   ar
    17     8     7    1
    18    19     2    1
    19     7     6   ar
    20     7     9   ar
    21    14    13   ar
    22    14    15   ar
    23     6     5   ar
    24    13    12   ar
    25     9    10   ar
    26     5     4   ar
    27    10     4   ar
    28    10    11    1
    29     4     3    1
    30    16    15    1
    31    11     1    1
    32    15    17   ar
    33     2     3    1
    34     2     1    1
    35    12     1    1
    36    12    18   ar
    37    17    18   ar
