@<TRIPOS>MOLECULE
1xpc_AIT_A_1.pdb
 33 37 0 0 0
SMALL
GASTEIGER

@<TRIPOS>ATOM
      1  C1        31.2360   -0.3230   28.9130 C.3   600  AIT600      0.1184
      2  C2        31.3560   -1.7210   28.2890 C.3   600  AIT600      0.2023
      3  O3        30.1370   -2.4730   28.5440 O.3   600  AIT600     -0.4730
      4  C4        28.9570   -1.9550   28.1010 C.ar  600  AIT600      0.1447
      5  C5        28.0570   -2.9720   27.7510 C.ar  600  AIT600      0.0407
      6  C6        26.8160   -2.6120   27.2910 C.ar  600  AIT600      0.0452
      7  C7        26.4850   -1.2490   27.1580 C.ar  600  AIT600      0.1964
      8  O8        25.2240   -1.0180   26.7530 O.3   600  AIT600     -0.2866
      9  C9        27.3860   -0.2500   27.5540 C.ar  600  AIT600      0.0512
     10  C10       28.6760   -0.5870   27.9840 C.ar  600  AIT600      0.0628
     11  S11       29.7200    0.4830   28.3560 S.3   600  AIT600     -0.1029
     12  C12       32.5450    0.3830   28.6300 C.ar  600  AIT600     -0.0081
     13  C13       32.7400    1.2430   27.5380 C.ar  600  AIT600     -0.0000
     14  C14       33.9970    1.8250   27.3600 C.ar  600  AIT600      0.0417
     15  C15       35.0610    1.5840   28.2530 C.ar  600  AIT600      0.1957
     16  O16       36.2770    2.1500   28.0980 O.3   600  AIT600     -0.2866
     17  C17       34.8610    0.7370   29.3560 C.ar  600  AIT600      0.0417
     18  C18       33.5910    0.1750   29.5280 C.ar  600  AIT600     -0.0000
     19  C19       31.7050   -1.8730   26.8200 C.ar  600  AIT600      0.0186
     20  C20       32.6080   -2.8710   26.4350 C.ar  600  AIT600      0.0023
     21  C21       32.9890   -3.1360   25.1010 C.ar  600  AIT600      0.0367
     22  C22       32.4950   -2.3050   24.0900 C.ar  600  AIT600      0.1386
     23  C23       31.5950   -1.2900   24.4580 C.ar  600  AIT600      0.0367
     24  C24       31.1880   -1.0920   25.7670 C.ar  600  AIT600      0.0023
     25  O25       32.7880   -2.4670   22.7870 O.3   600  AIT600     -0.4740
     26  C26       33.2980   -3.7290   22.3210 C.3   600  AIT600      0.2211
     27  C27       33.6970   -3.6680   20.8220 C.3   600  AIT600      0.1016
     28  C28       34.6260   -4.8430   20.6060 C.3   600  AIT600      0.0213
     29  N29       32.5710   -3.8810   19.8960 N.3   600  AIT600     -0.2708
     30  C30       32.7060   -3.1840   18.5880 C.3   600  AIT600      0.0722
     31  C31       31.2640   -2.9080   18.1050 C.3   600  AIT600      0.0188
     32  C32       30.3740   -3.4510   19.2220 C.3   600  AIT600      0.0188
     33  C33       31.3250   -3.3590   20.4480 C.3   600  AIT600      0.0722
@<TRIPOS>BOND
     1    31    30    1
     2    31    32    1
     3    30    29    1
     4    32    33    1
     5    29    33    1
     6    29    27    1
     7    28    27    1
     8    27    26    1
     9    26    25    1
    10    25    22    1
    11    22    23   ar
    12    22    21   ar
    13    23    24   ar
    14    21    20   ar
    15    24    19   ar
    16    20    19   ar
    17     8     7    1
    18    19     2    1
    19     7     6   ar
    20     7     9   ar
    21     6     5   ar
    22    14    13   ar
    23    14    15   ar
    24    13    12   ar
    25     9    10   ar
    26     5     4   ar
    27    10     4   ar
    28    10    11    1
    29    16    15    1
    30     4     3    1
    31    15    17   ar
    32     2     3    1
    33     2     1    1
    34    11     1    1
    35    12     1    1
    36    12    18   ar
    37    17    18   ar
