@<TRIPOS>MOLECULE
1xpg_C2F_A_1.pdb
 33 35 0 0 0
SMALL
GASTEIGER

@<TRIPOS>ATOM
      1  N1       120.6970   63.9540   43.4420 N.2   1882  C2F1882    -0.2726
      2  C2       121.9360   63.8250   43.9380 C.1   1882  C2F1882     0.2603
      3  NA2      122.3120   62.6720   44.4850 N.pl3 1882  C2F1882    -0.0221
      4  N3       122.7970   64.8510   43.8630 N.2   1882  C2F1882    -0.2515
      5  C4       122.4470   66.0140   43.2910 C.1   1882  C2F1882     0.2218
      6  O4       123.3570   67.0210   43.2070 O.2   1882  C2F1882    -0.2109
      7  C4A      121.1710   66.1790   42.7590 C.3   1882  C2F1882     0.2763
      8  N5       120.8620   67.2520   42.0230 N.3   1882  C2F1882    -0.2435
      9  C6       119.6500   67.2150   41.1870 C.3   1882  C2F1882     0.1062
     10  C7       118.4970   66.5190   41.9160 C.3   1882  C2F1882     0.1547
     11  N8       118.9660   65.2240   42.4550 N.2   1882  C2F1882    -0.2096
     12  C8A      120.2990   65.0970   42.8650 C.1   1882  C2F1882     0.1050
     13  C9       120.0210   66.4930   39.8880 C.3   1882  C2F1882     0.1302
     14  N10      118.8890   65.7570   39.3040 N.pl3 1882  C2F1882    -0.2361
     15  C11      121.2680   68.5620   42.5540 C.3   1882  C2F1882     0.0915
     16  C12      115.8160   67.3600   37.0830 C.ar  1882  C2F1882     0.0551
     17  C13      115.8690   65.9950   37.3460 C.ar  1882  C2F1882     0.0059
     18  C14      116.9130   65.4730   38.1040 C.ar  1882  C2F1882     0.0162
     19  C15      117.9070   66.3120   38.5990 C.ar  1882  C2F1882     0.0654
     20  C16      117.8490   67.6800   38.3420 C.ar  1882  C2F1882     0.0162
     21  C17      116.8040   68.2030   37.5860 C.ar  1882  C2F1882     0.0059
     22  C        114.6740   67.8960   36.2170 C.2   1882  C2F1882     0.2652
     23  O        114.0540   67.1390   35.4710 O.2   1882  C2F1882    -0.2684
     24  N        114.4320   69.2010   36.3000 N.am  1882  C2F1882    -0.1918
     25  CA       113.3520   69.8120   35.5110 C.3   1882  C2F1882     0.1986
     26  CB       112.5870   70.8360   36.3520 C.3   1882  C2F1882     0.0451
     27  CG       111.8820   70.1380   37.5180 C.3   1882  C2F1882     0.1164
     28  CD       111.0060   71.1080   38.3140 C.2   1882  C2F1882     0.3649
     29  OE1      109.8420   71.2920   37.8970 O.co2 1882  C2F1882    -0.2457
     30  OE2      111.5150   71.6350   39.3280 O.co2 1882  C2F1882    -0.2457
     31  CT       113.9160   70.4450   34.2370 C.2   1882  C2F1882     0.3842
     32  O1       114.9310   71.1640   34.3550 O.co2 1882  C2F1882    -0.2437
     33  O2       113.3310   70.1680   33.1680 O.co2 1882  C2F1882    -0.2437
@<TRIPOS>BOND
     1    33    31   ar
     2    31    32   ar
     3    31    25    1
     4    23    22    2
     5    25    24    1
     6    25    26    1
     7    22    24   am
     8    22    16    1
     9    26    27    1
    10    16    17   ar
    11    16    21   ar
    12    17    18   ar
    13    27    28    1
    14    21    20   ar
    15    29    28   ar
    16    18    19   ar
    17    28    30   ar
    18    20    19   ar
    19    19    14    1
    20    14    13    1
    21    13     9    1
    22     9    10    1
    23     9     8    1
    24    10    11    1
    25     8    15    1
    26     8     7    1
    27    11    12    2
    28     7    12    1
    29     7     5    1
    30    12     1    2
    31     6     5    2
    32     5     4    2
    33     1     2    2
    34     4     2    2
    35     2     3    1
