@<TRIPOS>MOLECULE
1xpo_BCM_B_1.pdb
 21 22 0 0 0
SMALL
GASTEIGER

@<TRIPOS>ATOM
      1  C5A       -6.3000   -8.7590   33.0710 C.2   2701  BCM2701    -0.0035
      2  C5        -7.3460   -8.0040   32.7930 C.2   2701  BCM2701     0.0226
      3  C6        -7.1690   -6.5930   32.2600 C.3   2701  BCM2701     0.3247
      4  O6        -5.8530   -6.0440   32.4290 O.3   2701  BCM2701    -0.1781
      5  N10       -8.1490   -5.8860   33.0610 N.2   2701  BCM2701    -0.1571
      6  C9        -9.3850   -5.6300   32.6690 C.1   2701  BCM2701     0.1796
      7  O9       -10.1940   -5.1630   33.4530 O.2   2701  BCM2701    -0.2225
      8  C4        -8.7680   -8.5500   33.0070 C.3   2701  BCM2701     0.0597
      9  C3        -9.6840   -8.4840   31.7550 C.3   2701  BCM2701     0.1498
     10  O2       -10.4990   -7.2870   31.5910 O.3   2701  BCM2701    -0.3235
     11  C1        -9.7800   -6.0750   31.2810 C.3   2701  BCM2701     0.3111
     12  N8        -8.7350   -6.5890   30.4210 N.2   2701  BCM2701    -0.1601
     13  C7        -7.4960   -6.8390   30.8090 C.1   2701  BCM2701     0.1833
     14  O7        -6.6810   -7.3810   30.0790 O.2   2701  BCM2701    -0.2221
     15  C1A      -10.6130   -5.0750   30.4480 C.3   2701  BCM2701     0.2445
     16  O1A      -10.9140   -5.7000   29.2020 O.3   2701  BCM2701    -0.2144
     17  C2A      -11.9160   -4.5340   31.0710 C.3   2701  BCM2701     0.1902
     18  C2B      -12.8930   -4.1210   29.9780 C.3   2701  BCM2701     0.0385
     19  O2A      -12.5570   -5.5330   31.8680 O.3   2701  BCM2701    -0.2201
     20  C3A      -11.6540   -3.3070   31.9410 C.3   2701  BCM2701     0.2149
     21  O3A      -11.0060   -2.2850   31.1970 O.3   2701  BCM2701    -0.2176
@<TRIPOS>BOND
     1    16    15    1
     2    18    17    1
     3    14    13    2
     4    12    13    2
     5    12    11    1
     6    15    17    1
     7    15    11    1
     8    13     3    1
     9    17    19    1
    10    17    20    1
    11    21    20    1
    12    11    10    1
    13    11     6    1
    14    10     9    1
    15     9     8    1
    16     3     4    1
    17     3     2    1
    18     3     5    1
    19     6     5    2
    20     6     7    2
    21     2     8    1
    22     2     1    2
