@<TRIPOS>MOLECULE
1xpo_NUC_G_1.pdb
 40 43 0 0 0
SMALL
GASTEIGER

@<TRIPOS>ATOM
      1  P        -22.2670  -19.0170  -13.0860 P.3     1  RU1         0.3942
      2  OP1      -22.9110  -18.9080  -11.7580 O.3     1  RU1        -0.1425
      3  OP2      -22.6460  -20.1190  -13.9990 O.3     1  RU1        -0.1425
      4  O5'      -20.6750  -19.0130  -12.8950 O.3     1  RU1        -0.2926
      5  C5'      -19.8140  -19.6630  -13.8310 C.3     1  RU1         0.1829
      6  C4'      -19.2390  -20.9330  -13.2240 C.3     1  RU1         0.1772
      7  O4'      -20.3260  -21.8150  -12.8390 O.3     1  RU1        -0.3321
      8  C3'      -18.3110  -21.7450  -14.1300 C.3     1  RU1         0.1857
      9  O3'      -17.0860  -22.0640  -13.4410 O.3     1  RU1        -0.3112
     10  C2'      -19.1320  -22.9930  -14.4760 C.3     1  RU1         0.2291
     11  O2'      -18.3350  -24.1500  -14.6340 O.3     1  RU1        -0.2158
     12  C1'      -20.0340  -23.1340  -13.2520 C.3     1  RU1         0.2399
     13  N1       -21.3330  -23.8760  -13.4690 N.am    1  RU1        -0.1766
     14  C2       -21.5350  -25.1020  -12.8490 C.1     1  RU1         0.2845
     15  O2       -20.7150  -25.6440  -12.1280 O.2     1  RU1        -0.1918
     16  N3       -22.7520  -25.6910  -13.1070 N.2     1  RU1        -0.2452
     17  C4       -23.7710  -25.1910  -13.9020 C.1     1  RU1         0.2182
     18  O4       -24.8080  -25.8340  -14.0400 O.2     1  RU1        -0.2085
     19  C5       -23.4930  -23.9130  -14.5110 C.2     1  RU1         0.1242
     20  C6       -22.3160  -23.3180  -14.2750 C.2     1  RU1         0.0929
     21  P        -15.8640  -21.0220  -13.3620 P.3     2  RC2         0.2141
     22  OP1      -16.1340  -20.0900  -12.2440 O.3     2  RC2        -0.4373
     23  OP2      -15.6330  -20.4820  -14.7200 O.2     2  RC2        -0.5172
     24  O5'      -14.6070  -21.9550  -12.9970 O.3     2  RC2        -0.3114
     25  C5'      -14.0960  -22.0630  -11.6600 C.3     2  RC2         0.1813
     26  C4'      -12.6550  -21.5810  -11.5720 C.3     2  RC2         0.1799
     27  O4'      -12.2330  -21.4930  -10.1920 O.3     2  RC2        -0.3320
     28  C3'      -11.6060  -22.5020  -12.1790 C.3     2  RC2         0.2158
     29  O3'      -11.5270  -22.2940  -13.5860 O.3     2  RC2        -0.2175
     30  C2'      -10.3200  -22.0800  -11.4560 C.3     2  RC2         0.2319
     31  O2'       -9.5200  -21.2010  -12.2250 O.3     2  RC2        -0.2157
     32  C1'      -10.8240  -21.3610  -10.2000 C.3     2  RC2         0.2400
     33  N1       -10.2430  -21.8520   -8.8900 N.am    2  RC2        -0.1778
     34  C2        -9.6050  -20.9460   -8.0170 C.1     2  RC2         0.2756
     35  O2        -9.5220  -19.7490   -8.3240 O.2     2  RC2        -0.1925
     36  N3        -9.0880  -21.4070   -6.8450 N.2     2  RC2        -0.3024
     37  C4        -9.1870  -22.7020   -6.5290 C.2     2  RC2         0.2346
     38  N4        -8.6630  -23.1060   -5.3660 N.pl3   2  RC2        -0.0921
     39  C5        -9.8260  -23.6400   -7.3960 C.2     2  RC2         0.0687
     40  C6       -10.3350  -23.1770   -8.5500 C.2     2  RC2         0.0836
@<TRIPOS>BOND
     1    23    21    2
     2    11    10    1
     3    19    20    2
     4    19    17    1
     5    10     8    1
     6    10    12    1
     7    20    13    1
     8     8     9    1
     9     8     6    1
    10    18    17    2
    11     3     1    1
    12    17    16    2
    13     5     6    1
    14     5     4    1
    15    29    28    1
    16    13    12    1
    17    13    14   am
    18     9    21    1
    19    21    24    1
    20    21    22    1
    21    12     7    1
    22     6     7    1
    23    16    14    2
    24     1     4    1
    25     1     2    1
    26    24    25    1
    27    14    15    2
    28    31    30    1
    29    28    26    1
    30    28    30    1
    31    25    26    1
    32    26    27    1
    33    30    32    1
    34    32    27    1
    35    32    33    1
    36    33    40    1
    37    33    34   am
    38    40    39    2
    39    35    34    2
    40    34    36    2
    41    39    37    1
    42    36    37    2
    43    37    38    1
