@<TRIPOS>MOLECULE
1xpo_AGS_A_1.pdb
 31 33 0 0 0
SMALL
GASTEIGER

@<TRIPOS>ATOM
      1  PG         5.8030  -30.4000   24.1840 P.3   1600  AGS1600     0.4340
      2  S1G        7.4680  -31.3660   23.4290 S.3   1600  AGS1600     0.0416
      3  O2G        4.7400  -30.2100   23.0220 O.2   1600  AGS1600    -0.2423
      4  O3G        6.2320  -28.9800   24.7480 O.3   1600  AGS1600    -0.1305
      5  PB         3.7880  -30.9150   26.0920 P.3   1600  AGS1600     0.2262
      6  O1B        4.0340  -29.9290   27.3100 O.3   1600  AGS1600    -0.4369
      7  O2B        2.7710  -30.2510   25.0780 O.2   1600  AGS1600    -0.5168
      8  O3B        5.1750  -31.3030   25.3670 O.3   1600  AGS1600    -0.2405
      9  PA         3.5720  -33.7750   26.1730 P.3   1600  AGS1600     0.2189
     10  O1A        4.0120  -33.8040   24.6420 O.2   1600  AGS1600    -0.5170
     11  O2A        2.4070  -34.8120   26.4500 O.3   1600  AGS1600    -0.4371
     12  O3A        3.1670  -32.2920   26.6690 O.3   1600  AGS1600    -0.2701
     13  O5'        4.8360  -34.1360   27.0980 O.3   1600  AGS1600    -0.3112
     14  C5'        4.8330  -33.8260   28.4910 C.3   1600  AGS1600     0.1813
     15  C4'        5.4380  -34.9150   29.3730 C.3   1600  AGS1600     0.1821
     16  O4'        4.7830  -34.8270   30.6390 O.3   1600  AGS1600    -0.3135
     17  C3'        5.1970  -36.3120   28.8200 C.3   1600  AGS1600     0.2184
     18  O3'        6.4370  -36.9760   28.6230 O.3   1600  AGS1600    -0.2174
     19  C2'        4.3410  -37.0370   29.8450 C.3   1600  AGS1600     0.2570
     20  O2'        5.0110  -38.1810   30.3500 O.3   1600  AGS1600    -0.2130
     21  C1'        4.1040  -36.0410   30.9710 C.3   1600  AGS1600     0.3186
     22  N9         2.6540  -35.7560   31.1460 N.pl3 1600  AGS1600    -0.1439
     23  C8         1.9500  -34.6840   30.6810 C.3   1600  AGS1600     0.3377
     24  N7         0.6220  -34.7270   31.0300 N.2   1600  AGS1600    -0.2095
     25  C5         0.4630  -35.8550   31.7450 C.2   1600  AGS1600     0.2526
     26  C6        -0.6140  -36.5950   32.4490 C.2   1600  AGS1600     0.4393
     27  N6        -1.8760  -36.1080   32.4610 N.pl3 1600  AGS1600     0.2180
     28  N1        -0.3230  -37.7680   33.0750 N.2   1600  AGS1600     0.0021
     29  C2         0.9170  -38.3080   33.0960 C.3   1600  AGS1600     0.5254
     30  N3         1.9720  -37.7290   32.4940 N.2   1600  AGS1600    -0.0055
     31  C4         1.7630  -36.4840   31.7980 C.2   1600  AGS1600     0.3518
@<TRIPOS>BOND
     1     3     1    2
     2     2     1    1
     3     1     4    1
     4     1     8    1
     5    10     9    2
     6     7     5    2
     7     8     5    1
     8     5    12    1
     9     5     6    1
    10     9    11    1
    11     9    12    1
    12     9    13    1
    13    13    14    1
    14    14    15    1
    15    18    17    1
    16    17    15    1
    17    17    19    1
    18    15    16    1
    19    19    20    1
    20    19    21    1
    21    16    21    1
    22    23    24    1
    23    23    22    1
    24    21    22    1
    25    24    25    2
    26    22    31    1
    27    25    31    1
    28    25    26    1
    29    31    30    2
    30    26    27    1
    31    26    28    2
    32    30    29    1
    33    28    29    1
