@<TRIPOS>MOLECULE
1xpq_SPM_A_1.pdb
 14 13 0 0 0
SMALL
GASTEIGER

@<TRIPOS>ATOM
      1  N1        21.8660    3.4080    9.5030 N.3   924  SPM924     -0.1313
      2  C2        23.0820    2.9040    8.8860 C.3   924  SPM924      0.1108
      3  C3        24.2850    3.1370    9.7960 C.3   924  SPM924      0.0393
      4  C4        25.6340    2.6390    9.2470 C.3   924  SPM924      0.0902
      5  N5        26.4380    1.9230   10.2620 N.3   924  SPM924     -0.2180
      6  C6        27.4840    1.0430    9.6180 C.3   924  SPM924      0.0887
      7  C7        28.3110    0.3080   10.6210 C.3   924  SPM924      0.0203
      8  C8        27.9750   -1.1900   10.6680 C.3   924  SPM924      0.0203
      9  C9        28.8150   -1.8750   11.6890 C.3   924  SPM924      0.0887
     10  N10       28.5110   -3.3770   11.7620 N.3   924  SPM924     -0.2180
     11  C11       27.9910   -3.8070   13.1050 C.3   924  SPM924      0.0902
     12  C12       26.4520   -4.0140   13.0390 C.3   924  SPM924      0.0393
     13  C13       25.9520   -4.4540   14.4400 C.3   924  SPM924      0.1108
     14  N14       24.4770   -4.6760   14.4840 N.3   924  SPM924     -0.1313
@<TRIPOS>BOND
     1     2     1    1
     2     2     3    1
     3     4     3    1
     4     4     5    1
     5     6     5    1
     6     6     7    1
     7     7     8    1
     8     8     9    1
     9     9    10    1
    10    10    11    1
    11    12    11    1
    12    12    13    1
    13    13    14    1
