@<TRIPOS>MOLECULE
1xpr_AGS_A_1.pdb
 31 33 0 0 0
SMALL
GASTEIGER

@<TRIPOS>ATOM
      1  PG         7.2060  -29.2350   24.2560 P.3   1600  AGS1600     0.4340
      2  S1G        8.8420  -30.1420   23.3710 S.3   1600  AGS1600     0.0416
      3  O2G        6.1180  -28.9260   23.1430 O.2   1600  AGS1600    -0.2423
      4  O3G        7.6600  -27.8780   24.9470 O.3   1600  AGS1600    -0.1305
      5  PB         5.2920  -29.8360   26.2270 P.3   1600  AGS1600     0.2262
      6  O1B        5.6950  -28.8710   27.4240 O.3   1600  AGS1600    -0.4369
      7  O2B        4.1840  -29.1450   25.3240 O.2   1600  AGS1600    -0.5168
      8  O3B        6.5910  -30.2340   25.3630 O.3   1600  AGS1600    -0.2405
      9  PA         5.0770  -32.7050   26.3390 P.3   1600  AGS1600     0.2189
     10  O1A        5.3840  -32.7510   24.7750 O.2   1600  AGS1600    -0.5170
     11  O2A        3.9270  -33.7310   26.7220 O.3   1600  AGS1600    -0.4371
     12  O3A        4.7130  -31.2150   26.8480 O.3   1600  AGS1600    -0.2701
     13  O5'        6.4190  -33.0570   27.1530 O.3   1600  AGS1600    -0.3112
     14  C5'        6.5750  -32.6810   28.5220 C.3   1600  AGS1600     0.1813
     15  C4'        7.2060  -33.7630   29.3940 C.3   1600  AGS1600     0.1821
     16  O4'        6.5320  -33.7010   30.6460 O.3   1600  AGS1600    -0.3135
     17  C3'        7.0200  -35.1680   28.8320 C.3   1600  AGS1600     0.2184
     18  O3'        8.2850  -35.7870   28.6430 O.3   1600  AGS1600    -0.2174
     19  C2'        6.1780  -35.9350   29.8360 C.3   1600  AGS1600     0.2570
     20  O2'        6.8870  -37.0510   30.3510 O.3   1600  AGS1600    -0.2130
     21  C1'        5.9000  -34.9490   30.9560 C.3   1600  AGS1600     0.3186
     22  N9         4.4460  -34.7360   31.2110 N.pl3 1600  AGS1600    -0.1439
     23  C8         3.6720  -33.6990   30.7930 C.3   1600  AGS1600     0.3377
     24  N7         2.3690  -33.7960   31.2230 N.2   1600  AGS1600    -0.2095
     25  C5         2.3040  -34.9240   31.9510 C.2   1600  AGS1600     0.2526
     26  C6         1.3040  -35.7070   32.7220 C.2   1600  AGS1600     0.4393
     27  N6         0.0270  -35.2750   32.8110 N.pl3 1600  AGS1600     0.2180
     28  N1         1.6820  -36.8600   33.3380 N.2   1600  AGS1600     0.0021
     29  C2         2.9420  -37.3460   33.2870 C.3   1600  AGS1600     0.5254
     30  N3         3.9340  -36.7280   32.6180 N.2   1600  AGS1600    -0.0055
     31  C4         3.6300  -35.4960   31.9280 C.2   1600  AGS1600     0.3518
@<TRIPOS>BOND
     1     3     1    2
     2     2     1    1
     3     1     4    1
     4     1     8    1
     5    10     9    2
     6     7     5    2
     7     8     5    1
     8     5    12    1
     9     5     6    1
    10     9    11    1
    11     9    12    1
    12     9    13    1
    13    13    14    1
    14    14    15    1
    15    18    17    1
    16    17    15    1
    17    17    19    1
    18    15    16    1
    19    19    20    1
    20    19    21    1
    21    16    21    1
    22    23    22    1
    23    23    24    1
    24    21    22    1
    25    22    31    1
    26    24    25    2
    27    31    25    1
    28    31    30    2
    29    25    26    1
    30    30    29    1
    31    26    27    1
    32    26    28    2
    33    29    28    1
