@<TRIPOS>MOLECULE
1xpr_FB_B_1.pdb
 23 24 0 0 0
SMALL
GASTEIGER

@<TRIPOS>ATOM
      1  O12       -2.4090   -8.0280   33.4120 O.2   2701  FB2701     -0.2739
      2  C12       -3.6100   -8.4360   33.5100 C.2   2701  FB2701      0.2759
      3  C5A       -4.8260   -8.2430   33.3440 C.1   2701  FB2701     -0.0598
      4  C5        -5.9510   -7.6890   33.2500 C.2   2701  FB2701      0.0601
      5  C6        -5.9300   -6.2010   32.9960 C.3   2701  FB2701      0.3311
      6  O6        -4.6750   -5.6180   33.3760 O.3   2701  FB2701     -0.1774
      7  N10       -7.0460   -5.7340   33.7970 N.2   2701  FB2701     -0.1566
      8  C9        -8.2670   -5.5590   33.3220 C.1   2701  FB2701      0.1796
      9  O9        -9.1880   -5.3080   34.0770 O.2   2701  FB2701     -0.2225
     10  C4        -7.2950   -8.4290   33.3140 C.3   2701  FB2701      0.0675
     11  C3        -8.1100   -8.2600   32.0050 C.3   2701  FB2701      0.1505
     12  O2        -9.0710   -7.1660   31.9370 O.3   2701  FB2701     -0.3235
     13  C1        -8.4970   -5.8460   31.8470 C.3   2701  FB2701      0.3111
     14  N8        -7.3240   -6.0990   31.0310 N.2   2701  FB2701     -0.1601
     15  C7        -6.1020   -6.2560   31.4990 C.1   2701  FB2701      0.1839
     16  O7        -5.1710   -6.5920   30.7810 O.2   2701  FB2701     -0.2221
     17  C1A       -9.3680   -4.8490   31.0590 C.3   2701  FB2701      0.2445
     18  O1A       -9.3720   -5.2580   29.6920 O.3   2701  FB2701     -0.2144
     19  C2A      -10.8070   -4.6040   31.5390 C.3   2701  FB2701      0.1902
     20  C2B      -11.7980   -4.8330   30.4130 C.3   2701  FB2701      0.0385
     21  O2A      -11.1930   -5.5080   32.5750 O.3   2701  FB2701     -0.2201
     22  C3A      -10.9460   -3.1750   32.0500 C.3   2701  FB2701      0.2149
     23  O3A      -11.0400   -2.2660   30.9580 O.3   2701  FB2701     -0.2176
@<TRIPOS>BOND
     1    18    17    1
     2    20    19    1
     3    16    15    2
     4    23    22    1
     5    14    15    2
     6    14    13    1
     7    17    19    1
     8    17    13    1
     9    15     5    1
    10    19    22    1
    11    19    21    1
    12    13    12    1
    13    13     8    1
    14    12    11    1
    15    11    10    1
    16     5     4    1
    17     5     6    1
    18     5     7    1
    19     4    10    1
    20     4     3    2
    21     8     7    2
    22     8     9    2
    23     3     2    2
    24     1     2    1
