@<TRIPOS>MOLECULE
1xpr_NUC_G_1.pdb
 40 43 0 0 0
SMALL
GASTEIGER

@<TRIPOS>ATOM
      1  P        -21.9510  -19.8460  -12.8690 P.3     1  RU1         0.3942
      2  OP1      -22.3950  -19.3860  -11.5330 O.3     1  RU1        -0.1425
      3  OP2      -22.3380  -21.1950  -13.3460 O.3     1  RU1        -0.1425
      4  O5'      -20.3590  -19.6760  -12.9750 O.3     1  RU1        -0.2926
      5  C5'      -19.5310  -20.6690  -13.5850 C.3     1  RU1         0.1829
      6  C4'      -18.9530  -21.6070  -12.5340 C.3     1  RU1         0.1772
      7  O4'      -19.9960  -22.4810  -12.0340 O.3     1  RU1        -0.3321
      8  C3'      -17.8200  -22.5220  -12.9900 C.3     1  RU1         0.1857
      9  O3'      -16.8490  -22.6750  -11.9440 O.3     1  RU1        -0.3112
     10  C2'      -18.5190  -23.8440  -13.3200 C.3     1  RU1         0.2291
     11  O2'      -17.7320  -24.9770  -13.0030 O.3     1  RU1        -0.2158
     12  C1'      -19.7790  -23.8160  -12.4490 C.3     1  RU1         0.2399
     13  N1       -21.0410  -24.3030  -13.1160 N.am    1  RU1        -0.1766
     14  C2       -22.0110  -24.9450  -12.3560 C.1     1  RU1         0.2845
     15  O2       -21.9120  -25.1560  -11.1590 O.2     1  RU1        -0.1918
     16  N3       -23.1250  -25.3470  -13.0590 N.2     1  RU1        -0.2452
     17  C4       -23.3670  -25.1720  -14.4130 C.1     1  RU1         0.2182
     18  O4       -24.4140  -25.5850  -14.9030 O.2     1  RU1        -0.2085
     19  C5       -22.3190  -24.4940  -15.1370 C.2     1  RU1         0.1242
     20  C6       -21.2240  -24.0930  -14.4750 C.2     1  RU1         0.0929
     21  P        -15.6720  -21.6060  -11.7210 P.3     2  RC2         0.2141
     22  OP1      -16.0770  -20.7270  -10.6000 O.3     2  RC2        -0.4373
     23  OP2      -15.3200  -21.0080  -13.0290 O.2     2  RC2        -0.5172
     24  O5'      -14.4400  -22.5320  -11.2740 O.3     2  RC2        -0.3114
     25  C5'      -13.7720  -22.3460  -10.0220 C.3     2  RC2         0.1813
     26  C4'      -12.5600  -21.4360  -10.1570 C.3     2  RC2         0.1799
     27  O4'      -11.9670  -21.2310   -8.8490 O.3     2  RC2        -0.3320
     28  C3'      -11.4420  -21.9590  -11.0610 C.3     2  RC2         0.2158
     29  O3'      -11.2560  -21.0680  -12.1580 O.3     2  RC2        -0.2175
     30  C2'      -10.2030  -22.0280  -10.1630 C.3     2  RC2         0.2319
     31  O2'       -9.0340  -21.5480  -10.7990 O.3     2  RC2        -0.2157
     32  C1'      -10.5680  -21.1160   -8.9970 C.3     2  RC2         0.2400
     33  N1        -9.8810  -21.4640   -7.7000 N.am    2  RC2        -0.1778
     34  C2        -8.7640  -20.7180   -7.2710 C.1     2  RC2         0.2756
     35  O2        -8.3460  -19.7780   -7.9600 O.2     2  RC2        -0.1925
     36  N3        -8.1610  -21.0520   -6.0970 N.2     2  RC2        -0.3024
     37  C4        -8.6250  -22.0720   -5.3660 C.2     2  RC2         0.2346
     38  N4        -7.9960  -22.3590   -4.2200 N.pl3   2  RC2        -0.0921
     39  C5        -9.7560  -22.8410   -5.7790 C.2     2  RC2         0.0687
     40  C6       -10.3430  -22.5060   -6.9370 C.2     2  RC2         0.0836
@<TRIPOS>BOND
     1    19    20    2
     2    19    17    1
     3    18    17    2
     4    20    13    1
     5    17    16    2
     6     5     4    1
     7     5     6    1
     8     3     1    1
     9    10    11    1
    10    10     8    1
    11    10    12    1
    12    13    12    1
    13    13    14   am
    14    16    14    2
    15    23    21    2
    16     8     6    1
    17     8     9    1
    18     4     1    1
    19     1     2    1
    20     6     7    1
    21    12     7    1
    22    14    15    2
    23    29    28    1
    24     9    21    1
    25    21    24    1
    26    21    22    1
    27    24    25    1
    28    28    30    1
    29    28    26    1
    30    31    30    1
    31    30    32    1
    32    26    25    1
    33    26    27    1
    34    32    27    1
    35    32    33    1
    36    35    34    2
    37    33    34   am
    38    33    40    1
    39    34    36    2
    40    40    39    2
    41    36    37    2
    42    39    37    1
    43    37    38    1
