@<TRIPOS>MOLECULE
1xpu_FPD_B_1.pdb
 30 32 0 0 0
SMALL
GASTEIGER

@<TRIPOS>ATOM
      1  O4       -16.2170  -19.2000   32.7630 O.2   2701  FPD2701    -0.2225
      2  C11      -17.1650  -19.3400   33.5250 C.1   2701  FPD2701     0.1793
      3  N2       -18.3750  -19.6030   33.0700 N.2   2701  FPD2701    -0.1604
      4  C5       -19.5270  -19.8900   33.9070 C.3   2701  FPD2701     0.3111
      5  C6       -19.3600  -19.7170   35.4080 C.1   2701  FPD2701     0.1793
      6  O6       -20.2800  -19.9200   36.1800 O.2   2701  FPD2701    -0.2225
      7  N1       -18.1450  -19.4660   35.8580 N.2   2701  FPD2701    -0.1605
      8  C10      -16.9780  -19.3660   35.0210 C.3   2701  FPD2701     0.3097
      9  O7       -16.1340  -18.3050   35.4750 O.3   2701  FPD2701    -0.1826
     10  C4       -20.7320  -19.1330   33.3280 C.3   2701  FPD2701     0.2445
     11  O3       -20.6230  -19.1140   31.9050 O.3   2701  FPD2701    -0.2144
     12  C1       -22.1100  -19.6570   33.7470 C.3   2701  FPD2701     0.1902
     13  C3       -22.9860  -19.8360   32.5290 C.3   2701  FPD2701     0.0385
     14  O2       -22.0240  -20.9290   34.3960 O.3   2701  FPD2701    -0.2201
     15  C2       -22.7670  -18.6760   34.7080 C.3   2701  FPD2701     0.2149
     16  O1       -24.0090  -18.2220   34.1870 O.3   2701  FPD2701    -0.2176
     17  O5       -19.5720  -21.3290   33.8020 O.3   2701  FPD2701    -0.3238
     18  C7       -18.2620  -21.9760   33.7760 C.3   2701  FPD2701     0.1455
     19  C8       -17.4310  -21.9190   35.0920 C.3   2701  FPD2701     0.0387
     20  C9       -16.3850  -20.7720   35.2820 C.3   2701  FPD2701     0.0795
     21  C12      -15.1010  -21.0890   34.5110 C.3   2701  FPD2701     0.0679
     22  S1       -13.8520  -19.8770   34.8220 S.3   2701  FPD2701    -0.1135
     23  C        -12.5140  -20.8940   34.9920 C.ar  2701  FPD2701     0.0253
     24  C54      -12.6800  -22.1670   35.5220 C.ar  2701  FPD2701     0.0094
     25  C53      -11.5860  -23.0110   35.6620 C.ar  2701  FPD2701     0.0427
     26  C13      -11.7980  -24.3560   36.2260 C.2   2701  FPD2701     0.2342
     27  O8       -12.7830  -25.0070   35.9090 O.2   2701  FPD2701    -0.2831
     28  C52      -10.3150  -22.5830   35.2800 C.ar  2701  FPD2701     0.0033
     29  C51      -10.1470  -21.3030   34.7520 C.ar  2701  FPD2701     0.0006
     30  C50      -11.2470  -20.4570   34.6070 C.ar  2701  FPD2701     0.0062
@<TRIPOS>BOND
     1    11    10    1
     2    13    12    1
     3     1     2    2
     4     3     2    2
     5     3     4    1
     6    10    12    1
     7    10     4    1
     8     2     8    1
     9    12    14    1
    10    12    15    1
    11    18    17    1
    12    18    19    1
    13    17     4    1
    14     4     5    1
    15    16    15    1
    16    21    22    1
    17    21    20    1
    18    30    29   ar
    19    30    23   ar
    20    29    28   ar
    21    22    23    1
    22    23    24   ar
    23     8    20    1
    24     8     9    1
    25     8     7    1
    26    19    20    1
    27    28    25   ar
    28     5     7    2
    29     5     6    2
    30    24    25   ar
    31    25    26    1
    32    27    26    2
