@<TRIPOS>MOLECULE
1xpu_AGS_A_1.pdb
 31 33 0 0 0
SMALL
GASTEIGER

@<TRIPOS>ATOM
      1  PG         4.1160  -31.5420   19.0370 P.3   1600  AGS1600     0.4340
      2  S1G        5.7250  -31.4360   17.7820 S.3   1600  AGS1600     0.0416
      3  O2G        2.8360  -31.9630   18.2220 O.2   1600  AGS1600    -0.2423
      4  O3G        3.8940  -30.1380   19.7290 O.3   1600  AGS1600    -0.1305
      5  PB         3.3560  -33.1300   21.2250 P.3   1600  AGS1600     0.2262
      6  O1B        3.2850  -32.1430   22.4660 O.3   1600  AGS1600    -0.4369
      7  O2B        1.9450  -33.4160   20.5930 O.2   1600  AGS1600    -0.5168
      8  O3B        4.4430  -32.6610   20.1450 O.3   1600  AGS1600    -0.2405
      9  PA         4.7110  -35.6960   21.0850 P.3   1600  AGS1600     0.2189
     10  O1A        4.7210  -35.6170   19.4930 O.2   1600  AGS1600    -0.5170
     11  O2A        4.3910  -37.1270   21.6600 O.3   1600  AGS1600    -0.4371
     12  O3A        3.9220  -34.5150   21.8370 O.3   1600  AGS1600    -0.2701
     13  O5'        6.1790  -35.2700   21.5190 O.3   1600  AGS1600    -0.3112
     14  C5'        6.5440  -34.9750   22.8630 C.3   1600  AGS1600     0.1813
     15  C4'        7.8790  -35.4740   23.3940 C.3   1600  AGS1600     0.1821
     16  O4'        7.6770  -35.7460   24.7820 O.3   1600  AGS1600    -0.3135
     17  C3'        8.2570  -36.7650   22.6950 C.3   1600  AGS1600     0.2184
     18  O3'        9.5060  -36.6410   22.0330 O.3   1600  AGS1600    -0.2174
     19  C2'        8.2770  -37.8400   23.7740 C.3   1600  AGS1600     0.2570
     20  O2'        9.5770  -38.4020   23.8980 O.3   1600  AGS1600    -0.2130
     21  C1'        7.8890  -37.1380   25.0770 C.3   1600  AGS1600     0.3186
     22  N9         6.6420  -37.7120   25.6580 N.pl3 1600  AGS1600    -0.1439
     23  C8         5.3720  -37.2180   25.5950 C.3   1600  AGS1600     0.3377
     24  N7         4.4600  -37.9920   26.2520 N.2   1600  AGS1600    -0.2095
     25  C5         5.1590  -39.0210   26.7570 C.2   1600  AGS1600     0.2526
     26  C6         4.9030  -40.2390   27.5520 C.2   1600  AGS1600     0.4393
     27  N6         3.6530  -40.5320   27.9710 N.pl3 1600  AGS1600     0.2180
     28  N1         5.9450  -41.0620   27.8620 N.2   1600  AGS1600     0.0021
     29  C2         7.2160  -40.8190   27.4660 C.3   1600  AGS1600     0.5254
     30  N3         7.5720  -39.7430   26.7390 N.2   1600  AGS1600    -0.0055
     31  C4         6.5300  -38.8270   26.3670 C.2   1600  AGS1600     0.3518
@<TRIPOS>BOND
     1     2     1    1
     2     3     1    2
     3     1     4    1
     4     1     8    1
     5    10     9    2
     6     8     5    1
     7     7     5    2
     8     9    13    1
     9     9    11    1
    10     9    12    1
    11     5    12    1
    12     5     6    1
    13    13    14    1
    14    18    17    1
    15    17    15    1
    16    17    19    1
    17    14    15    1
    18    15    16    1
    19    19    20    1
    20    19    21    1
    21    16    21    1
    22    21    22    1
    23    23    22    1
    24    23    24    1
    25    22    31    1
    26    24    25    2
    27    31    30    2
    28    31    25    1
    29    30    29    1
    30    25    26    1
    31    29    28    1
    32    26    28    2
    33    26    27    1
