@<TRIPOS>MOLECULE
1xpu_NUC_G_1.pdb
 40 43 0 0 0
SMALL
GASTEIGER

@<TRIPOS>ATOM
      1  P        -29.5870  -36.1830   -7.9990 P.3     1  RU1         0.3942
      2  OP1      -30.1750  -37.0520   -9.0420 O.3     1  RU1        -0.1425
      3  OP2      -29.5200  -34.7200   -8.2260 O.3     1  RU1        -0.1425
      4  O5'      -28.1250  -36.7260   -7.6290 O.3     1  RU1        -0.2926
      5  C5'      -26.9920  -35.8530   -7.6070 C.3     1  RU1         0.1829
      6  C4'      -25.8120  -36.4630   -8.3430 C.3     1  RU1         0.1772
      7  O4'      -25.7770  -37.8930   -8.1290 O.3     1  RU1        -0.3321
      8  C3'      -25.8520  -36.2740   -9.8580 C.3     1  RU1         0.1857
      9  O3'      -25.0090  -35.1840  -10.3190 O.3     1  RU1        -0.3112
     10  C2'      -25.4840  -37.6390  -10.4610 C.3     1  RU1         0.2291
     11  O2'      -24.3610  -37.5860  -11.3230 O.3     1  RU1        -0.2158
     12  C1'      -25.1740  -38.5120   -9.2480 C.3     1  RU1         0.2399
     13  N1       -25.6750  -39.9230   -9.3590 N.am    1  RU1        -0.1766
     14  C2       -24.9330  -40.8720  -10.0520 C.1     1  RU1         0.2845
     15  O2       -23.8710  -40.6380  -10.6040 O.2     1  RU1        -0.1918
     16  N3       -25.4890  -42.1310  -10.0800 N.2     1  RU1        -0.2452
     17  C4       -26.6820  -42.5310   -9.5010 C.1     1  RU1         0.2182
     18  O4       -27.0530  -43.6950   -9.6080 O.2     1  RU1        -0.2085
     19  C5       -27.3950  -41.4930   -8.7990 C.2     1  RU1         0.1242
     20  C6       -26.8760  -40.2590   -8.7550 C.2     1  RU1         0.0929
     21  P        -23.5540  -34.7900   -9.7550 P.3     2  RC2         0.2141
     22  OP1      -22.8870  -33.9760  -10.7950 O.2     2  RC2        -0.5172
     23  OP2      -22.8600  -35.9940   -9.2450 O.3     2  RC2        -0.4373
     24  O5'      -23.9080  -33.8210   -8.5330 O.3     2  RC2        -0.3114
     25  C5'      -22.9490  -32.8750   -8.0740 C.3     2  RC2         0.1813
     26  C4'      -23.0160  -32.7080   -6.5690 C.3     2  RC2         0.1799
     27  O4'      -23.2420  -33.9920   -5.9350 O.3     2  RC2        -0.3320
     28  C3'      -21.7340  -32.1890   -5.9370 C.3     2  RC2         0.2158
     29  O3'      -21.6850  -30.7660   -5.9960 O.3     2  RC2        -0.2175
     30  C2'      -21.8550  -32.7000   -4.5030 C.3     2  RC2         0.2319
     31  O2'      -22.6310  -31.8490   -3.6810 O.3     2  RC2        -0.2157
     32  C1'      -22.5590  -34.0440   -4.6940 C.3     2  RC2         0.2400
     33  N1       -21.6390  -35.2460   -4.6620 N.am    2  RC2        -0.1778
     34  C2       -21.1250  -35.7120   -3.4370 C.1     2  RC2         0.2756
     35  O2       -21.4260  -35.1360   -2.3820 O.2     2  RC2        -0.1925
     36  N3       -20.3020  -36.7940   -3.4330 N.2     2  RC2        -0.3024
     37  C4       -19.9870  -37.4070   -4.5780 C.2     2  RC2         0.2346
     38  N4       -19.1760  -38.4660   -4.5180 N.pl3   2  RC2        -0.0921
     39  C5       -20.4970  -36.9550   -5.8340 C.2     2  RC2         0.0687
     40  C6       -21.3070  -35.8850   -5.8260 C.2     2  RC2         0.0836
@<TRIPOS>BOND
     1    11    10    1
     2    22    21    2
     3    15    14    2
     4    10     8    1
     5    10    12    1
     6     9     8    1
     7     9    21    1
     8    16    14    2
     9    16    17    2
    10    14    13   am
    11     8     6    1
    12    21    23    1
    13    21    24    1
    14    18    17    2
    15    17    19    1
    16    13    12    1
    17    13    20    1
    18    12     7    1
    19     2     1    1
    20    19    20    2
    21    24    25    1
    22     6     7    1
    23     6     5    1
    24     3     1    1
    25    25    26    1
    26     1     4    1
    27     4     5    1
    28    26    28    1
    29    26    27    1
    30    29    28    1
    31    28    30    1
    32    27    32    1
    33    39    40    2
    34    39    37    1
    35    40    33    1
    36    32    33    1
    37    32    30    1
    38    33    34   am
    39    37    38    1
    40    37    36    2
    41    30    31    1
    42    34    36    2
    43    34    35    2
