@<TRIPOS>MOLECULE
1xpy_NLQ_C_1.pdb
 13 12 0 0 0
SMALL
GASTEIGER

@<TRIPOS>ATOM
      1  OXT       60.5490   27.2680   32.4600 O.co2 3376  NLQ3376    -0.2441
      2  C         60.5620   26.4610   31.4920 C.2   3376  NLQ3376     0.3803
      3  O         60.7170   26.8020   30.2940 O.co2 3376  NLQ3376    -0.2441
      4  CA        60.4350   24.9910   31.7860 C.3   3376  NLQ3376     0.1781
      5  N         59.5810   24.2280   30.8620 N.3   3376  NLQ3376    -0.1792
      6  C6        58.4960   24.8240   30.1090 C.3   3376  NLQ3376     0.2262
      7  O4        57.5720   25.3580   31.0330 O.3   3376  NLQ3376    -0.2036
      8  C7        57.8180   23.7890   29.2250 C.3   3376  NLQ3376     0.0555
      9  CB        61.8680   24.4680   31.7170 C.3   3376  NLQ3376     0.0332
     10  CG        62.5950   24.3860   33.0510 C.3   3376  NLQ3376     0.0548
     11  CD        62.7440   22.9070   33.3660 C.3   3376  NLQ3376     0.2419
     12  NE2       61.4620   22.3900   32.9440 N.3   3376  NLQ3376    -0.0968
     13  OE1       63.7900   22.2880   32.6250 O.3   3376  NLQ3376    -0.2022
@<TRIPOS>BOND
     1     8     6    1
     2     6     5    1
     3     6     7    1
     4     3     2   ar
     5     5     4    1
     6     2     4    1
     7     2     1   ar
     8     9     4    1
     9     9    10    1
    10    13    11    1
    11    12    11    1
    12    10    11    1
