@<TRIPOS>MOLECULE
1xpz_4TZ_A_1.pdb
 26 28 0 0 0
SMALL
GASTEIGER

@<TRIPOS>ATOM
      1  S2        20.4470   26.3730   19.3330 S.3   270  4TZ270      0.1232
      2  O1        20.6720   25.1870   20.0850 O.3   270  4TZ270     -0.0428
      3  O2        19.1220   26.8990   19.2100 O.3   270  4TZ270     -0.0428
      4  O3        21.2180   27.4860   20.1860 O.3   270  4TZ270     -0.3468
      5  N1        21.1600   26.2350   17.9630 N.3   270  4TZ270      0.0501
      6  N2        23.0950   33.5550   18.7240 N.pl3 270  4TZ270     -0.2197
      7  N3        23.5810   34.3050   17.6020 N.ar  270  4TZ270     -0.2130
      8  N4        24.6700   34.8120   15.7650 N.ar  270  4TZ270     -0.1238
      9  N5        23.9200   35.9190   16.1570 N.ar  270  4TZ270     -0.1238
     10  N6        26.2860   34.3310   24.9190 N.1   270  4TZ270     -0.1908
     11  C1        24.4560   33.8680   16.6310 C.ar  270  4TZ270      0.2209
     12  C2        23.2830   35.6030   17.2420 C.ar  270  4TZ270      0.2209
     13  C3        23.7700   33.7090   20.0500 C.ar  270  4TZ270      0.0681
     14  C4        23.1300   33.2980   21.3180 C.ar  270  4TZ270      0.0170
     15  C5        23.7820   33.4490   22.5740 C.ar  270  4TZ270      0.0116
     16  C6        25.1010   34.0130   22.6500 C.ar  270  4TZ270      0.0685
     17  C7        25.7600   34.4270   21.4350 C.ar  270  4TZ270      0.0116
     18  C8        25.1150   34.2800   20.1690 C.ar  270  4TZ270      0.0170
     19  C9        25.7630   34.1700   23.9110 C.1   270  4TZ270      0.1004
     20  C10       21.7100   32.9740   18.4710 C.3   270  4TZ270      0.1411
     21  C11       21.5670   31.5170   18.9130 C.ar  270  4TZ270     -0.0003
     22  C12       22.5800   30.5470   18.5490 C.ar  270  4TZ270      0.0007
     23  C13       22.4600   29.2000   18.9720 C.ar  270  4TZ270      0.0396
     24  C14       21.3370   28.7970   19.7590 C.ar  270  4TZ270      0.1729
     25  C15       20.3240   29.7480   20.1250 C.ar  270  4TZ270      0.0396
     26  C16       20.4410   31.1090   19.7000 C.ar  270  4TZ270      0.0007
@<TRIPOS>BOND
     1     8     9   ar
     2     8    11   ar
     3     9    12   ar
     4    11     7   ar
     5    12     7   ar
     6     7     6    1
     7     5     1    1
     8    20     6    1
     9    20    21    1
    10    22    21   ar
    11    22    23   ar
    12     6    13    1
    13    21    26   ar
    14    23    24   ar
    15     3     1    1
    16     1     2    1
    17     1     4    1
    18    26    25   ar
    19    24    25   ar
    20    24     4    1
    21    13    18   ar
    22    13    14   ar
    23    18    17   ar
    24    14    15   ar
    25    17    16   ar
    26    15    16   ar
    27    16    19    1
    28    19    10    3
