@<TRIPOS>MOLECULE
1xq0_4TR_A_1.pdb
 27 29 0 0 0
SMALL
GASTEIGER

@<TRIPOS>ATOM
      1  S1        20.3540   26.1270   19.5000 S.3   270  4TR270      0.1232
      2  O1        20.5040   25.0730   20.4420 O.3   270  4TR270     -0.0428
      3  O2        19.0880   26.7640   19.3280 O.3   270  4TR270     -0.0428
      4  O3        21.2850   27.3070   20.0960 O.3   270  4TR270     -0.3463
      5  N1        20.9650   25.6800   18.1360 N.3   270  4TR270      0.0501
      6  C1        21.1700   28.6100   19.6340 C.ar  270  4TR270      0.1789
      7  C2        21.7960   29.0030   18.4320 C.ar  270  4TR270      0.0401
      8  C3        21.6860   30.3250   17.9840 C.ar  270  4TR270      0.0007
      9  C4        20.9390   31.2730   18.7400 C.ar  270  4TR270      0.0002
     10  C5        20.3110   30.8750   19.9380 C.ar  270  4TR270      0.0073
     11  C6        20.4260   29.5420   20.3870 C.ar  270  4TR270      0.0710
     12  C7        20.8380   32.7150   18.2630 C.3   270  4TR270      0.1411
     13  C8        26.2820   34.4920   21.8290 C.1   270  4TR270      0.1004
     14  N2        27.3000   34.6890   22.3230 N.1   270  4TR270     -0.1908
     15  C9        25.0090   34.2880   21.1980 C.ar  270  4TR270      0.0685
     16  C10       24.8440   33.3180   20.1770 C.ar  270  4TR270      0.0116
     17  C11       23.5940   33.1280   19.5670 C.ar  270  4TR270      0.0170
     18  C12       22.4410   33.9060   19.9580 C.ar  270  4TR270      0.0681
     19  C13       22.6360   34.8820   20.9920 C.ar  270  4TR270      0.0170
     20  C14       23.8890   35.0670   21.5970 C.ar  270  4TR270      0.0116
     21  N3        21.1410   33.7100   19.3370 N.pl3 270  4TR270     -0.2197
     22  N4        19.1240   36.6090   19.0170 N.ar  270  4TR270     -0.1238
     23  N5        18.4820   35.9500   20.0610 N.ar  270  4TR270     -0.1238
     24  C17       19.1260   34.8500   20.2890 C.ar  270  4TR270      0.2209
     25  N6        20.1880   34.7480   19.4300 N.ar  270  4TR270     -0.2130
     26  C15       20.1320   35.8770   18.6580 C.ar  270  4TR270      0.2209
     27 BR         19.6020   29.0080   22.0020 Br    270  4TR270     -0.0458
@<TRIPOS>BOND
     1     8     7   ar
     2     8     9   ar
     3     5     1    1
     4    12     9    1
     5    12    21    1
     6     7     6   ar
     7    26    22   ar
     8    26    25   ar
     9     9    10   ar
    10    22    23   ar
    11     3     1    1
    12    21    25    1
    13    21    18    1
    14    25    24   ar
    15     1     4    1
    16     1     2    1
    17    17    18   ar
    18    17    16   ar
    19     6     4    1
    20     6    11   ar
    21    10    11   ar
    22    18    19   ar
    23    23    24   ar
    24    16    15   ar
    25    11    27    1
    26    19    20   ar
    27    15    20   ar
    28    15    13    1
    29    13    14    3
