@<TRIPOS>MOLECULE
1xq3_R18_A_1.pdb
 21 24 0 0 0
SMALL
GASTEIGER

@<TRIPOS>ATOM
      1  C1        27.4940    5.2850    4.1900 C.3   1001  R181001     0.0338
      2  C2        26.7470    6.4970    4.7060 C.3   1001  R181001     0.0738
      3  C3        25.2330    6.3980    4.5620 C.2   1001  R181001     0.1731
      4  C4        24.6340    5.0950    4.8740 C.2   1001  R181001     0.0329
      5  C5        25.3640    3.9320    4.8880 C.2   1001  R181001    -0.0236
      6  C6        24.6540    2.6020    5.2490 C.3   1001  R181001     0.0265
      7  C7        25.3420    1.4070    4.5670 C.3   1001  R181001     0.0090
      8  C8        26.8550    1.3660    4.9980 C.3   1001  R181001     0.0227
      9  C9        27.5720    2.7160    4.6180 C.2   1001  R181001    -0.0270
     10  C10       26.8490    3.9020    4.5640 C.2   1001  R181001    -0.0296
     11  C11       29.0460    2.6280    4.3450 C.2   1001  R181001    -0.0091
     12  C12       29.7660    1.4680    4.4050 C.2   1001  R181001    -0.0247
     13  C13       29.1060    0.1080    4.7270 C.3   1001  R181001     0.0447
     14  C14       27.6020    0.1930    4.3310 C.3   1001  R181001     0.0101
     15  C15       27.0700   -1.2390    4.6190 C.3   1001  R181001     0.0032
     16  C16       28.3240   -2.1150    4.3290 C.3   1001  R181001     0.0308
     17  C17       29.4830   -1.1480    3.9060 C.3   1001  R181001     0.1300
     18  C18       29.2420   -0.1400    6.2900 C.3   1001  R181001     0.0068
     19  C27       29.4390   -0.9470    2.3970 C.3   1001  R181001     0.0333
     20  O83       24.5610    7.3540    4.2340 O.2   1001  R181001    -0.2913
     21  O97       30.7200   -1.7200    4.2830 O.3   1001  R181001    -0.2254
@<TRIPOS>BOND
     1    19    17    1
     2    17    21    1
     3    17    16    1
     4    17    13    1
     5     1    10    1
     6     1     2    1
     7    20     3    2
     8    16    15    1
     9    14    15    1
    10    14    13    1
    11    14     8    1
    12    11    12    2
    13    11     9    1
    14    12    13    1
    15     3     2    1
    16     3     4    1
    17    10     9    2
    18    10     5    1
    19     7     8    1
    20     7     6    1
    21     9     8    1
    22    13    18    1
    23     4     5    2
    24     5     6    1
