@<TRIPOS>MOLECULE
1xq5_HEM_A_1.pdb
 43 50 0 0 0
SMALL
GASTEIGER

@<TRIPOS>ATOM
      1 FE         41.1180   -7.3920   45.5800 Fe    143  HEM143      0.0000
      2  CHA       44.3140   -8.4410   45.5770 C.2   143  HEM143      0.0000
      3  CHB       40.1790  -10.1610   43.8610 C.2   143  HEM143      0.0000
      4  CHC       37.8530   -6.3220   45.6220 C.2   143  HEM143      0.0000
      5  CHD       41.9750   -4.3640   47.1380 C.2   143  HEM143      0.0000
      6  NA        42.0500   -8.9990   44.8410 N.ar  143  HEM143      0.0000
      7  C1A       43.3870   -9.2510   44.9960 C.ar  143  HEM143      0.0000
      8  C2A       43.7010  -10.4950   44.3810 C.ar  143  HEM143      0.0000
      9  C3A       42.5560  -11.0170   43.8940 C.ar  143  HEM143      0.0000
     10  C4A       41.4900  -10.0610   44.1930 C.ar  143  HEM143      0.0000
     11  CMA       42.3360  -12.3530   43.1190 C.3   143  HEM143      0.0000
     12  CAA       45.1680  -10.9960   44.4040 C.3   143  HEM143      0.0000
     13  CBA       45.3690  -12.4780   44.6870 C.3   143  HEM143      0.0000
     14  CGA       46.7800  -12.7480   44.2200 C.2   143  HEM143      0.0000
     15  O1A       46.9830  -12.8850   42.9810 O.co2 143  HEM143      0.0000
     16  O2A       47.6850  -12.7850   45.0950 O.co2 143  HEM143      0.0000
     17  NB        39.3910   -8.0960   44.9040 N.2   143  HEM143      0.0000
     18  C1B       39.1960   -9.2510   44.1860 C.2   143  HEM143      0.0000
     19  C2B       37.8070   -9.3660   43.8290 C.2   143  HEM143      0.0000
     20  C3B       37.1470   -8.3190   44.3400 C.2   143  HEM143      0.0000
     21  C4B       38.1490   -7.4930   44.9860 C.2   143  HEM143      0.0000
     22  CMB       37.1570  -10.5180   43.0570 C.3   143  HEM143      0.0000
     23  CAB       35.6460   -7.9540   44.2560 C.2   143  HEM143      0.0000
     24  CBB       34.7610   -8.4000   43.3510 C.2   143  HEM143      0.0000
     25  NC        40.0830   -5.6440   46.2890 N.ar  143  HEM143      0.0000
     26  C1C       38.7440   -5.4340   46.1370 C.ar  143  HEM143      0.0000
     27  C2C       38.4280   -4.0870   46.5460 C.ar  143  HEM143      0.0000
     28  C3C       39.5720   -3.5130   46.9800 C.ar  143  HEM143      0.0000
     29  C4C       40.6290   -4.5100   46.8340 C.ar  143  HEM143      0.0000
     30  CMC       37.0040   -3.4840   46.4990 C.3   143  HEM143      0.0000
     31  CAC       39.8160   -2.0770   47.5550 C.2   143  HEM143      0.0000
     32  CBC       39.0410   -1.0050   47.3620 C.2   143  HEM143      0.0000
     33  ND        42.7700   -6.6030   46.2500 N.2   143  HEM143      0.0000
     34  C1D       42.9410   -5.3040   46.8210 C.2   143  HEM143      0.0000
     35  C2D       44.3470   -5.0610   47.0180 C.2   143  HEM143      0.0000
     36  C3D       45.0680   -6.3110   46.5380 C.2   143  HEM143      0.0000
     37  C4D       44.0360   -7.2010   46.0740 C.2   143  HEM143      0.0000
     38  CMD       45.0220   -3.8260   47.6390 C.3   143  HEM143      0.0000
     39  CAD       46.5920   -6.5230   46.5250 C.3   143  HEM143      0.0000
     40  CBD       47.0480   -5.6780   45.3280 C.3   143  HEM143      0.0000
     41  CGD       48.5400   -5.7050   45.0850 C.2   143  HEM143      0.0000
     42  O1D       49.3210   -6.0440   46.0260 O.co2 143  HEM143      0.0000
     43  O2D       48.9490   -5.3790   43.9250 O.co2 143  HEM143      0.0000
@<TRIPOS>BOND
     1    15    14   ar
     2    22    19    1
     3    11     9    1
     4    24    23    2
     5    19    18    1
     6    19    20    2
     7     3    18    1
     8     3    10    2
     9     9    10   ar
    10     9     8   ar
    11    43    41   ar
    12    18    17    2
    13    10     6   ar
    14    14    13    1
    15    14    16   ar
    16    23    20    1
    17    20    21    1
    18     8    12    1
    19     8     7   ar
    20    12    13    1
    21     6     7   ar
    22     6     1    1
    23    17    21    1
    24    17     1    1
    25    21     4    2
    26     7     2    2
    27    41    40    1
    28    41    42   ar
    29    40    39    1
    30     2    37    1
    31     1    33    1
    32     1    25    1
    33     4    26    1
    34    37    33    2
    35    37    36    1
    36    26    25   ar
    37    26    27   ar
    38    33    34    1
    39    25    29   ar
    40    30    27    1
    41    39    36    1
    42    36    35    2
    43    27    28   ar
    44    34    35    1
    45    34     5    2
    46    29    28   ar
    47    29     5    1
    48    28    31    1
    49    35    38    1
    50    32    31    2
