@<TRIPOS>MOLECULE
1xq6_NAP_A_1.pdb
 48 52 0 0 0
SMALL
GASTEIGER

@<TRIPOS>ATOM
      1  PA         4.8800    4.3070   24.0630 P.3   800  NAP800      0.2189
      2  O1A        6.2700    4.0990   23.5910 O.3   800  NAP800     -0.4371
      3  O2A        3.9530    4.7080   22.9650 O.2   800  NAP800     -0.5170
      4  O5B        4.9840    5.4400   25.2330 O.3   800  NAP800     -0.3112
      5  C5B        6.0910    5.4750   26.0780 C.3   800  NAP800      0.1813
      6  C4B        6.0350    6.8260   26.8000 C.3   800  NAP800      0.1820
      7  O4B        7.1830    6.9290   27.5790 O.3   800  NAP800     -0.3136
      8  C3B        6.0950    7.9830   25.8200 C.3   800  NAP800      0.2157
      9  O3B        4.9270    8.7410   26.0050 O.3   800  NAP800     -0.2175
     10  C2B        7.3470    8.7520   26.1950 C.3   800  NAP800      0.2314
     11  O2B        7.1490   10.1530   26.0870 O.3   800  NAP800     -0.2630
     12  C1B        7.5210    8.2840   27.6280 C.3   800  NAP800      0.3158
     13  N9A        8.8780    8.5780   28.0980 N.pl3 800  NAP800     -0.1439
     14  C8A       10.0580    8.1020   27.5710 C.3   800  NAP800      0.3377
     15  N7A       11.0580    8.6430   28.2970 N.2   800  NAP800     -0.2095
     16  C5A       10.5410    9.4630   29.2710 C.2   800  NAP800      0.2526
     17  C6A       11.1220   10.2780   30.2460 C.2   800  NAP800      0.4393
     18  N6A       12.4580   10.4660   30.2710 N.pl3 800  NAP800      0.2180
     19  N1A       10.2890   10.9960   31.1060 N.2   800  NAP800      0.0021
     20  C2A        8.9120   10.9430   30.9750 C.3   800  NAP800      0.5254
     21  N3A        8.3520   10.1340   29.9870 N.2   800  NAP800     -0.0055
     22  C4A        9.1550    9.4190   29.1540 C.2   800  NAP800      0.3518
     23  O3         4.2600    3.0560   24.9080 O.3   800  NAP800     -0.2703
     24  PN         3.3830    1.8870   24.2110 P.3   800  NAP800      0.2189
     25  O1N        3.9820    1.6130   22.8510 O.2   800  NAP800     -0.5170
     26  O2N        1.9420    2.0840   24.2130 O.3   800  NAP800     -0.4371
     27  O5D        3.8700    0.6740   25.1930 O.3   800  NAP800     -0.3112
     28  C5D        3.3880    0.7180   26.5460 C.3   800  NAP800      0.1813
     29  C4D        4.2580   -0.2150   27.4100 C.3   800  NAP800      0.1799
     30  O4D        4.2130   -1.5200   26.8490 O.3   800  NAP800     -0.3327
     31  C3D        5.7540    0.1420   27.3530 C.3   800  NAP800      0.2158
     32  O3D        6.3620   -0.0810   28.6100 O.3   800  NAP800     -0.2175
     33  C2D        6.3390   -0.8610   26.3810 C.3   800  NAP800      0.2309
     34  O2D        7.7240   -1.0960   26.5840 O.3   800  NAP800     -0.2158
     35  C1D        5.4890   -2.0650   26.7530 C.3   800  NAP800      0.2263
     36  N1N        5.3310   -3.0800   25.6960 N.pl3 800  NAP800     -0.2787
     37  C2N        5.4880   -2.7310   24.3610 C.3   800  NAP800      0.1244
     38  C3N        5.3020   -3.7260   23.3830 C.2   800  NAP800      0.0544
     39  C7N        5.0110   -3.3350   21.9600 C.2   800  NAP800      0.2818
     40  O7N        4.4460   -4.2760   21.0720 O.2   800  NAP800     -0.2670
     41  N7N        5.3110   -2.1050   21.5420 N.am  800  NAP800     -0.0839
     42  C4N        4.9840   -5.0250   23.7740 C.2   800  NAP800      0.0033
     43  C5N        4.8300   -5.3630   25.0950 C.2   800  NAP800      0.0157
     44  C6N        5.0220   -4.3590   26.0730 C.2   800  NAP800      0.0633
     45  P2B        7.1280   10.8440   24.6000 P.3   800  NAP800      0.5328
     46  O1X        5.6780   10.7970   24.1170 O.3   800  NAP800     -0.1145
     47  O2X        7.5610   12.2790   24.8050 O.3   800  NAP800     -0.1145
     48  O3X        8.0460   10.1660   23.6210 O.2   800  NAP800     -0.2224
@<TRIPOS>BOND
     1    40    39    2
     2    41    39   am
     3    39    38    1
     4    25    24    2
     5     3     1    2
     6    38    42    2
     7    38    37    1
     8     2     1    1
     9    48    45    2
    10    42    43    1
    11     1    23    1
    12     1     4    1
    13    46    45    1
    14    24    26    1
    15    24    23    1
    16    24    27    1
    17    37    36    1
    18    45    47    1
    19    45    11    1
    20    43    44    2
    21    27    28    1
    22     4     5    1
    23    36    44    1
    24    36    35    1
    25     8     9    1
    26     8    10    1
    27     8     6    1
    28     5     6    1
    29    11    10    1
    30    10    12    1
    31    33    34    1
    32    33    35    1
    33    33    31    1
    34    28    29    1
    35    35    30    1
    36     6     7    1
    37    30    29    1
    38    31    29    1
    39    31    32    1
    40    14    13    1
    41    14    15    1
    42     7    12    1
    43    12    13    1
    44    13    22    1
    45    15    16    2
    46    22    16    1
    47    22    21    2
    48    16    17    1
    49    21    20    1
    50    17    18    1
    51    17    19    2
    52    20    19    1
