@<TRIPOS>MOLECULE
1xqc_AEJ_A_1.pdb
 33 38 0 0 0
SMALL
GASTEIGER

@<TRIPOS>ATOM
      1  O42       18.8540   -0.1960   39.2410 O.2   1001  AEJ1001    -0.2869
      2  C39       17.6290    0.0460   38.5970 C.2   1001  AEJ1001     0.1921
      3  C37       16.5280    0.5650   39.2780 C.2   1001  AEJ1001     0.0414
      4  C35       15.3320    0.8090   38.5640 C.2   1001  AEJ1001     0.0009
      5  C34       15.2680    0.5430   37.2000 C.2   1001  AEJ1001    -0.0002
      6  C33       16.3690    0.0200   36.5750 C.3   1001  AEJ1001     0.0719
      7  C40       17.5450   -0.2360   37.2650 C.2   1001  AEJ1001     0.0244
      8  C24       14.0460    0.7780   36.3970 C.2   1001  AEJ1001     0.0522
      9  N26       14.0520    0.5680   34.9440 N.pl3 1001  AEJ1001    -0.2650
     10  C44       12.8780    0.7390   34.1870 C.ar  1001  AEJ1001     0.0556
     11  C45       11.6290    0.3610   34.6890 C.ar  1001  AEJ1001     0.0151
     12  C47       10.4470    0.5970   33.9230 C.ar  1001  AEJ1001     0.0013
     13  C49       10.5000    1.2140   32.6800 C.ar  1001  AEJ1001     0.0001
     14  C51       11.7330    1.6120   32.1640 C.ar  1001  AEJ1001     0.0013
     15  C53       12.8990    1.3850   32.9160 C.ar  1001  AEJ1001     0.0151
     16  C27       15.0810   -0.2110   34.3390 C.2   1001  AEJ1001     0.0655
     17  C30       16.3700   -0.3080   35.1340 C.2   1001  AEJ1001    -0.0011
     18  C19       13.9360    2.2900   36.5180 C.ar  1001  AEJ1001     0.0137
     19  C20       14.9480    3.1820   36.1900 C.ar  1001  AEJ1001     0.0025
     20  C22       14.7820    4.5700   36.3210 C.ar  1001  AEJ1001     0.0146
     21  C14       13.5790    5.1390   36.7930 C.ar  1001  AEJ1001     0.0479
     22  C15       12.6020    4.2140   37.1090 C.ar  1001  AEJ1001     0.0146
     23  C17       12.7650    2.8330   36.9690 C.ar  1001  AEJ1001     0.0025
     24  N7        13.3830    6.4520   36.9550 N.pl3 1001  AEJ1001    -0.3047
     25  C8        12.0810    6.9150   37.4730 C.3   1001  AEJ1001     0.1081
     26  C11       11.8740    8.4370   37.4610 C.3   1001  AEJ1001     0.0938
     27  N1        13.0200    9.2050   37.9430 N.3   1001  AEJ1001    -0.2709
     28  C2        14.2240    8.7620   37.2280 C.3   1001  AEJ1001     0.0773
     29  C4        14.4790    7.2890   37.4700 C.3   1001  AEJ1001     0.1067
     30  C55       15.3990    9.6160   37.7570 C.3   1001  AEJ1001     0.0177
     31  C58       15.0860   11.1190   37.6320 C.3   1001  AEJ1001     0.0029
     32  C61       13.7650   11.5030   38.3340 C.3   1001  AEJ1001     0.0174
     33  C64       12.7280   10.6250   37.6050 C.3   1001  AEJ1001     0.0722
@<TRIPOS>BOND
     1    14    13   ar
     2    14    15   ar
     3    13    12   ar
     4    15    10   ar
     5    12    11   ar
     6    10    11   ar
     7    10     9    1
     8    16     9    1
     9    16    17    2
    10     9     8    1
    11    17     6    1
    12    19    20   ar
    13    19    18   ar
    14    20    21   ar
    15     8    18    1
    16     8     5    2
    17    18    23   ar
    18     6     5    1
    19     6     7    1
    20    21    24    1
    21    21    22   ar
    22    24    29    1
    23    24    25    1
    24    23    22   ar
    25     5     4    1
    26    28    29    1
    27    28    30    1
    28    28    27    1
    29     7     2    2
    30    26    25    1
    31    26    27    1
    32    33    27    1
    33    33    32    1
    34    31    30    1
    35    31    32    1
    36     4     3    2
    37     2     1    1
    38     2     3    1
