@<TRIPOS>MOLECULE
1xqd_DND_A_1.pdb
 44 48 0 0 0
SMALL
GASTEIGER

@<TRIPOS>ATOM
      1  PN        11.5500   30.0070   26.2070 P.3   502  DND502      0.2189
      2  O11       11.1470   29.3580   27.4810 O.3   502  DND502     -0.4371
      3  O12       11.5310   29.2830   24.9110 O.2   502  DND502     -0.5170
      4  O3P       12.0720   31.5570   26.1920 O.3   502  DND502     -0.2703
      5  O5D       13.0860   29.5570   26.4760 O.3   502  DND502     -0.3112
      6  C5D       13.9090   29.9250   27.6710 C.3   502  DND502      0.1813
      7  C4D       15.3800   30.1570   27.2480 C.3   502  DND502      0.1799
      8  O4D       15.8410   28.9600   26.5410 O.3   502  DND502     -0.3327
      9  C3D       15.6140   31.3360   26.2810 C.3   502  DND502      0.2158
     10  O3D       16.8180   32.0860   26.5560 O.3   502  DND502     -0.2175
     11  C2D       15.6180   30.6430   24.9330 C.3   502  DND502      0.2309
     12  O2D       16.2460   31.4300   23.9070 O.3   502  DND502     -0.2158
     13  C1D       16.2920   29.3390   25.2590 C.3   502  DND502      0.2263
     14  N1N       15.9340   28.3200   24.2500 N.pl3 502  DND502     -0.2787
     15  C6N       16.8620   28.1340   23.1860 C.3   502  DND502      0.1195
     16  C5N       16.4530   27.1630   22.2850 C.2   502  DND502     -0.0044
     17  C4N       15.2530   26.3940   22.3580 C.2   502  DND502      0.0050
     18  C3N       14.3840   26.6780   23.4950 C.2   502  DND502      0.0940
     19  C2N       14.7130   27.6390   24.4450 C.2   502  DND502      0.0699
     20  C7N       13.1000   25.8750   23.5880 C.2   502  DND502      0.3890
     21  O7N       12.2770   26.0900   24.5760 O.co2 502  DND502     -0.2405
     22  O8N       12.8480   24.9580   22.7130 O.co2 502  DND502     -0.2405
     23  PA        11.5230   32.8830   26.9320 P.3   502  DND502      0.2189
     24  O13       12.5620   33.6660   26.3290 O.2   502  DND502     -0.5170
     25  O14       11.5690   32.2920   28.2780 O.3   502  DND502     -0.4371
     26  O5B       10.2470   32.4790   26.1100 O.3   502  DND502     -0.3112
     27  C5B        8.9760   32.8110   26.4950 C.3   502  DND502      0.1813
     28  C4B        8.4410   33.8260   25.5450 C.3   502  DND502      0.1821
     29  O4B        7.0940   34.1260   25.9930 O.3   502  DND502     -0.3135
     30  C3B        9.1580   35.2110   25.4760 C.3   502  DND502      0.2184
     31  O3B        9.8760   35.4990   24.2770 O.3   502  DND502     -0.2174
     32  C2B        8.0380   36.2140   25.8440 C.3   502  DND502      0.2570
     33  O2B        7.5060   36.8400   24.6470 O.3   502  DND502     -0.2130
     34  C1B        6.9770   35.4200   26.5440 C.3   502  DND502      0.3186
     35  N9A        7.2100   35.5050   28.0290 N.pl3 502  DND502     -0.1439
     36  C4A        6.7150   36.5280   28.8090 C.2   502  DND502      0.3518
     37  N3A        5.9470   37.6110   28.3960 N.2   502  DND502     -0.0055
     38  C2A        5.6360   38.4280   29.4130 C.3   502  DND502      0.5254
     39  N1A        6.0070   38.2700   30.7600 N.2   502  DND502      0.0021
     40  C6A        6.7840   37.1690   31.1610 C.2   502  DND502      0.4393
     41  C5A        7.1670   36.2360   30.1400 C.2   502  DND502      0.2526
     42  N7A        7.9120   35.0780   30.2070 N.2   502  DND502     -0.2095
     43  C8A        7.9050   34.6860   28.9320 C.3   502  DND502      0.3377
     44  N6A        7.1460   37.0060   32.4350 N.pl3 502  DND502      0.2180
@<TRIPOS>BOND
     1    16    17    2
     2    16    15    1
     3    17    18    1
     4    22    20   ar
     5    15    14    1
     6    18    20    1
     7    18    19    2
     8    20    21   ar
     9    12    11    1
    10    14    19    1
    11    14    13    1
    12    31    30    1
    13    33    32    1
    14     3     1    2
    15    11    13    1
    16    11     9    1
    17    13     8    1
    18    30    28    1
    19    30    32    1
    20    28    29    1
    21    28    27    1
    22    32    34    1
    23    29    34    1
    24    26    27    1
    25    26    23    1
    26     4     1    1
    27     4    23    1
    28     1     5    1
    29     1     2    1
    30     9    10    1
    31     9     7    1
    32    24    23    2
    33     5     6    1
    34     8     7    1
    35    34    35    1
    36    23    25    1
    37     7     6    1
    38    35    36    1
    39    35    43    1
    40    37    36    2
    41    37    38    1
    42    36    41    1
    43    43    42    1
    44    38    39    1
    45    41    42    2
    46    41    40    1
    47    39    40    2
    48    40    44    1
