@<TRIPOS>MOLECULE
1xqd_HEM_A_1.pdb
 43 50 0 0 0
SMALL
GASTEIGER

@<TRIPOS>ATOM
      1 FE         17.4660   22.9320   23.4740 Fe    501  HEM501      0.0000
      2  CHA       19.7110   25.5610   23.4610 C.2   501  HEM501      0.0000
      3  CHB       17.0290   23.2580   20.0930 C.2   501  HEM501      0.0000
      4  CHC       15.1170   20.3500   23.5310 C.2   501  HEM501      0.0000
      5  CHD       17.7520   22.7550   26.8360 C.2   501  HEM501      0.0000
      6  NA        18.1990   24.0960   22.0440 N.ar  501  HEM501      0.0000
      7  C1A       19.1400   25.1550   22.1270 C.ar  501  HEM501      0.0000
      8  C2A       19.4570   25.7630   20.9450 C.ar  501  HEM501      0.0000
      9  C3A       18.7130   25.1670   19.9370 C.ar  501  HEM501      0.0000
     10  C4A       17.9400   24.1120   20.7410 C.ar  501  HEM501      0.0000
     11  CMA       18.6430   25.4390   18.4750 C.3   501  HEM501      0.0000
     12  CAA       20.4640   26.9340   20.6740 C.3   501  HEM501      0.0000
     13  CBA       19.9300   28.3550   21.1210 C.3   501  HEM501      0.0000
     14  CGA       20.9610   29.4160   20.8360 C.2   501  HEM501      0.0000
     15  O1A       22.0560   29.0750   20.2840 O.co2 501  HEM501      0.0000
     16  O2A       20.7050   30.5900   21.1580 O.co2 501  HEM501      0.0000
     17  NB        16.3000   21.9770   22.1020 N.2   501  HEM501      0.0000
     18  C1B       16.2180   22.2130   20.7410 C.2   501  HEM501      0.0000
     19  C2B       15.2520   21.3330   20.0300 C.2   501  HEM501      0.0000
     20  C3B       14.8050   20.5810   21.1040 C.2   501  HEM501      0.0000
     21  C4B       15.4630   21.0120   22.3030 C.2   501  HEM501      0.0000
     22  CMB       15.0330   21.4550   18.5720 C.3   501  HEM501      0.0000
     23  CAB       13.7170   19.4560   20.8950 C.2   501  HEM501      0.0000
     24  CBB       13.8400   18.4500   19.9850 C.2   501  HEM501      0.0000
     25  NC        16.7060   21.8500   24.8570 N.ar  501  HEM501      0.0000
     26  C1C       15.7460   20.7890   24.7990 C.ar  501  HEM501      0.0000
     27  C2C       15.4230   20.1880   26.0890 C.ar  501  HEM501      0.0000
     28  C3C       16.1360   20.8350   27.0790 C.ar  501  HEM501      0.0000
     29  C4C       16.8820   21.8300   26.2310 C.ar  501  HEM501      0.0000
     30  CMC       14.4080   18.9980   26.2500 C.3   501  HEM501      0.0000
     31  CAC       16.1420   20.6070   28.5000 C.2   501  HEM501      0.0000
     32  CBC       17.0430   20.0910   29.2340 C.2   501  HEM501      0.0000
     33  ND        18.4910   23.9130   24.8860 N.2   501  HEM501      0.0000
     34  C1D       18.5010   23.7240   26.2390 C.2   501  HEM501      0.0000
     35  C2D       19.3830   24.6680   26.9690 C.2   501  HEM501      0.0000
     36  C3D       19.9550   25.4790   25.9970 C.2   501  HEM501      0.0000
     37  C4D       19.3960   25.0130   24.6360 C.2   501  HEM501      0.0000
     38  CMD       19.6600   24.8050   28.4160 C.3   501  HEM501      0.0000
     39  CAD       20.8810   26.5700   26.0890 C.3   501  HEM501      0.0000
     40  CBD       22.3490   25.9110   26.1440 C.3   501  HEM501      0.0000
     41  CGD       23.4270   26.9560   26.2540 C.2   501  HEM501      0.0000
     42  O1D       24.5700   26.6200   26.4760 O.co2 501  HEM501      0.0000
     43  O2D       23.2120   28.1990   26.1310 O.co2 501  HEM501      0.0000
@<TRIPOS>BOND
     1    11     9    1
     2    22    19    1
     3     9    10   ar
     4     9     8   ar
     5    24    23    2
     6    19    18    1
     7    19    20    2
     8     3    10    2
     9     3    18    1
    10    15    14   ar
    11    12     8    1
    12    12    13    1
    13    10     6   ar
    14    18    17    2
    15    14    13    1
    16    14    16   ar
    17    23    20    1
    18     8     7   ar
    19    20    21    1
    20     6     7   ar
    21     6     1    1
    22    17    21    1
    23    17     1    1
    24     7     2    2
    25    21     4    2
    26     2    37    1
    27     1    25    1
    28     1    33    1
    29     4    26    1
    30    37    33    2
    31    37    36    1
    32    26    25   ar
    33    26    27   ar
    34    25    29   ar
    35    33    34    1
    36    36    39    1
    37    36    35    2
    38    27    30    1
    39    27    28   ar
    40    39    40    1
    41    43    41   ar
    42    40    41    1
    43    29     5    1
    44    29    28   ar
    45    34     5    2
    46    34    35    1
    47    41    42   ar
    48    35    38    1
    49    28    31    1
    50    31    32    2
