@<TRIPOS>MOLECULE
1xqh_SAH_A_1.pdb
 26 28 0 0 0
SMALL
GASTEIGER

@<TRIPOS>ATOM
      1  N          5.7920  -14.9810   11.3000 N.3   1501  SAH1501    -0.1208
      2  CA         5.0210  -13.7630   11.3590 C.3   1501  SAH1501     0.1952
      3  CB         5.6840  -12.7460   12.3090 C.3   1501  SAH1501     0.0422
      4  CG         7.1580  -12.7600   12.6820 C.3   1501  SAH1501     0.0597
      5  SD         7.2890  -13.1010   14.4630 S.3   1501  SAH1501    -0.1372
      6  C          3.5040  -13.9410   11.7260 C.2   1501  SAH1501     0.3819
      7  O          2.4520  -14.4020   10.8950 O.co2 1501  SAH1501    -0.2441
      8  OXT        3.3390  -13.8780   13.1510 O.co2 1501  SAH1501    -0.2441
      9  C5'        8.4610  -14.2620   14.4940 C.3   1501  SAH1501     0.0949
     10  C4'        8.3810  -15.4680   13.8630 C.3   1501  SAH1501     0.1896
     11  O4'        8.0540  -15.5360   12.4650 O.3   1501  SAH1501    -0.3100
     12  C3'        8.9570  -16.6440   14.2060 C.2   1501  SAH1501     0.2154
     13  O3'        9.0620  -17.1450   15.3370 O.2   1501  SAH1501    -0.2906
     14  C2'        9.0340  -17.3950   13.1070 C.3   1501  SAH1501     0.2833
     15  O2'        8.3320  -18.3940   13.0800 O.3   1501  SAH1501    -0.2077
     16  C1'        9.0110  -16.5530   12.0970 C.3   1501  SAH1501     0.3237
     17  N9        10.0220  -16.2110   11.2420 N.pl3 1501  SAH1501    -0.1435
     18  C8        10.4850  -14.9560   11.2810 C.3   1501  SAH1501     0.3377
     19  N7        11.4550  -14.8460   10.3530 N.2   1501  SAH1501    -0.2095
     20  C5        11.6060  -16.0320    9.7430 C.2   1501  SAH1501     0.2526
     21  C6        12.4800  -16.5410    8.6660 C.2   1501  SAH1501     0.4393
     22  N6        13.4030  -15.7690    8.0540 N.pl3 1501  SAH1501     0.2180
     23  N1        12.3340  -17.8210    8.3040 N.2   1501  SAH1501     0.0021
     24  C2        11.4380  -18.6310    8.8970 C.3   1501  SAH1501     0.5254
     25  N3        10.6070  -18.2350    9.8860 N.2   1501  SAH1501    -0.0055
     26  C4        10.6410  -16.9740   10.3410 C.2   1501  SAH1501     0.3518
@<TRIPOS>BOND
     1    22    21    1
     2    23    21    2
     3    23    24    1
     4    21    20    1
     5    24    25    1
     6    20    26    1
     7    20    19    2
     8    25    26    2
     9    26    17    1
    10    19    18    1
    11     7     6   ar
    12    17    18    1
    13    17    16    1
    14     1     2    1
    15     2     6    1
    16     2     3    1
    17     6     8   ar
    18    16    11    1
    19    16    14    1
    20     3     4    1
    21    11    10    1
    22     4     5    1
    23    15    14    1
    24    14    12    1
    25    10    12    1
    26    10     9    1
    27    12    13    2
    28     5     9    1
