@<TRIPOS>MOLECULE
1xqh_III_B_1.pdb
 46 45 0 0 0
SMALL
GASTEIGER

@<TRIPOS>ATOM
      1  N         19.1910  -12.1500   26.0560 N.3   369  LEU369     -0.1231
      2  CA        19.6260  -13.2510   25.1350 C.3   369  LEU369      0.1693
      3  C         18.5180  -13.6380   24.1510 C.2   369  LEU369      0.2592
      4  O         18.6200  -13.3210   22.9720 O.2   369  LEU369     -0.2718
      5  CB        20.1220  -14.4420   25.9500 C.3   369  LEU369      0.0284
      6  CG        21.4480  -14.1010   26.6630 C.3   369  LEU369      0.0019
      7  CD1       22.0270  -15.2880   27.4030 C.3   369  LEU369      0.0001
      8  CD2       22.4900  -13.5290   25.6720 C.3   369  LEU369      0.0001
      9  N         17.5670  -14.4570   24.5810 N.am  370  LYS370     -0.1966
     10  CA        16.3070  -14.7260   23.8800 C.3   370  LYS370      0.1728
     11  C         15.3740  -13.5660   23.5560 C.2   370  LYS370      0.2617
     12  O         14.1670  -13.6660   23.7610 O.2   370  LYS370     -0.2715
     13  CB        15.5240  -15.7510   24.6910 C.3   370  LYS370      0.0311
     14  CG        16.4000  -16.8860   25.1390 C.3   370  LYS370      0.0038
     15  CD        15.5900  -18.0440   25.6580 C.3   370  LYS370      0.0206
     16  CE        16.4820  -19.0920   26.2630 C.3   370  LYS370      0.1093
     17  NZ        15.6880  -20.2450   26.7500 N.3   370  LYS370     -0.1314
     18  N         15.9270  -12.4930   23.0150 N.am  371  SER371     -0.1936
     19  CA        15.1120  -11.3830   22.5650 C.3   371  SER371      0.2055
     20  C         15.9180  -10.6440   21.4970 C.2   371  SER371      0.2643
     21  O         17.1000  -10.9360   21.2850 O.2   371  SER371     -0.2714
     22  CB        14.7450  -10.4610   23.7150 C.3   371  SER371      0.2130
     23  OG        15.8830   -9.7610   24.1490 O.3   371  SER371     -0.2179
     24  N         14.9600  -10.1950   20.4060 N.am  372  LYS372     -0.1963
     25  CA        15.6800   -9.4590   19.3750 C.3   372  LYS372      0.1728
     26  CB        14.6400   -8.9210   18.4170 C.3   372  LYS372      0.0311
     27  CG        13.7150   -9.9960   17.8670 C.3   372  LYS372      0.0038
     28  CD        12.4030   -9.3680   17.3830 C.3   372  LYS372      0.0189
     29  CE        11.5170  -10.4570   16.8180 C.3   372  LYS372      0.0888
     30  NZ        10.3350   -9.8440   16.2200 N.3   372  LYS372     -0.2165
     31  CM         9.3050  -10.7250   15.7000 C.3   372  LYS372      0.1075
     32  C         16.4660   -8.3060   19.9610 C.2   372  LYS372      0.2616
     33  O         16.0910   -7.7280   20.9540 O.2   372  LYS372     -0.2715
     34  N         17.8000   -8.1210   19.1500 N.am  373  LYS373     -0.1963
     35  CA        18.4970   -6.9160   19.6460 C.3   373  LYS373      0.1728
     36  C         18.6490   -5.9050   18.5130 C.2   373  LYS373      0.2616
     37  O         19.4170   -6.1540   17.5890 O.2   373  LYS373     -0.2715
     38  CB        19.8800   -7.3100   20.1870 C.3   373  LYS373      0.0311
     39  CG        19.9890   -7.4700   21.7110 C.3   373  LYS373      0.0038
     40  CD        20.5260   -6.1930   22.3670 C.3   373  LYS373      0.0206
     41  CE        21.0270   -6.4070   23.7800 C.3   373  LYS373      0.1093
     42  NZ        21.4330   -5.1180   24.4240 N.3   373  LYS373     -0.1314
     43  N         17.7570   -4.9240   18.4360 N.am  374  GLY374     -0.1955
     44  CA        18.0160   -3.6780   17.7370 C.3   374  GLY374      0.1869
     45  C         19.4940   -3.4420   17.4680 C.2   374  GLY374      0.2309
     46  O         20.3280   -3.4780   18.3740 O.2   374  GLY374     -0.2863
@<TRIPOS>BOND
     1    31    30    1
     2    30    29    1
     3    29    28    1
     4    28    27    1
     5    45    44    1
     6    45    46    2
     7    37    36    2
     8    44    43    1
     9    27    26    1
    10    26    25    1
    11    43    36   am
    12    36    35    1
    13    34    35    1
    14    34    32   am
    15    25    32    1
    16    25    24    1
    17    35    38    1
    18    32    33    2
    19    38    39    1
    20    24    20   am
    21    21    20    2
    22    20    19    1
    23    39    40    1
    24    40    41    1
    25    19    18    1
    26    19    22    1
    27     4     3    2
    28    18    11   am
    29    11    12    2
    30    11    10    1
    31    22    23    1
    32    41    42    1
    33    10     9    1
    34    10    13    1
    35     3     9   am
    36     3     2    1
    37    13    14    1
    38     2     5    1
    39     2     1    1
    40    14    15    1
    41    15    16    1
    42     8     6    1
    43     5     6    1
    44    16    17    1
    45     6     7    1
