@<TRIPOS>MOLECULE
1xqk_PMH_A_1.pdb
 22 23 0 0 0
SMALL
GASTEIGER

@<TRIPOS>ATOM
      1  N1        90.7510   11.9510   47.9260 N.ar  501  PMH501     -0.2452
      2  C2        90.9870   11.2500   49.0690 C.ar  501  PMH501      0.0978
      3  C2A       91.3910   11.9750   50.3340 C.3   501  PMH501      0.0555
      4  C3        90.8450    9.8170   49.0570 C.ar  501  PMH501      0.2065
      5  O3        91.0750    9.1260   50.1810 O.3   501  PMH501     -0.2856
      6  C4        90.4620    9.1510   47.8600 C.ar  501  PMH501      0.0394
      7  C4A       90.2790    7.6670   47.7310 C.3   501  PMH501      0.1425
      8  C5        90.2120    9.9540   46.6570 C.ar  501  PMH501      0.0278
      9  C6        90.3750   11.3630   46.7410 C.ar  501  PMH501      0.0965
     10  C5A       89.7590    9.3410   45.3550 C.3   501  PMH501      0.1816
     11  O4P       88.4480    8.8290   45.6150 O.3   501  PMH501     -0.2653
     12  P         87.7680    8.0750   44.3970 P.3   501  PMH501      0.5329
     13  O1P       88.6840    6.6100   43.9980 O.3   501  PMH501     -0.1145
     14  O2P       86.1200    7.6510   44.8520 O.3   501  PMH501     -0.1145
     15  O3P       87.7290    9.1330   43.0020 O.2   501  PMH501     -0.2224
     16  N         88.9770    7.2530   48.2930 N.pl3 501  PMH501     -0.2188
     17  CA        88.9080    6.0190   48.9340 C.2   501  PMH501      0.1923
     18  C         89.4460    5.6870   50.1850 C.1   501  PMH501      0.2075
     19  O         90.2150    6.4970   50.9160 O.2   501  PMH501     -0.2176
     20  ND        88.9800    4.5310   50.5550 N.2   501  PMH501      0.0013
     21  OG        88.2070    4.0310   49.5260 O.2   501  PMH501     -0.3387
     22  CB        88.1480    4.9520   48.5360 C.2   501  PMH501      0.2410
@<TRIPOS>BOND
     1    15    12    2
     2    13    12    1
     3    12    14    1
     4    12    11    1
     5    10    11    1
     6    10     8    1
     7     8     9   ar
     8     8     6   ar
     9     9     1   ar
    10     7     6    1
    11     7    16    1
    12     6     4   ar
    13     1     2   ar
    14    16    17    1
    15    22    17    2
    16    22    21    1
    17    17    18    1
    18     4     2   ar
    19     4     5    1
    20     2     3    1
    21    21    20    1
    22    18    20    2
    23    18    19    2
