@<TRIPOS>MOLECULE
1xql_PMH_A_1.pdb
 22 23 0 0 0
SMALL
GASTEIGER

@<TRIPOS>ATOM
      1  N1        23.6140   10.4720   69.0870 N.ar  503  PMH503     -0.2452
      2  C2        24.7390   11.1900   69.3650 C.ar  503  PMH503      0.0978
      3  C2A       26.0130   10.4750   69.7570 C.3   503  PMH503      0.0555
      4  C3        24.6990   12.6260   69.2810 C.ar  503  PMH503      0.2065
      5  O3        25.8110   13.3300   69.5540 O.3   503  PMH503     -0.2856
      6  C4        23.4960   13.2880   68.9100 C.ar  503  PMH503      0.0394
      7  C4A       23.3520   14.7840   68.7910 C.3   503  PMH503      0.1425
      8  C5        22.3100   12.4670   68.6150 C.ar  503  PMH503      0.0278
      9  C6        22.4240   11.0490   68.7220 C.ar  503  PMH503      0.0965
     10  C5A       20.9780   13.0380   68.1850 C.3   503  PMH503      0.1816
     11  O4P       21.1460   13.6210   66.8850 O.3   503  PMH503     -0.2653
     12  P         19.8130   14.2710   66.3140 P.3   503  PMH503      0.5329
     13  O1P       19.3950   15.7410   67.2350 O.3   503  PMH503     -0.1145
     14  O2P       20.0450   14.6800   64.6090 O.2   503  PMH503     -0.2224
     15  O3P       18.4920   13.1030   66.4570 O.3   503  PMH503     -0.1145
     16  N         24.0030   15.2390   67.5410 N.pl3 503  PMH503     -0.2188
     17  CA        24.5610   16.5100   67.4830 C.2   503  PMH503      0.1923
     18  C         25.7920   16.9350   68.0250 C.1   503  PMH503      0.2075
     19  O         26.5910   16.1900   68.7960 O.2   503  PMH503     -0.2176
     20  ND        26.0730   18.1110   67.5560 N.2   503  PMH503      0.0013
     21  OG        25.0140   18.5340   66.7840 O.2   503  PMH503     -0.3387
     22  CB        24.0920   17.5460   66.7230 C.2   503  PMH503      0.2410
@<TRIPOS>BOND
     1    14    12    2
     2    12    15    1
     3    12    11    1
     4    12    13    1
     5    22    21    1
     6    22    17    2
     7    21    20    1
     8    11    10    1
     9    17    16    1
    10    17    18    1
    11    16     7    1
    12    20    18    2
    13    18    19    2
    14    10     8    1
    15     8     9   ar
    16     8     6   ar
    17     9     1   ar
    18     7     6    1
    19     6     4   ar
    20     1     2   ar
    21     4     2   ar
    22     4     5    1
    23     2     3    1
