@<TRIPOS>MOLECULE
1xql_PMP_A_1.pdb
 16 16 0 0 0
SMALL
GASTEIGER

@<TRIPOS>ATOM
      1  N1        23.3480   10.7490   69.1440 N.ar  501  PMP501     -0.2452
      2  C2        24.5930   11.4390   69.1900 C.ar  501  PMP501      0.0978
      3  C2A       25.8400   10.6260   69.5400 C.3   501  PMP501      0.0555
      4  C3        24.6620   12.8240   68.9200 C.ar  501  PMP501      0.2063
      5  O3        25.8850   13.4680   68.9730 O.3   501  PMP501     -0.2856
      6  C4        23.4480   13.5350   68.5950 C.ar  501  PMP501      0.0369
      7  C4A       23.5410   15.0540   68.3020 C.3   501  PMP501      0.1386
      8  N4A       24.1640   15.3770   67.0150 N.3   501  PMP501     -0.1261
      9  C5        22.1170   12.7440   68.5550 C.ar  501  PMP501      0.0275
     10  C6        22.1310   11.3530   68.8400 C.ar  501  PMP501      0.0965
     11  C5A       20.8650   13.3870   67.9340 C.3   501  PMP501      0.1816
     12  O4P       21.1290   13.7150   66.8940 O.3   501  PMP501     -0.2653
     13  P         19.9390   14.4130   66.1470 P.3   501  PMP501      0.5329
     14  O1P       18.7760   13.5010   66.0340 O.3   501  PMP501     -0.1145
     15  O2P       20.4050   14.7930   64.7880 O.2   501  PMP501     -0.2224
     16  O3P       19.5280   15.6560   66.8750 O.3   501  PMP501     -0.1145
@<TRIPOS>BOND
     1    15    13    2
     2    14    13    1
     3    13    16    1
     4    13    12    1
     5    12    11    1
     6     8     7    1
     7    11     9    1
     8     7     6    1
     9     9     6   ar
    10     9    10   ar
    11     6     4   ar
    12    10     1   ar
    13     4     5    1
    14     4     2   ar
    15     1     2   ar
    16     2     3    1
