@<TRIPOS>MOLECULE
1xql_PLP_A_1.pdb
 15 15 0 0 0
SMALL
GASTEIGER

@<TRIPOS>ATOM
      1  N1        23.5000   10.4490   68.7580 N.ar  504  PLP504     -0.2452
      2  C2        24.5370   11.0510   69.4120 C.ar  504  PLP504      0.0978
      3  C2A       25.7340   10.1830   69.7930 C.3   504  PLP504      0.0555
      4  C3        24.3970   12.4620   69.6750 C.ar  504  PLP504      0.2049
      5  O3        25.4380   13.0370   70.3210 O.3   504  PLP504     -0.2857
      6  C4        23.2380   13.1810   69.2720 C.ar  504  PLP504      0.0182
      7  C4A       23.1160   14.6040   69.5470 C.3   504  PLP504      0.0342
      8  C5        22.2200   12.4060   68.5840 C.ar  504  PLP504      0.0261
      9  C6        22.3620   11.0640   68.3390 C.ar  504  PLP504      0.0965
     10  C5A       20.9010   13.0130   68.0600 C.3   504  PLP504      0.1815
     11  O4P       21.0010   13.5680   66.7720 O.3   504  PLP504     -0.2653
     12  P         19.7860   14.4280   66.3010 P.3   504  PLP504      0.5329
     13  O1P       18.6370   13.5250   66.1580 O.3   504  PLP504     -0.1145
     14  O2P       20.1470   15.0470   64.9420 O.2   504  PLP504     -0.2224
     15  O3P       19.5740   15.4920   67.2970 O.3   504  PLP504     -0.1145
@<TRIPOS>BOND
     1    14    12    2
     2    13    12    1
     3    12    11    1
     4    12    15    1
     5    11    10    1
     6    10     8    1
     7     9     8   ar
     8     9     1   ar
     9     8     6   ar
    10     1     2   ar
    11     6     7    1
    12     6     4   ar
    13     2     4   ar
    14     2     3    1
    15     4     5    1
