@<TRIPOS>MOLECULE
1xqp_8HG_A_1.pdb
 20 22 0 0 0
SMALL
GASTEIGER

@<TRIPOS>ATOM
      1  O6        12.4740   23.5720   30.8840 O.2   257  8HG257     -0.2058
      2  C6        11.4670   23.8180   30.2190 C.1   257  8HG257      0.2509
      3  N1        10.5350   22.7750   30.0480 N.2   257  8HG257     -0.2475
      4  C2         9.3140   22.9360   29.3450 C.1   257  8HG257      0.2532
      5  N2         8.5050   21.8200   29.2170 N.pl3 257  8HG257     -0.0226
      6  N3         9.0010   24.1030   28.8030 N.2   257  8HG257     -0.3052
      7  C4         9.8800   25.1320   28.9390 C.2   257  8HG257      0.2558
      8  C5        11.0780   25.0520   29.5790 C.2   257  8HG257      0.2850
      9  N7        11.7440   26.3150   29.5080 N.2   257  8HG257     -0.3037
     10  C8        10.8640   27.1990   28.8100 C.1   257  8HG257      0.2771
     11  O20       11.0420   28.3990   28.5790 O.2   257  8HG257     -0.1925
     12  N9         9.7310   26.4440   28.4250 N.am  257  8HG257     -0.1521
     13  C1'        8.5710   26.9590   27.7010 C.3   257  8HG257      0.2115
     14  O4'        7.5350   26.9890   28.6670 O.3   257  8HG257     -0.3337
     15  C2'        8.0220   26.1740   26.5390 C.3   257  8HG257      0.0875
     16  C3'        6.5260   26.5150   26.5640 C.3   257  8HG257      0.1858
     17  O3'        6.2020   27.6990   25.8460 O.3   257  8HG257     -0.2203
     18  C4'        6.2450   26.7200   28.0670 C.3   257  8HG257      0.1802
     19  C5'        5.4930   25.4820   28.6320 C.3   257  8HG257      0.2141
     20  O5'        6.0400   24.2550   28.3710 O.3   257  8HG257     -0.2176
@<TRIPOS>BOND
     1    17    16    1
     2    15    16    1
     3    15    13    1
     4    16    18    1
     5    13    12    1
     6    13    14    1
     7    18    19    1
     8    18    14    1
     9    20    19    1
    10    12    10   am
    11    12     7    1
    12    11    10    2
    13     6     7    2
    14     6     4    2
    15    10     9    2
    16     7     8    1
    17     5     4    1
    18     4     3    2
    19     9     8    2
    20     8     2    1
    21     3     2    2
    22     2     1    2
