@<TRIPOS>MOLECULE
1xqs_AMP_C_1.pdb
 23 25 0 0 0
SMALL
GASTEIGER

@<TRIPOS>ATOM
      1  P          5.0320   13.4800   32.1580 P.3   401  AMP401      0.5327
      2  O1P        5.0990   12.2650   32.9740 O.3   401  AMP401     -0.1145
      3  O2P        4.8400   13.2940   30.6510 O.2   401  AMP401     -0.2224
      4  O3P        3.8330   14.5040   32.7700 O.3   401  AMP401     -0.1145
      5  O5'        6.4310   14.3040   32.4630 O.3   401  AMP401     -0.2675
      6  C5'        6.7820   15.6000   31.8570 C.3   401  AMP401      0.1860
      7  C4'        8.1590   16.0490   32.3660 C.3   401  AMP401      0.1823
      8  O4'        9.1600   15.0860   31.9370 O.3   401  AMP401     -0.3135
      9  C3'        8.6850   17.4210   31.8270 C.3   401  AMP401      0.2184
     10  O3'        9.3630   18.2380   32.8170 O.3   401  AMP401     -0.2174
     11  C2'        9.5180   16.9780   30.6920 C.3   401  AMP401      0.2570
     12  O2'       10.3980   17.9980   30.2620 O.3   401  AMP401     -0.2130
     13  C1'       10.2000   15.7650   31.2170 C.3   401  AMP401      0.3186
     14  N9        10.7270   14.9130   30.1240 N.pl3 401  AMP401     -0.1439
     15  C8        10.0790   14.3440   29.0340 C.3   401  AMP401      0.3377
     16  N7        10.8190   13.6650   28.2580 N.2   401  AMP401     -0.2095
     17  C5        12.0540   13.7530   28.8400 C.2   401  AMP401      0.2526
     18  C6        13.3780   13.2310   28.4860 C.2   401  AMP401      0.4393
     19  N6        13.5590   12.4690   27.3910 N.pl3 401  AMP401      0.2180
     20  N1        14.5010   13.5320   29.3530 N.2   401  AMP401      0.0021
     21  C2        14.3240   14.3190   30.4820 C.3   401  AMP401      0.5254
     22  N3        13.1200   14.8520   30.8760 N.2   401  AMP401     -0.0055
     23  C4        12.0230   14.5370   29.9930 C.2   401  AMP401      0.3518
@<TRIPOS>BOND
     1    19    18    1
     2    16    17    2
     3    16    15    1
     4    18    17    1
     5    18    20    2
     6    17    23    1
     7    15    14    1
     8    20    21    1
     9    23    14    1
    10    23    22    2
    11    14    13    1
    12    12    11    1
    13    21    22    1
    14     3     1    2
    15    11    13    1
    16    11     9    1
    17    13     8    1
    18     9     7    1
    19     9    10    1
    20     6     7    1
    21     6     5    1
    22     8     7    1
    23     1     5    1
    24     1     4    1
    25     1     2    1
