@<TRIPOS>MOLECULE
1xqw_PHE_A_1.pdb
 11 11 0 0 0
SMALL
GASTEIGER

@<TRIPOS>ATOM
      1  N         18.0130    8.3580    9.7510 N.3   300  PHE300     -0.1241
      2  CA        16.7310    8.5130    8.9200 C.3   300  PHE300      0.1605
      3  C         15.7290    7.5490    9.6310 C.2   300  PHE300      0.2264
      4  O         16.0970    6.3970    9.9020 O.2   300  PHE300     -0.2867
      5  CB        17.2000    8.1350    7.4250 C.3   300  PHE300      0.0534
      6  CG        18.7420    8.2780    7.1320 C.ar  300  PHE300     -0.0203
      7  CD1       19.6880    7.4730    7.7510 C.ar  300  PHE300     -0.0042
      8  CD2       19.1930    9.1260    6.1090 C.ar  300  PHE300     -0.0042
      9  CE1       21.0580    7.4900    7.3720 C.ar  300  PHE300     -0.0003
     10  CE2       20.5840    9.1360    5.7250 C.ar  300  PHE300     -0.0003
     11  CZ        21.4970    8.3210    6.3640 C.ar  300  PHE300     -0.0000
@<TRIPOS>BOND
     1    10     8   ar
     2    10    11   ar
     3     8     6   ar
     4    11     9   ar
     5     6     5    1
     6     6     7   ar
     7     9     7   ar
     8     5     2    1
     9     2     3    1
    10     2     1    1
    11     3     4    2
