@<TRIPOS>MOLECULE
1xqx_PCS_A_1.pdb
 13 13 0 0 0
SMALL
GASTEIGER

@<TRIPOS>ATOM
      1  N         15.1170    9.2400    9.5640 N.3   300  PCS300     -0.1246
      2  CA        14.5130    8.0570    8.8860 C.3   300  PCS300      0.1545
      3  C         14.6940    6.7840    9.7000 C.2   300  PCS300      0.1845
      4  CB        15.1460    7.8840    7.5150 C.3   300  PCS300      0.0529
      5  O         15.7860    6.2190    9.6700 O.2   300  PCS300     -0.2932
      6  CD1       17.5560    7.5530    8.1210 C.ar  300  PCS300     -0.0042
      7  CG        16.5790    8.3030    7.4710 C.ar  300  PCS300     -0.0203
      8  CD2       16.9440    9.4830    6.8330 C.ar  300  PCS300     -0.0042
      9  CE2       18.2690    9.9140    6.8520 C.ar  300  PCS300     -0.0003
     10  CZ        19.2440    9.1550    7.5130 C.ar  300  PCS300     -0.0000
     11  CE1       18.8860    7.9760    8.1460 C.ar  300  PCS300     -0.0003
     12  CT        13.4230    6.9880   10.5020 C.3   300  PCS300      0.1604
     13 CL1        11.7910    6.3500   10.2290 Cl    300  PCS300     -0.1052
@<TRIPOS>BOND
     1     8     9   ar
     2     8     7   ar
     3     9    10   ar
     4     7     4    1
     5     7     6   ar
     6    10    11   ar
     7     4     2    1
     8     6    11   ar
     9     2     1    1
    10     2     3    1
    11     5     3    2
    12     3    12    1
    13    13    12    1
