@<TRIPOS>MOLECULE
1xqy_III_Q_1.pdb
 24 24 0 0 0
SMALL
GASTEIGER

@<TRIPOS>ATOM
      1  N         13.6740   14.6080   14.8770 N.3     1  PRO1       -0.2102
      2  CA        12.2020   14.3450   14.8630 C.3     1  PRO1        0.1504
      3  C         11.3870   15.2100   15.8780 C.2     1  PRO1        0.2576
      4  O         11.7800   15.3950   17.0600 O.2     1  PRO1       -0.2718
      5  CB        12.0570   12.8400   15.1230 C.3     1  PRO1        0.0282
      6  CG        13.2640   12.5850   16.0870 C.3     1  PRO1        0.0208
      7  CD        14.4110   13.4800   15.4880 C.3     1  PRO1        0.0893
      8  N         10.2660   15.7470   15.3900 N.am    2  LEU2       -0.1966
      9  CA         9.3720   16.5860   16.1980 C.3     2  LEU2        0.1731
     10  C          7.9050   16.1550   16.2610 C.2     2  LEU2        0.2656
     11  O          7.5230   15.0750   15.7890 O.2     2  LEU2       -0.2711
     12  CB         9.4820   18.0330   15.7010 C.3     2  LEU2        0.0311
     13  CG        10.8190   18.6740   16.0760 C.3     2  LEU2        0.0022
     14  CD1       10.9630   19.9630   15.2430 C.3     2  LEU2        0.0001
     15  CD2       10.8880   18.9340   17.6230 C.3     2  LEU2        0.0001
     16  N          7.0690   17.0070   16.8480 N.am    3  GLY3       -0.1716
     17  CA         5.6500   16.6900   16.9570 C.2     3  GLY3        0.1480
     18  C          4.7600   17.6340   17.7580 C.2     3  GLY3        0.2822
     19  O          5.1600   18.5430   18.5010 O.2     3  GLY3       -0.2669
     20  N          3.4810   17.3950   17.5350 N.am    4  GLY4       -0.1883
     21  CA         2.3880   18.1370   18.1410 C.3     4  GLY4        0.2288
     22  C          1.1500   17.2800   17.9340 C.2     4  GLY4        0.3865
     23  O          0.4300   17.5350   16.9380 O.co2   4  GLY4       -0.2437
     24  OXT        0.9440   16.3150   18.7270 O.co2   4  GLY4       -0.2437
@<TRIPOS>BOND
     1     2     1    1
     2     2     5    1
     3     2     3    1
     4     1     7    1
     5     5     6    1
     6    14    13    1
     7     8     3   am
     8     8     9    1
     9     7     6    1
    10    12    13    1
    11    12     9    1
    12    11    10    2
    13     3     4    2
    14    13    15    1
    15     9    10    1
    16    10    16    1
    17    16    17    2
    18    23    22   ar
    19    17    18    1
    20    20    18   am
    21    20    21    1
    22    18    19    2
    23    22    21    1
    24    22    24   ar
