@<TRIPOS>MOLECULE
1xr1_ANP_A_1.pdb
 31 33 0 0 0
SMALL
GASTEIGER

@<TRIPOS>ATOM
      1  PG        77.2350   27.6320    4.2710 P.3   501  ANP501      0.4884
      2  O1G       76.0320   27.0560    3.4460 O.2   501  ANP501     -0.2331
      3  O2G       78.0250   26.4040    4.8050 O.3   501  ANP501     -0.1240
      4  O3G       76.6900   28.4210    5.5040 O.3   501  ANP501     -0.1240
      5  PB        78.3040   28.5550    1.6830 P.3   501  ANP501      0.4669
      6  O1B       79.7910   28.5560    1.2250 O.3   501  ANP501     -0.1253
      7  O2B       77.5880   27.3070    1.0710 O.2   501  ANP501     -0.2351
      8  N3B       78.2450   28.5740    3.3420 N.3   501  ANP501     -0.0163
      9  PA        76.2650   30.4140    1.0280 P.3   501  ANP501      0.2220
     10  O1A       75.5890   30.4970   -0.3570 O.2   501  ANP501     -0.5170
     11  O2A       75.4560   29.4620    1.9150 O.3   501  ANP501     -0.4370
     12  O3A       77.6870   29.8320    0.9980 O.3   501  ANP501     -0.2360
     13  O5'       76.0900   31.7850    1.6790 O.3   501  ANP501     -0.3111
     14  C5'       76.7590   32.0340    2.9560 C.3   501  ANP501      0.1813
     15  C4'       76.2520   33.3180    3.6200 C.3   501  ANP501      0.1821
     16  O4'       76.5890   34.4950    2.8570 O.3   501  ANP501     -0.3135
     17  C3'       74.7390   33.3190    3.7820 C.3   501  ANP501      0.2184
     18  O3'       74.2380   32.7260    4.9900 O.3   501  ANP501     -0.2174
     19  C2'       74.3780   34.7870    3.6270 C.3   501  ANP501      0.2570
     20  O2'       74.3840   35.4160    4.9340 O.3   501  ANP501     -0.2130
     21  C1'       75.4770   35.4050    2.7650 C.3   501  ANP501      0.3186
     22  N9        75.0780   35.5940    1.3320 N.pl3 501  ANP501     -0.1439
     23  C8        75.2600   34.6720    0.3310 C.3   501  ANP501      0.3377
     24  N7        74.7950   35.1610   -0.8430 N.2   501  ANP501     -0.2095
     25  C5        74.3020   36.4160   -0.6070 C.2   501  ANP501      0.2526
     26  C6        73.7190   37.4100   -1.3480 C.2   501  ANP501      0.4393
     27  N6        73.5090   37.2460   -2.6650 N.pl3 501  ANP501      0.2180
     28  N1        73.3390   38.5790   -0.7730 N.2   501  ANP501      0.0021
     29  C2        73.5190   38.8150    0.5440 C.3   501  ANP501      0.5254
     30  N3        74.0930   37.8850    1.3640 N.2   501  ANP501     -0.0055
     31  C4        74.4730   36.7090    0.7610 C.2   501  ANP501      0.3518
@<TRIPOS>BOND
     1    27    26    1
     2    26    28    2
     3    26    25    1
     4    24    25    2
     5    24    23    1
     6    28    29    1
     7    25    31    1
     8    10     9    2
     9    23    22    1
    10    29    30    1
    11    31    22    1
    12    31    30    2
    13    12     9    1
    14    12     5    1
    15     9    13    1
    16     9    11    1
    17     7     5    2
    18     6     5    1
    19    22    21    1
    20    13    14    1
    21     5     8    1
    22    21    16    1
    23    21    19    1
    24    16    15    1
    25    14    15    1
    26     8     1    1
    27     2     1    2
    28    15    17    1
    29    19    17    1
    30    19    20    1
    31    17    18    1
    32     1     3    1
    33     1     4    1
