@<TRIPOS>MOLECULE
1xr2_C2F_A_1.pdb
 33 35 0 0 0
SMALL
GASTEIGER

@<TRIPOS>ATOM
      1  N1        38.6400   15.7070   21.0440 N.2   1200  C2F1200    -0.2726
      2  C2        39.8630   15.7940   20.5090 C.1   1200  C2F1200     0.2603
      3  NA2       40.2500   16.9250   19.9230 N.pl3 1200  C2F1200    -0.0221
      4  N3        40.6970   14.7420   20.5630 N.2   1200  C2F1200    -0.2515
      5  C4        40.3280   13.5950   21.1520 C.1   1200  C2F1200     0.2218
      6  O4        41.2210   12.5670   21.2200 O.2   1200  C2F1200    -0.2109
      7  C4A       39.0660   13.4670   21.7180 C.3   1200  C2F1200     0.2763
      8  N5        38.7340   12.4010   22.4560 N.3   1200  C2F1200    -0.2435
      9  C6        37.5410   12.4660   23.3170 C.3   1200  C2F1200     0.1062
     10  C7        36.3980   13.2040   22.6150 C.3   1200  C2F1200     0.1547
     11  N8        36.8980   14.4880   22.0740 N.2   1200  C2F1200    -0.2096
     12  C8A       38.2230   14.5760   21.6370 C.1   1200  C2F1200     0.1050
     13  C9        37.9420   13.1590   24.6250 C.3   1200  C2F1200     0.1302
     14  N10       36.8370   13.9180   25.2280 N.pl3 1200  C2F1200    -0.2361
     15  C11       39.0860   11.0850   21.9000 C.3   1200  C2F1200     0.0915
     16  C12       33.7110   12.3940   27.4460 C.ar  1200  C2F1200     0.0551
     17  C13       33.8170   13.7620   27.2060 C.ar  1200  C2F1200     0.0059
     18  C14       34.8840   14.2570   26.4620 C.ar  1200  C2F1200     0.0162
     19  C15       35.8500   13.3930   25.9550 C.ar  1200  C2F1200     0.0654
     20  C16       35.7450   12.0260   26.1970 C.ar  1200  C2F1200     0.0162
     21  C17       34.6760   11.5290   26.9410 C.ar  1200  C2F1200     0.0059
     22  C         32.5230   11.8730   28.2580 C.2   1200  C2F1200     0.2652
     23  O         31.7600   12.6530   28.8200 O.2   1200  C2F1200    -0.2684
     24  N         32.3910   10.5450   28.3040 N.am  1200  C2F1200    -0.1918
     25  CA        31.3010    9.8960   29.0430 C.3   1200  C2F1200     0.1986
     26  CB        30.4650    9.0190   28.1060 C.3   1200  C2F1200     0.0451
     27  CG        29.7510    9.8590   27.0450 C.3   1200  C2F1200     0.1164
     28  CD        28.8700    8.9890   26.1430 C.2   1200  C2F1200     0.3649
     29  OE1       27.6610    8.8960   26.4490 O.co2 1200  C2F1200    -0.2457
     30  OE2       29.4240    8.4420   25.1660 O.co2 1200  C2F1200    -0.2457
     31  CT        31.8690    9.0440   30.1820 C.2   1200  C2F1200     0.3842
     32  O1        31.0820    8.2740   30.7620 O.co2 1200  C2F1200    -0.2437
     33  O2        33.0850    9.1920   30.4500 O.co2 1200  C2F1200    -0.2437
@<TRIPOS>BOND
     1     3     2    1
     2     2     4    2
     3     2     1    2
     4     4     5    2
     5     1    12    2
     6     5     6    2
     7     5     7    1
     8    12     7    1
     9    12    11    2
    10     7     8    1
    11    15     8    1
    12    11    10    1
    13     8     9    1
    14    10     9    1
    15     9    13    1
    16    13    14    1
    17    30    28   ar
    18    14    19    1
    19    19    20   ar
    20    19    18   ar
    21    28    29   ar
    22    28    27    1
    23    20    21   ar
    24    18    17   ar
    25    21    16   ar
    26    27    26    1
    27    17    16   ar
    28    16    22    1
    29    26    25    1
    30    22    24   am
    31    22    23    2
    32    24    25    1
    33    25    31    1
    34    31    33   ar
    35    31    32   ar
