@<TRIPOS>MOLECULE
1xrj_C5P_A_1.pdb
 21 22 0 0 0
SMALL
GASTEIGER

@<TRIPOS>ATOM
      1  O3P       29.1480   78.9370   27.1340 O.3   405  C5P405     -0.1145
      2  P         27.6560   79.0680   26.6960 P.3   405  C5P405      0.5327
      3  O1P       27.1530   80.4180   26.7990 O.2   405  C5P405     -0.2224
      4  O2P       26.7640   77.9420   27.3350 O.3   405  C5P405     -0.1145
      5  O5'       27.5470   78.5760   25.1390 O.3   405  C5P405     -0.2675
      6  C5'       28.2360   79.2480   24.1230 C.3   405  C5P405      0.1859
      7  C4'       29.3950   78.4100   23.7650 C.3   405  C5P405      0.1801
      8  O4'       29.2790   77.0590   23.2330 O.3   405  C5P405     -0.3320
      9  C3'       30.4170   79.1370   22.7960 C.3   405  C5P405      0.2158
     10  O3'       31.4970   79.8540   23.4220 O.3   405  C5P405     -0.2175
     11  C2'       30.7120   78.0370   21.7800 C.3   405  C5P405      0.2319
     12  O2'       32.1190   77.8940   21.9140 O.3   405  C5P405     -0.2157
     13  C1'       30.3740   76.7890   22.3820 C.3   405  C5P405      0.2400
     14  N1        29.7270   75.7700   21.4140 N.am  405  C5P405     -0.1778
     15  C2        30.4130   74.4750   21.2630 C.1   405  C5P405      0.2756
     16  N3        29.9340   73.5190   20.4280 N.2   405  C5P405     -0.3024
     17  C4        28.7260   73.7180   19.6740 C.2   405  C5P405      0.2346
     18  C5        27.9750   74.9560   19.7610 C.2   405  C5P405      0.0687
     19  C6        28.5210   75.8990   20.6320 C.2   405  C5P405      0.0836
     20  O2        31.4810   74.2600   21.9070 O.2   405  C5P405     -0.1925
     21  N4        28.2670   72.7630   18.8530 N.pl3 405  C5P405     -0.0921
@<TRIPOS>BOND
     1    21    17    1
     2    17    18    1
     3    17    16    2
     4    18    19    2
     5    16    15    2
     6    19    14    1
     7    15    14   am
     8    15    20    2
     9    14    13    1
    10    11    12    1
    11    11    13    1
    12    11     9    1
    13    13     8    1
    14     9    10    1
    15     9     7    1
    16     8     7    1
    17     7     6    1
    18     6     5    1
    19     5     2    1
    20     2     3    2
    21     2     1    1
    22     2     4    1
