@<TRIPOS>MOLECULE
1xrj_ADP_A_1.pdb
 27 29 0 0 0
SMALL
GASTEIGER

@<TRIPOS>ATOM
      1  PB        26.8100   80.4660   30.8610 P.3   410  ADP410      0.5373
      2  O1B       27.2670   81.8770   30.8810 O.3   410  ADP410     -0.1143
      3  O2B       25.3360   80.3080   30.6680 O.3   410  ADP410     -0.1143
      4  O3B       27.6540   79.6040   29.8390 O.2   410  ADP410     -0.2221
      5  PA        26.6040   78.6690   33.0710 P.3   410  ADP410      0.2231
      6  O1A       25.5640   79.0910   34.0810 O.3   410  ADP410     -0.4370
      7  O2A       26.1730   77.6050   32.0870 O.2   410  ADP410     -0.5169
      8  O3A       27.1060   79.9410   32.3210 O.3   410  ADP410     -0.2261
      9  O5'       27.8620   78.2940   33.9760 O.3   410  ADP410     -0.3111
     10  C5'       28.9370   77.4880   33.4210 C.3   410  ADP410      0.1813
     11  C4'       29.4630   76.4400   34.4010 C.3   410  ADP410      0.1821
     12  O4'       29.9760   77.1210   35.5800 O.3   410  ADP410     -0.3135
     13  C3'       28.4280   75.4330   34.9470 C.3   410  ADP410      0.2184
     14  O3'       29.0260   74.1230   34.8900 O.3   410  ADP410     -0.2174
     15  C2'       28.1250   75.9750   36.3580 C.3   410  ADP410      0.2570
     16  O2'       27.7200   74.9630   37.2980 O.3   410  ADP410     -0.2130
     17  C1'       29.4520   76.5920   36.7850 C.3   410  ADP410      0.3186
     18  N9        29.2730   77.7160   37.7700 N.pl3 410  ADP410     -0.1439
     19  C8        28.4890   78.8250   37.6320 C.3   410  ADP410      0.3377
     20  N7        28.5500   79.6480   38.6930 N.2   410  ADP410     -0.2095
     21  C5        29.4160   79.0240   39.5380 C.2   410  ADP410      0.2526
     22  C6        29.9060   79.4010   40.8520 C.2   410  ADP410      0.4393
     23  N6        29.5840   80.4640   41.5000 N.pl3 410  ADP410      0.2180
     24  N1        30.7970   78.4910   41.4080 N.2   410  ADP410      0.0021
     25  C2        31.1930   77.3170   40.7660 C.3   410  ADP410      0.5254
     26  N3        30.7510   76.9550   39.5550 N.2   410  ADP410     -0.0055
     27  C4        29.8800   77.8270   38.9840 C.2   410  ADP410      0.3518
@<TRIPOS>BOND
     1     4     1    2
     2     3     1    1
     3     1     2    1
     4     1     8    1
     5     7     5    2
     6     8     5    1
     7     5     9    1
     8     5     6    1
     9    10     9    1
    10    10    11    1
    11    11    13    1
    12    11    12    1
    13    14    13    1
    14    13    15    1
    15    12    17    1
    16    15    17    1
    17    15    16    1
    18    17    18    1
    19    19    18    1
    20    19    20    1
    21    18    27    1
    22    20    21    2
    23    27    21    1
    24    27    26    2
    25    21    22    1
    26    26    25    1
    27    25    24    1
    28    22    24    2
    29    22    23    1
