@<TRIPOS>MOLECULE
1xrl_PHK_A_1.pdb
 13 13 0 0 0
SMALL
GASTEIGER

@<TRIPOS>ATOM
      1  CB        17.3620    7.1250    8.2160 C.3   300  PHK300      0.0480
      2  CG        18.2410    8.1680    7.6130 C.ar  300  PHK300     -0.0206
      3  CD1       17.7130    9.1160    6.7320 C.ar  300  PHK300     -0.0042
      4  CD2       19.6070    8.1910    7.8990 C.ar  300  PHK300     -0.0042
      5  CE1       18.5400   10.0800    6.1360 C.ar  300  PHK300     -0.0003
      6  CE2       20.4400    9.1520    7.3080 C.ar  300  PHK300     -0.0003
      7  CZ        19.9080   10.0880    6.4310 C.ar  300  PHK300     -0.0000
      8  O         15.9010    5.9550   10.5700 O.3   300  PHK300     -0.2202
      9  C1        14.2430    7.2670   10.2660 C.3   300  PHK300      0.1291
     10 CL         12.8260    6.2920   10.8830 Cl    300  PHK300     -0.1109
     11  C         15.2790    6.5170    9.4180 C.3   300  PHK300      0.1859
     12  N         16.4360    8.6890    9.9100 N.3   300  PHK300     -0.1298
     13  CA        16.0940    7.6860    8.8520 C.3   300  PHK300      0.1277
@<TRIPOS>BOND
     1     5     7   ar
     2     5     3   ar
     3     7     6   ar
     4     3     2   ar
     5     6     4   ar
     6     2     4   ar
     7     2     1    1
     8     1    13    1
     9    13    11    1
    10    13    12    1
    11    11     9    1
    12    11     8    1
    13     9    10    1
