@<TRIPOS>MOLECULE
1xrm_PHE_A_1.pdb
 12 12 0 0 0
SMALL
GASTEIGER

@<TRIPOS>ATOM
      1  N         16.3310    9.8340   11.0220 N.3   300  PHE300     -0.1205
      2  CA        15.2240    9.5770   10.0510 C.3   300  PHE300      0.1986
      3  C         14.4860    8.2690   10.3170 C.2   300  PHE300      0.3822
      4  O         15.1590    7.2370   10.5270 O.co2 300  PHE300     -0.2440
      5  CB        15.7470    9.6080    8.5920 C.3   300  PHE300      0.0569
      6  CG        17.1410    9.0590    8.4180 C.ar  300  PHE300     -0.0202
      7  CD1       17.4400    7.7380    8.7510 C.ar  300  PHE300     -0.0042
      8  CD2       18.1570    9.8740    7.9430 C.ar  300  PHE300     -0.0042
      9  CE1       18.7310    7.2450    8.6200 C.ar  300  PHE300     -0.0003
     10  CE2       19.4480    9.3890    7.8100 C.ar  300  PHE300     -0.0003
     11  CZ        19.7340    8.0710    8.1500 C.ar  300  PHE300     -0.0000
     12  OXT       13.2350    8.2990   10.3210 O.co2 300  PHE300     -0.2440
@<TRIPOS>BOND
     1    10     8   ar
     2    10    11   ar
     3     8     6   ar
     4    11     9   ar
     5     6     5    1
     6     6     7   ar
     7     5     2    1
     8     9     7   ar
     9     2     3    1
    10     2     1    1
    11     3    12   ar
    12     3     4   ar
