@<TRIPOS>MOLECULE
1xrp_III_Q_1.pdb
 24 24 0 0 0
SMALL
GASTEIGER

@<TRIPOS>ATOM
      1  N         11.6150   12.7820   16.9070 N.3   401  PRO401     -0.2102
      2  CA        12.0150   13.9050   16.0290 C.3   401  PRO401      0.1504
      3  C         11.0230   15.0020   16.3120 C.2   401  PRO401      0.2576
      4  O         11.4230   16.1760   16.4400 O.2   401  PRO401     -0.2718
      5  CB        11.9360   13.4570   14.5690 C.3   401  PRO401      0.0282
      6  CG        11.3870   12.0420   14.6490 C.3   401  PRO401      0.0208
      7  CD        11.4570   11.5420   16.1190 C.3   401  PRO401      0.0893
      8  N          9.7370   14.6540   16.4010 N.am  402  LEU402     -0.1966
      9  CA         8.7570   15.6910   16.7180 C.3   402  LEU402      0.1728
     10  C          7.2900   15.3690   16.8150 C.2   402  LEU402      0.2617
     11  O          6.8710   14.4570   17.5460 O.2   402  LEU402     -0.2715
     12  CB         8.8820   16.8890   15.7700 C.3   402  LEU402      0.0311
     13  CG         9.2920   18.1490   16.5310 C.3   402  LEU402      0.0022
     14  CD1        8.8400   19.3860   15.7560 C.3   402  LEU402      0.0001
     15  CD2        8.6560   18.1510   17.9420 C.3   402  LEU402      0.0001
     16  N          6.5150   16.1370   16.0490 N.am  403  GLY403     -0.1940
     17  CA         5.0770   16.0710   16.0850 C.3   403  GLY403      0.2014
     18  C          4.9860   17.3770   16.8640 C.2   403  GLY403      0.2640
     19  O          5.7580   18.3440   16.5940 O.2   403  GLY403     -0.2714
     20  N          4.1160   17.4160   17.8610 N.am  404  GLY404     -0.1917
     21  CA         4.0200   18.6120   18.6700 C.3   404  GLY404      0.2285
     22  C          3.5710   18.0870   20.0170 C.2   404  GLY404      0.3865
     23  O          2.7800   18.7920   20.7120 O.co2 404  GLY404     -0.2437
     24  OXT        4.0340   16.9610   20.3890 O.co2 404  GLY404     -0.2437
@<TRIPOS>BOND
     1     5     6    1
     2     5     2    1
     3     6     7    1
     4    14    13    1
     5    12    13    1
     6    12     9    1
     7     2     3    1
     8     2     1    1
     9    16    17    1
    10    16    10   am
    11    17    18    1
    12     7     1    1
    13     3     8   am
    14     3     4    2
    15     8     9    1
    16    13    15    1
    17    19    18    2
    18     9    10    1
    19    10    11    2
    20    18    20   am
    21    20    21    1
    22    21    22    1
    23    22    24   ar
    24    22    23   ar
