@<TRIPOS>MOLECULE
1xrs_PLP_B_1.pdb
 15 15 0 0 0
SMALL
GASTEIGER

@<TRIPOS>ATOM
      1  N1        58.9570   42.6200   81.8090 N.ar  801  PLP801     -0.2452
      2  C2        57.6750   42.6370   81.1160 C.ar  801  PLP801      0.0978
      3  C2A       56.8620   41.3610   81.1960 C.3   801  PLP801      0.0555
      4  C3        57.2770   43.8370   80.3930 C.ar  801  PLP801      0.2049
      5  O3        56.0680   43.7730   79.8070 O.3   801  PLP801     -0.2857
      6  C4        58.0870   45.0040   80.2570 C.ar  801  PLP801      0.0182
      7  C4A       57.6190   46.1220   79.4070 C.3   801  PLP801      0.0342
      8  C5        59.4930   45.0380   80.9660 C.ar  801  PLP801      0.0261
      9  C6        59.8590   43.7970   81.7660 C.ar  801  PLP801      0.0965
     10  C5A       60.5550   46.1400   80.8850 C.3   801  PLP801      0.1815
     11  O4P       61.4100   45.6670   79.9870 O.3   801  PLP801     -0.2653
     12  P         62.8230   45.9470   79.6430 P.3   801  PLP801      0.5329
     13  O1P       62.7620   44.8520   78.6680 O.2   801  PLP801     -0.2224
     14  O2P       63.7410   45.7150   80.8620 O.3   801  PLP801     -0.1145
     15  O3P       62.9480   47.2230   78.9690 O.3   801  PLP801     -0.1145
@<TRIPOS>BOND
     1    13    12    2
     2    15    12    1
     3     7     6    1
     4    12    11    1
     5    12    14    1
     6     5     4    1
     7    11    10    1
     8     6     4   ar
     9     6     8   ar
    10     4     2   ar
    11    10     8    1
    12     8     9   ar
    13     2     3    1
    14     2     1   ar
    15     9     1   ar
