@<TRIPOS>MOLECULE
1xrs_5AD_B_1.pdb
 18 20 0 0 0
SMALL
GASTEIGER

@<TRIPOS>ATOM
      1  N1        83.2900   43.0770   81.1940 N.2   500  5AD500      0.0021
      2  C2        83.3710   44.4490   81.1440 C.3   500  5AD500      0.5254
      3  N3        82.4970   45.3230   81.6760 N.2   500  5AD500     -0.0055
      4  C4        81.4640   44.6810   82.3100 C.2   500  5AD500      0.3518
      5  N9        80.3610   45.2330   82.9750 N.pl3 500  5AD500     -0.1439
      6  C8        79.6100   44.1690   83.4390 C.3   500  5AD500      0.3377
      7  N7        80.1050   42.9980   83.1440 N.2   500  5AD500     -0.2095
      8  C5        81.2730   43.3250   82.4290 C.2   500  5AD500      0.2526
      9  C6        82.2560   42.4580   81.8280 C.2   500  5AD500      0.4393
     10  N6        82.2140   41.1360   81.8510 N.pl3 500  5AD500      0.2180
     11  C1'       80.0580   46.6400   83.1390 C.3   500  5AD500      0.3185
     12  C2'       80.9580   47.4730   84.0360 C.3   500  5AD500      0.2569
     13  C3'       81.7060   48.3390   83.0730 C.3   500  5AD500      0.2159
     14  C4'       80.7890   48.4800   81.8460 C.3   500  5AD500      0.1524
     15  C5'       81.5830   48.6350   80.5610 C.3   500  5AD500      0.0350
     16  O4'       80.0120   47.2900   81.8440 O.3   500  5AD500     -0.3162
     17  O2'       80.0780   48.1350   84.9170 O.3   500  5AD500     -0.2130
     18  O3'       82.0330   49.6050   83.5120 O.3   500  5AD500     -0.2175
@<TRIPOS>BOND
     1    15    14    1
     2     2     1    1
     3     2     3    1
     4     1     9    2
     5     3     4    2
     6     9    10    1
     7     9     8    1
     8    16    14    1
     9    16    11    1
    10    14    13    1
    11     4     8    1
    12     4     5    1
    13     8     7    2
    14     5    11    1
    15     5     6    1
    16    13    18    1
    17    13    12    1
    18    11    12    1
    19     7     6    1
    20    12    17    1
