@<TRIPOS>MOLECULE
1xs1_DUT_A_1.pdb
 28 29 0 0 0
SMALL
GASTEIGER

@<TRIPOS>ATOM
      1  N1       -13.6670    9.9390   16.8350 N.am  1194  DUT1194    -0.1790
      2  C2       -12.9220   10.8980   17.5420 C.1   1194  DUT1194     0.2844
      3  N3       -11.6730   10.4740   18.0530 N.2   1194  DUT1194    -0.2452
      4  C4       -11.2110    9.2000   17.8700 C.1   1194  DUT1194     0.2182
      5  C5       -11.9650    8.2860   17.1720 C.2   1194  DUT1194     0.1242
      6  C6       -13.1880    8.6770   16.6660 C.2   1194  DUT1194     0.0928
      7  O2       -13.3910   12.0910   17.6940 O.2   1194  DUT1194    -0.1918
      8  O4       -10.1410    8.8390   18.3050 O.2   1194  DUT1194    -0.2085
      9  C1'      -14.8700   10.2720   16.0930 C.3   1194  DUT1194     0.2090
     10  C2'      -14.4370    9.9280   14.6110 C.3   1194  DUT1194     0.0874
     11  C3'      -15.4460    8.9340   14.1260 C.3   1194  DUT1194     0.1857
     12  C4'      -16.5940    9.0280   15.1590 C.3   1194  DUT1194     0.1773
     13  O4'      -16.0700    9.6250   16.3670 O.3   1194  DUT1194    -0.3339
     14  O3'      -15.7340    8.9150   12.7440 O.3   1194  DUT1194    -0.2203
     15  C5'      -17.4290    7.8410   15.4500 C.3   1194  DUT1194     0.1812
     16  O5'      -16.5840    6.8390   15.9760 O.3   1194  DUT1194    -0.3112
     17  PA       -17.2120    5.5280   16.3890 P.3   1194  DUT1194     0.2189
     18  O1A      -18.1950    4.9390   15.3920 O.2   1194  DUT1194    -0.5170
     19  O2A      -16.0470    4.6260   16.9090 O.3   1194  DUT1194    -0.4371
     20  O3A      -18.0280    5.8960   17.7180 O.3   1194  DUT1194    -0.2700
     21  PB       -19.5250    5.6110   18.1780 P.3   1194  DUT1194     0.2277
     22  O1B      -19.4880    5.6230   19.6780 O.3   1194  DUT1194    -0.4368
     23  O2B      -20.0230    4.2640   17.5810 O.2   1194  DUT1194    -0.5168
     24  O3B      -20.4630    6.7640   17.5510 O.3   1194  DUT1194    -0.2258
     25  PG       -21.5480    6.6350   16.3340 P.3   1194  DUT1194     0.5373
     26  O1G      -22.8190    6.1940   16.8780 O.3   1194  DUT1194    -0.1143
     27  O2G      -21.6030    8.0180   15.7880 O.3   1194  DUT1194    -0.1143
     28  O3G      -20.8900    5.6320   15.4080 O.2   1194  DUT1194    -0.2221
@<TRIPOS>BOND
     1    14    11    1
     2    11    10    1
     3    11    12    1
     4    10     9    1
     5    12    15    1
     6    12    13    1
     7    18    17    2
     8    28    25    2
     9    15    16    1
    10    27    25    1
    11    16    17    1
    12     9    13    1
    13     9     1    1
    14    25    26    1
    15    25    24    1
    16    17    19    1
    17    17    20    1
    18     6     1    1
    19     6     5    2
    20     1     2   am
    21     5     4    1
    22     2     7    2
    23     2     3    2
    24    24    21    1
    25    23    21    2
    26    20    21    1
    27     4     3    2
    28     4     8    2
    29    21    22    1
