@<TRIPOS>MOLECULE
1xs4_DCP_A_1.pdb
 28 29 0 0 0
SMALL
GASTEIGER

@<TRIPOS>ATOM
      1  N1       -13.6880    9.9350   16.7260 N.am  1194  DCP1194    -0.1802
      2  C2       -13.1270   10.9280   17.5840 C.1   1194  DCP1194     0.2756
      3  N3       -12.0470   10.6330   18.3440 N.2   1194  DCP1194    -0.3024
      4  C4       -11.4520    9.4150   18.2630 C.2   1194  DCP1194     0.2346
      5  C5       -11.9820    8.4330   17.4160 C.2   1194  DCP1194     0.0687
      6  C6       -13.1060    8.7260   16.6480 C.2   1194  DCP1194     0.0835
      7  O2       -13.6300   12.0760   17.6640 O.2   1194  DCP1194    -0.1925
      8  N4       -10.3690    9.1720   19.0310 N.pl3 1194  DCP1194    -0.0921
      9  C1'      -14.8380   10.2960   15.8610 C.3   1194  DCP1194     0.2090
     10  C2'      -14.4240    9.8990   14.4370 C.3   1194  DCP1194     0.0874
     11  C3'      -15.4540    8.9200   13.9230 C.3   1194  DCP1194     0.1857
     12  C4'      -16.5660    8.9870   14.9660 C.3   1194  DCP1194     0.1773
     13  O4'      -16.0950    9.6820   16.1410 O.3   1194  DCP1194    -0.3339
     14  O3'      -15.8460    9.1010   12.5860 O.3   1194  DCP1194    -0.2203
     15  C5'      -17.2760    7.6970   15.3010 C.3   1194  DCP1194     0.1812
     16  O5'      -16.3780    6.7930   15.8690 O.3   1194  DCP1194    -0.3112
     17  PA       -17.0440    5.4930   16.3770 P.3   1194  DCP1194     0.2189
     18  O1A      -18.0330    4.7920   15.3810 O.2   1194  DCP1194    -0.5170
     19  O2A      -15.9010    4.5950   16.9680 O.3   1194  DCP1194    -0.4371
     20  O3A      -17.8990    6.0350   17.6020 O.3   1194  DCP1194    -0.2700
     21  PB       -19.3810    5.5940   17.9900 P.3   1194  DCP1194     0.2277
     22  O1B      -19.4330    5.6440   19.5770 O.3   1194  DCP1194    -0.4368
     23  O2B      -19.8010    4.2280   17.3110 O.2   1194  DCP1194    -0.5168
     24  O3B      -20.3220    6.7180   17.3820 O.3   1194  DCP1194    -0.2258
     25  PG       -21.4230    6.4380   16.2520 P.3   1194  DCP1194     0.5373
     26  O1G      -22.7840    5.8790   16.8560 O.3   1194  DCP1194    -0.1143
     27  O2G      -21.6790    7.8980   15.6820 O.3   1194  DCP1194    -0.1143
     28  O3G      -20.8440    5.4070   15.1740 O.2   1194  DCP1194    -0.2221
@<TRIPOS>BOND
     1    14    11    1
     2    11    10    1
     3    11    12    1
     4    10     9    1
     5    12    15    1
     6    12    13    1
     7    28    25    2
     8    15    16    1
     9    18    17    2
    10    27    25    1
    11     9    13    1
    12     9     1    1
    13    16    17    1
    14    25    26    1
    15    25    24    1
    16    17    19    1
    17    17    20    1
    18     6     1    1
    19     6     5    2
    20     1     2   am
    21    23    21    2
    22    24    21    1
    23     5     4    1
    24     2     7    2
    25     2     3    2
    26    20    21    1
    27    21    22    1
    28     4     3    2
    29     4     8    1
