@<TRIPOS>MOLECULE
1xs6_DUT_A_1.pdb
 28 29 0 0 0
SMALL
GASTEIGER

@<TRIPOS>ATOM
      1  N1        56.8230   -4.3230   33.0320 N.am  1194  DUT1194    -0.1790
      2  C2        57.7180   -5.3940   33.1170 C.1   1194  DUT1194     0.2844
      3  N3        58.4110   -5.6300   34.2770 N.2   1194  DUT1194    -0.2452
      4  C4        58.1940   -4.8520   35.3810 C.1   1194  DUT1194     0.2182
      5  C5        57.2950   -3.7920   35.2970 C.2   1194  DUT1194     0.1242
      6  C6        56.5980   -3.5500   34.1140 C.2   1194  DUT1194     0.0928
      7  O2        57.9130   -6.1150   32.1140 O.2   1194  DUT1194    -0.1918
      8  O4        58.7880   -5.0350   36.4300 O.2   1194  DUT1194    -0.2085
      9  C1'       56.0130   -4.1070   31.8070 C.3   1194  DUT1194     0.2090
     10  C2'       54.5490   -4.0130   32.2580 C.3   1194  DUT1194     0.0874
     11  C3'       54.0090   -2.6940   31.7880 C.3   1194  DUT1194     0.1857
     12  C4'       55.0950   -2.1790   30.8390 C.3   1194  DUT1194     0.1773
     13  O4'       56.2760   -2.9640   31.0310 O.3   1194  DUT1194    -0.3339
     14  O3'       52.6440   -2.6970   31.3830 O.3   1194  DUT1194    -0.2203
     15  C5'       55.4440   -0.6970   30.8400 C.3   1194  DUT1194     0.1812
     16  O5'       55.7660   -0.2440   32.1440 O.3   1194  DUT1194    -0.3112
     17  PA        56.2700    1.2580   32.2370 P.3   1194  DUT1194     0.2189
     18  O1A       55.1650    2.0760   31.6910 O.2   1194  DUT1194    -0.5170
     19  O2A       56.7400    1.4450   33.6570 O.3   1194  DUT1194    -0.4371
     20  O3A       57.5070    1.2630   31.1960 O.3   1194  DUT1194    -0.2700
     21  PB        58.0330    2.4830   30.2290 P.3   1194  DUT1194     0.2277
     22  O1B       59.5500    2.4260   30.3580 O.2   1194  DUT1194    -0.5168
     23  O2B       57.3660    3.7540   30.6240 O.3   1194  DUT1194    -0.4368
     24  O3B       57.5130    1.8590   28.8320 O.3   1194  DUT1194    -0.2258
     25  PG        56.4140    2.4580   27.8120 P.3   1194  DUT1194     0.5373
     26  O1G       57.1150    3.5620   27.1140 O.3   1194  DUT1194    -0.1143
     27  O2G       56.1030    1.3300   26.8990 O.2   1194  DUT1194    -0.2221
     28  O3G       55.2590    2.9170   28.6750 O.3   1194  DUT1194    -0.1143
@<TRIPOS>BOND
     1    27    25    2
     2    26    25    1
     3    25    28    1
     4    25    24    1
     5    24    21    1
     6    21    22    2
     7    21    23    1
     8    21    20    1
     9    12    15    1
    10    12    13    1
    11    12    11    1
    12    15    16    1
    13    13     9    1
    14    20    17    1
    15    14    11    1
    16    18    17    2
    17    11    10    1
    18     9    10    1
    19     9     1    1
    20     7     2    2
    21    16    17    1
    22    17    19    1
    23     1     2   am
    24     1     6    1
    25     2     3    2
    26     6     5    2
    27     3     4    2
    28     5     4    1
    29     4     8    2
