@<TRIPOS>MOLECULE
1xsc_ATP_A_1.pdb
 42 44 0 0 0
SMALL
GASTEIGER

@<TRIPOS>ATOM
      1  PG        -1.7600  -10.4840  -30.8560 P.3   154  ATP154      0.5373
      2  O1G       -3.2420  -10.5630  -30.8700 O.3   154  ATP154     -0.1143
      3  O2G       -1.3890  -11.9110  -31.0370 O.3   154  ATP154     -0.1143
      4  O3G       -1.0490   -9.6630  -31.8690 O.2   154  ATP154     -0.2221
      5  PB         0.0410   -9.6170  -29.0160 P.3   154  ATP154      0.2277
      6  O1B       -0.0590   -8.1730  -28.6810 O.3   154  ATP154     -0.4368
      7  O2B        1.0680  -10.0850  -29.9790 O.2   154  ATP154     -0.5168
      8  O3B       -1.2960  -10.0080  -29.5290 O.3   154  ATP154     -0.2258
      9  PA         0.5960  -11.6160  -27.2250 P.3   154  ATP154      0.2182
     10  O1A        0.4950  -12.7090  -28.2250 O.2   154  ATP154     -0.5170
     11  O2A        1.7630  -11.5950  -26.3060 O.3   154  ATP154     -0.4371
     12  O3A        0.3600  -10.2290  -27.7000 O.3   154  ATP154     -0.2700
     13  O5'       -0.7430  -11.7650  -26.3740 O.3   154  ATP154     -0.3246
     14  C5'       -0.7530  -11.4990  -24.9750 C.3   154  ATP154      0.0838
     15  C4'       -1.1980  -12.7250  -24.2160 C.3   154  ATP154      0.1163
     16  O4'       -1.4500  -12.3480  -22.8340 O.3   154  ATP154     -0.3473
     17  C3'       -2.4960  -13.3560  -24.7090 C.3   154  ATP154      0.1516
     18  O3'       -2.4920  -14.7650  -24.5270 O.3   154  ATP154     -0.2255
     19  C2'       -3.5540  -12.6700  -23.8540 C.3   154  ATP154      0.1299
     20  O2'       -4.6800  -13.5060  -23.6620 O.3   154  ATP154     -0.3847
     21  C1'       -2.8170  -12.5360  -22.5270 C.3   154  ATP154      0.1619
     22  N9        -3.2570  -11.4110  -21.7050 N.pl3 154  ATP154     -0.2234
     23  C8        -4.0400  -10.3440  -22.0680 C.2   154  ATP154      0.1451
     24  N7        -4.2510   -9.4900  -21.0960 N.2   154  ATP154     -0.3871
     25  C5        -3.5630  -10.0330  -20.0190 C.2   154  ATP154      0.2211
     26  C6        -3.3890   -9.6050  -18.6940 C.2   154  ATP154      0.2227
     27  N6        -3.9170   -8.4830  -18.2030 N.pl3 154  ATP154     -0.3300
     28  N1        -2.6440  -10.3820  -17.8770 N.2   154  ATP154     -0.3296
     29  C2        -2.1110  -11.5080  -18.3710 C.1   154  ATP154      0.0930
     30  N3        -2.2000  -12.0120  -19.5970 N.2   154  ATP154     -0.3287
     31  C4        -2.9490  -11.2180  -20.3810 C.2   154  ATP154      0.2354
     32 H5'1       -1.4370  -10.6770  -24.7620 H     154  ATP154      0.0591
     33 H5'2        0.2460  -11.2210  -24.6440 H     154  ATP154      0.0591
     34  H4'       -0.4190  -13.4820  -24.3260 H     154  ATP154      0.0648
     35  H3'       -2.6460  -13.1900  -25.7760 H     154  ATP154      0.0682
     36  H2'       -3.8170  -11.6950  -24.2700 H     154  ATP154      0.0664
     37 HO2'       -4.3540  -14.3600  -23.3750 H     154  ATP154      0.2101
     38  H1'       -2.8840  -13.4430  -21.9230 H     154  ATP154      0.0841
     39  H8        -4.4450  -10.2200  -23.0610 H     154  ATP154      0.1149
     40 HN61       -4.4780   -7.8860  -18.7960 H     154  ATP154      0.1448
     41 HN62       -3.7500   -8.2210  -17.2430 H     154  ATP154      0.1448
     42  H2        -1.5180  -12.0940  -17.6680 H     154  ATP154      0.1751
@<TRIPOS>BOND
     1     4     1    2
     2     3     1    1
     3     2     1    1
     4     1     8    1
     5     7     5    2
     6     8     5    1
     7     5     6    1
     8     5    12    1
     9    10     9    2
    10    12     9    1
    11     9    13    1
    12     9    11    1
    13    13    14    1
    14    35    17    1
    15    14    32    1
    16    14    33    1
    17    14    15    1
    18    17    18    1
    19    17    15    1
    20    17    19    1
    21    34    15    1
    22    36    19    1
    23    15    16    1
    24    19    20    1
    25    19    21    1
    26    20    37    1
    27    39    23    1
    28    16    21    1
    29    21    38    1
    30    21    22    1
    31    23    22    1
    32    23    24    2
    33    22    31    1
    34    24    25    2
    35    31    25    1
    36    31    30    2
    37    25    26    1
    38    30    29    2
    39    40    27    1
    40    26    27    1
    41    26    28    2
    42    29    28    2
    43    29    42    1
    44    27    41    1
