@<TRIPOS>MOLECULE
1xse_NDP_A_1.pdb
 48 52 0 0 0
SMALL
GASTEIGER

@<TRIPOS>ATOM
      1  PA        42.0520   53.6560   29.4710 P.3   1300  NDP1300     0.2189
      2  O1A       42.7400   52.3070   29.4220 O.3   1300  NDP1300    -0.4371
      3  O2A       42.8570   54.8820   29.1440 O.2   1300  NDP1300    -0.5170
      4  O5B       41.4380   53.7920   30.9430 O.3   1300  NDP1300    -0.3112
      5  C5B       40.8320   52.7270   31.6590 C.3   1300  NDP1300     0.1813
      6  C4B       40.5770   53.1790   33.1000 C.3   1300  NDP1300     0.1820
      7  O4B       39.7540   52.1880   33.7200 O.3   1300  NDP1300    -0.3136
      8  C3B       41.8770   53.2120   33.8920 C.3   1300  NDP1300     0.2157
      9  O3B       41.7970   54.1690   34.9800 O.3   1300  NDP1300    -0.2175
     10  C2B       41.9540   51.8240   34.4960 C.3   1300  NDP1300     0.2314
     11  O2B       42.8990   51.8160   35.5870 O.3   1300  NDP1300    -0.2630
     12  C1B       40.4430   51.6060   34.8020 C.3   1300  NDP1300     0.3158
     13  N9A       40.1310   50.1730   34.9190 N.pl3 1300  NDP1300    -0.1439
     14  C8A       40.4080   49.1930   34.0260 C.3   1300  NDP1300     0.3377
     15  N7A       40.0210   47.9790   34.5090 N.2   1300  NDP1300    -0.2095
     16  C5A       39.4780   48.1740   35.7270 C.2   1300  NDP1300     0.2526
     17  C6A       38.9260   47.3760   36.7040 C.2   1300  NDP1300     0.4393
     18  N6A       38.8370   46.0380   36.5510 N.pl3 1300  NDP1300     0.2180
     19  N1A       38.4700   47.9640   37.8360 N.2   1300  NDP1300     0.0021
     20  C2A       38.5540   49.3020   38.0790 C.3   1300  NDP1300     0.5254
     21  N3A       39.0790   50.1260   37.1780 N.2   1300  NDP1300    -0.0055
     22  C4A       39.5470   49.6240   36.0010 C.2   1300  NDP1300     0.3518
     23  O3        40.6820   53.6100   28.6530 O.3   1300  NDP1300    -0.2703
     24  PN        40.0440   54.8690   27.8820 P.3   1300  NDP1300     0.2189
     25  O1N       40.4010   56.1930   28.5390 O.3   1300  NDP1300    -0.4371
     26  O2N       40.4200   54.6510   26.4510 O.2   1300  NDP1300    -0.5170
     27  O5D       38.4870   54.4960   28.0250 O.3   1300  NDP1300    -0.3112
     28  C5D       37.5620   55.2050   28.8600 C.3   1300  NDP1300     0.1813
     29  C4D       36.1350   54.9140   28.3920 C.3   1300  NDP1300     0.1799
     30  O4D       35.9450   55.4400   27.0630 O.3   1300  NDP1300    -0.3327
     31  C3D       35.8460   53.4290   28.2990 C.3   1300  NDP1300     0.2158
     32  O3D       34.5660   53.1630   28.8460 O.3   1300  NDP1300    -0.2175
     33  C2D       35.8130   53.1520   26.8050 C.3   1300  NDP1300     0.2309
     34  O2D       35.0680   51.9660   26.4430 O.3   1300  NDP1300    -0.2158
     35  C1D       35.3240   54.4760   26.2230 C.3   1300  NDP1300     0.2263
     36  N1N       35.7560   54.5700   24.8190 N.pl3 1300  NDP1300    -0.2787
     37  C2N       37.0490   54.7540   24.5100 C.3   1300  NDP1300     0.1244
     38  C3N       37.4380   54.7550   23.1670 C.2   1300  NDP1300     0.0544
     39  C7N       38.8470   55.0700   22.8530 C.2   1300  NDP1300     0.2818
     40  O7N       39.3770   55.0140   21.4950 O.2   1300  NDP1300    -0.2670
     41  N7N       39.7360   55.1490   23.9790 N.am  1300  NDP1300    -0.0839
     42  C4N       36.4970   54.6480   22.1440 C.2   1300  NDP1300     0.0033
     43  C5N       35.1740   54.4600   22.4910 C.2   1300  NDP1300     0.0157
     44  C6N       34.8350   54.4170   23.8390 C.2   1300  NDP1300     0.0633
     45  P2B       43.4370   50.4620   36.2990 P.3   1300  NDP1300     0.5328
     46  O1X       42.2630   50.0100   37.1270 O.3   1300  NDP1300    -0.1145
     47  O2X       43.7420   49.3830   35.2490 O.2   1300  NDP1300    -0.2224
     48  O3X       44.6490   50.9530   37.0470 O.3   1300  NDP1300    -0.1145
@<TRIPOS>BOND
     1    40    39    2
     2    42    43    1
     3    42    38    2
     4    43    44    2
     5    39    38    1
     6    39    41   am
     7    38    37    1
     8    44    36    1
     9    37    36    1
    10    36    35    1
    11    35    33    1
    12    35    30    1
    13    34    33    1
    14    26    24    2
    15    33    31    1
    16    30    29    1
    17    24    27    1
    18    24    25    1
    19    24    23    1
    20    27    28    1
    21    31    29    1
    22    31    32    1
    23    29    28    1
    24    23     1    1
    25     3     1    2
    26     2     1    1
    27     1     4    1
    28     4     5    1
    29     5     6    1
    30     6     7    1
    31     6     8    1
    32     7    12    1
    33     8    10    1
    34     8     9    1
    35    14    15    1
    36    14    13    1
    37    10    12    1
    38    10    11    1
    39    15    16    2
    40    12    13    1
    41    13    22    1
    42    47    45    2
    43    11    45    1
    44    16    22    1
    45    16    17    1
    46    22    21    2
    47    45    48    1
    48    45    46    1
    49    18    17    1
    50    17    19    2
    51    21    20    1
    52    19    20    1
