@<TRIPOS>MOLECULE
1xsk_XYF_A_1.pdb
 10 10 0 0 0
SMALL
GASTEIGER

@<TRIPOS>ATOM
      1  O3       150.7710   58.7270  137.1370 O.3   801  XYF801     -0.2174
      2  C3       149.6890   59.6610  137.0720 C.3   801  XYF801      0.2201
      3  C4       148.5550   59.2560  138.0150 C.3   801  XYF801      0.2458
      4  O4       148.1370   57.9220  137.7100 O.3   801  XYF801     -0.2145
      5  C5       147.3830   60.2290  137.8370 C.3   801  XYF801      0.3118
      6  F5       146.5950   60.1940  138.9340 F     801  XYF801     -0.2011
      7  O5       147.8170   61.5820  137.5980 O.3   801  XYF801     -0.3220
      8  C1       149.1190   61.8830  138.1300 C.3   801  XYF801      0.1806
      9  C2       150.1900   61.0720  137.3940 C.3   801  XYF801      0.2143
     10  O2       150.5480   61.7100  136.1650 O.3   801  XYF801     -0.2176
@<TRIPOS>BOND
     1    10     9    1
     2     2     1    1
     3     2     9    1
     4     2     3    1
     5     9     8    1
     6     7     5    1
     7     7     8    1
     8     4     3    1
     9     5     3    1
    10     5     6    1
