@<TRIPOS>MOLECULE
1xsn_D3T_A_1.pdb
 28 29 0 0 0
SMALL
GASTEIGER

@<TRIPOS>ATOM
      1  PA        16.2720   23.4040   14.6320 P.3   579  D3T579      0.2189
      2  O1A       16.8510   24.4730   13.7950 O.2   579  D3T579     -0.5170
      3  O2A       15.8360   22.1390   13.9820 O.3   579  D3T579     -0.4371
      4  O5'       14.9640   23.9790   15.3460 O.3   579  D3T579     -0.3113
      5  C5'       14.9280   25.3080   15.8730 C.3   579  D3T579      0.1785
      6  C4'       14.2210   25.3180   17.2070 C.3   579  D3T579      0.1472
      7  O4'       12.8690   24.8340   17.0270 O.3   579  D3T579     -0.3366
      8  C1'       12.4540   24.1210   18.1830 C.3   579  D3T579      0.2063
      9  N1        12.0660   22.7480   17.7940 N.am  579  D3T579     -0.1795
     10  C6        12.7220   22.0830   16.7740 C.2   579  D3T579      0.0877
     11  C2        11.0410   22.1500   18.4940 C.1   579  D3T579      0.2844
     12  O2        10.4700   22.6900   19.4290 O.2   579  D3T579     -0.1918
     13  N3        10.7200   20.8800   18.0770 N.2   579  D3T579     -0.2455
     14  C4        11.3340   20.1530   17.0700 C.1   579  D3T579      0.2134
     15  O4        10.9380   19.0150   16.8130 O.2   579  D3T579     -0.2088
     16  C5        12.4200   20.8310   16.3900 C.2   579  D3T579      0.0891
     17  C5M       13.1650   20.1050   15.3060 C.3   579  D3T579      0.0462
     18  C2'       13.6180   24.1470   19.1760 C.3   579  D3T579      0.0545
     19  C3'       14.8090   24.3950   18.2600 C.3   579  D3T579      0.0366
     20  O3A       17.2220   23.0190   15.7460 O.3   579  D3T579     -0.2700
     21  PB        18.5380   23.5940   16.2310 P.3   579  D3T579      0.2277
     22  O1B       18.7190   24.9620   15.6920 O.2   579  D3T579     -0.5168
     23  O2B       18.5090   23.3730   17.6910 O.3   579  D3T579     -0.4368
     24  O3B       19.6310   22.6980   15.6730 O.3   579  D3T579     -0.2258
     25  PG        20.4200   22.8210   14.3860 P.3   579  D3T579      0.5373
     26  O1G       21.7000   23.4810   14.6800 O.3   579  D3T579     -0.1143
     27  O2G       20.4470   21.4610   13.7670 O.3   579  D3T579     -0.1143
     28  O3G       19.6700   23.7260   13.4700 O.2   579  D3T579     -0.2221
@<TRIPOS>BOND
     1    28    25    2
     2    27    25    1
     3     2     1    2
     4     3     1    1
     5    25    26    1
     6    25    24    1
     7     1     4    1
     8     1    20    1
     9    17    16    1
    10     4     5    1
    11    24    21    1
    12    22    21    2
    13    20    21    1
    14     5     6    1
    15    21    23    1
    16    16    10    2
    17    16    14    1
    18    10     9    1
    19    15    14    2
    20     7     6    1
    21     7     8    1
    22    14    13    2
    23     6    19    1
    24     9     8    1
    25     9    11   am
    26    13    11    2
    27     8    18    1
    28    19    18    1
    29    11    12    2
