@<TRIPOS>MOLECULE
1xt3_CIT_A_1.pdb
 13 12 0 0 0
SMALL
GASTEIGER

@<TRIPOS>ATOM
      1  C1         1.3440   26.5760   23.2610 C.2   101  CIT101      0.3680
      2  O1         2.1580   26.8080   22.3560 O.co2 101  CIT101     -0.2455
      3  O2         0.6080   27.4470   23.7440 O.co2 101  CIT101     -0.2455
      4  C2         1.1760   25.2200   23.8850 C.3   101  CIT101      0.1560
      5  C3         2.4530   24.7740   24.5550 C.3   101  CIT101      0.2402
      6  O7         3.5690   24.9770   23.6890 O.3   101  CIT101     -0.2129
      7  C4         2.7660   25.7330   25.8590 C.3   101  CIT101      0.1560
      8  C5         3.7550   25.2310   26.9780 C.2   101  CIT101      0.3680
      9  O3         3.3420   24.4110   27.8270 O.co2 101  CIT101     -0.2455
     10  O4         4.9030   25.6750   26.9470 O.co2 101  CIT101     -0.2455
     11  C6         2.4750   23.3480   24.8400 C.2   101  CIT101      0.3927
     12  O5         3.5460   22.8660   25.2290 O.co2 101  CIT101     -0.2429
     13  O6         1.4190   22.6740   24.6740 O.co2 101  CIT101     -0.2429
@<TRIPOS>BOND
     1     2     1   ar
     2     1     3   ar
     3     1     4    1
     4     6     5    1
     5     4     5    1
     6     5    11    1
     7     5     7    1
     8    13    11   ar
     9    11    12   ar
    10     7     8    1
    11    10     8   ar
    12     8     9   ar
