@<TRIPOS>MOLECULE
1xt3_IDS_A_1.pdb
 15 15 0 0 0
SMALL
GASTEIGER

@<TRIPOS>ATOM
      1  C1        17.7860   33.3350   35.7010 C.3    61  IDS61       0.2404
      2  C2        18.5110   32.3420   34.7990 C.3    61  IDS61       0.2210
      3  C3        18.8250   31.0130   35.4860 C.3    61  IDS61       0.2103
      4  C4        17.7260   30.5670   36.3900 C.2    61  IDS61       0.0526
      5  C5        16.6540   31.3670   36.6490 C.2    61  IDS61       0.2164
      6  C6        15.3570   30.7770   37.3270 C.2    61  IDS61       0.4208
      7  O2        17.6980   32.0040   33.6620 O.3    61  IDS61      -0.2368
      8  O3        20.0170   31.2130   36.1600 O.3    61  IDS61      -0.2153
      9  O5        16.5980   32.6890   36.2280 O.2    61  IDS61      -0.4664
     10  O61       15.3290   29.5950   37.6720 O.co2  61  IDS61      -0.2371
     11  O62       14.3450   31.5040   37.4820 O.co2  61  IDS61      -0.2371
     12  S         16.3040   32.9840   33.1360 S.3    61  IDS61      -0.0000
     13  O1S       15.2970   32.9180   34.1620 O.3    61  IDS61      -0.2682
     14  O2S       15.7160   32.4100   31.9740 O.2    61  IDS61      -0.3452
     15  O3S       16.7850   34.3380   32.9050 O.2    61  IDS61      -0.3452
@<TRIPOS>BOND
     1    14    12    2
     2    15    12    2
     3    12     7    1
     4    12    13    1
     5     7     2    1
     6     2     3    1
     7     2     1    1
     8     3     8    1
     9     3     4    1
    10     1     9    1
    11     9     5    1
    12     4     5    2
    13     5     6    1
    14     6    11   ar
    15     6    10   ar
