@<TRIPOS>MOLECULE
1xt4_GUN_A_1.pdb
 11 12 0 0 0
SMALL
GASTEIGER

@<TRIPOS>ATOM
      1  N9        31.6050   25.7810   39.8030 N.2   901  GUN901     -0.1802
      2  C8        32.8050   25.5360   39.1880 C.3   901  GUN901      0.2633
      3  N7        32.9130   26.0460   37.9810 N.2   901  GUN901     -0.2212
      4  C5        31.6700   26.6610   37.7780 C.2   901  GUN901      0.2482
      5  C6        31.1840   27.3930   36.6530 C.1   901  GUN901      0.2442
      6  O6        31.7690   27.6570   35.6070 O.2   901  GUN901     -0.2063
      7  N1        29.8720   27.8220   36.8500 N.2   901  GUN901     -0.2474
      8  C2        29.1180   27.5910   37.9860 C.1   901  GUN901      0.2608
      9  N2        27.8780   28.0760   37.9950 N.pl3 901  GUN901     -0.0220
     10  N3        29.5840   26.9290   39.0710 N.2   901  GUN901     -0.2682
     11  C4        30.8630   26.4930   38.8880 C.1   901  GUN901      0.1289
@<TRIPOS>BOND
     1     6     5    2
     2     5     7    2
     3     5     4    1
     4     7     8    2
     5     4     3    2
     6     4    11    1
     7     3     2    1
     8     8     9    1
     9     8    10    2
    10    11    10    2
    11    11     1    2
    12     2     1    1
