@<TRIPOS>MOLECULE
1xt6_FMN_A_1.pdb
 31 33 0 0 0
SMALL
GASTEIGER

@<TRIPOS>ATOM
      1  N1        26.4700   13.9120   13.6050 N.2   149  FMN149     -0.2887
      2  C2        25.4610   14.7020   14.1170 C.1   149  FMN149      0.3669
      3  O2        25.4680   15.2770   15.1460 O.2   149  FMN149     -0.1744
      4  N3        24.2750   14.8670   13.2860 N.2   149  FMN149     -0.2300
      5  C4        24.0950   14.2880   11.9940 C.1   149  FMN149      0.2513
      6  O4        22.9860   14.5160   11.2740 O.2   149  FMN149     -0.2057
      7  C4A       25.1140   13.5000   11.4320 C.2   149  FMN149      0.2706
      8  N5        25.0650   13.0040   10.2300 N.2   149  FMN149     -0.3841
      9  C5A       26.1090   12.3360    9.6310 C.2   149  FMN149      0.1452
     10  C6        26.1660   11.8710    8.1950 C.2   149  FMN149      0.0252
     11  C7        27.2390   11.3360    7.6860 C.2   149  FMN149     -0.0375
     12  C7M       27.3820   10.8800    6.2560 C.3   149  FMN149      0.0268
     13  C8        28.5130   11.1400    8.4830 C.3   149  FMN149      0.0417
     14  C8M       29.8510   10.5080    7.8040 C.3   149  FMN149      0.0091
     15  C9        28.4720   11.4820    9.8510 C.2   149  FMN149     -0.0049
     16  C9A       27.3720   12.0800   10.4680 C.2   149  FMN149      0.0795
     17  N10       27.2530   12.6020   11.8330 N.pl3 149  FMN149     -0.2545
     18  C10       26.3550   13.3240   12.3550 C.2   149  FMN149      0.2449
     19  C1'       28.4910   12.4310   12.7100 C.3   149  FMN149      0.1336
     20  C2'       28.6230   11.0690   13.1190 C.3   149  FMN149      0.2048
     21  O2'       27.5890   10.7600   14.0550 O.3   149  FMN149     -0.2185
     22  C3'       29.9180   10.9970   14.0070 C.3   149  FMN149      0.2165
     23  O3'       30.9450   10.7900   13.0010 O.3   149  FMN149     -0.2175
     24  C4'       29.9220    9.8360   15.1120 C.3   149  FMN149      0.2147
     25  O4'       31.4230   10.1430   15.7240 O.3   149  FMN149     -0.2176
     26  C5'       29.7280    8.3190   14.6460 C.3   149  FMN149      0.1892
     27  O5'       29.6310    7.6120   15.8940 O.3   149  FMN149     -0.2674
     28  P         29.8040    6.1610   15.6380 P.3   149  FMN149      0.5327
     29  O1P       28.5880    5.4640   14.8070 O.2   149  FMN149     -0.2224
     30  O2P       31.3340    5.9240   15.4230 O.3   149  FMN149     -0.1145
     31  O3P       29.4770    5.6140   17.0550 O.3   149  FMN149     -0.1145
@<TRIPOS>BOND
     1    12    11    1
     2    11    10    2
     3    11    13    1
     4    14    13    1
     5    10     9    1
     6    13    15    1
     7     9     8    2
     8     9    16    1
     9    15    16    2
    10     8     7    2
    11    16    17    1
    12     6     5    2
    13     7     5    1
    14     7    18    1
    15    17    18    1
    16    17    19    1
    17     5     4    2
    18    18     1    2
    19    19    20    1
    20    23    22    1
    21    20    22    1
    22    20    21    1
    23     4     2    2
    24     1     2    2
    25    22    24    1
    26     2     3    2
    27    26    24    1
    28    26    27    1
    29    29    28    2
    30    24    25    1
    31    30    28    1
    32    28    27    1
    33    28    31    1
