@<TRIPOS>MOLECULE
1xtb_S6P_A_1.pdb
 16 15 0 0 0
SMALL
GASTEIGER

@<TRIPOS>ATOM
      1  C1        15.4150    8.6310   28.3320 C.3   2002  S6P2002     0.2175
      2  C2        15.4460    9.3210   29.7030 C.3   2002  S6P2002     0.2175
      3  C3        16.0470    8.4610   30.8430 C.3   2002  S6P2002     0.2175
      4  C4        17.5980    8.4810   30.8500 C.3   2002  S6P2002     0.2174
      5  C5        18.2140    7.9300   32.1490 C.3   2002  S6P2002     0.2147
      6  C6        19.7810    8.0820   32.1360 C.3   2002  S6P2002     0.1892
      7  O1        14.8810    9.4790   27.4640 O.3   2002  S6P2002    -0.2175
      8  O2        16.2380   10.5230   29.5590 O.3   2002  S6P2002    -0.2175
      9  O3        15.6160    7.0920   30.7540 O.3   2002  S6P2002    -0.2175
     10  O4        18.0680    7.6800   29.7400 O.3   2002  S6P2002    -0.2175
     11  O5        17.8850    8.7150   33.2690 O.3   2002  S6P2002    -0.2176
     12  O6        20.2260    7.5220   30.9090 O.3   2002  S6P2002    -0.2674
     13  P         21.8740    7.6290   30.7190 P.3   2002  S6P2002     0.5327
     14  O1P       22.3260    9.1020   30.7740 O.3   2002  S6P2002    -0.1145
     15  O2P       22.5810    6.9310   31.8630 O.3   2002  S6P2002    -0.1145
     16  O3P       22.1850    6.9740   29.3740 O.2   2002  S6P2002    -0.2224
@<TRIPOS>BOND
     1     7     1    1
     2     1     2    1
     3    16    13    2
     4     8     2    1
     5     2     3    1
     6    10     4    1
     7    13    14    1
     8    13    12    1
     9    13    15    1
    10     9     3    1
    11     3     4    1
    12     4     5    1
    13    12     6    1
    14     6     5    1
    15     5    11    1
