@<TRIPOS>MOLECULE
1xtj_ADP_A_1.pdb
 27 29 0 0 0
SMALL
GASTEIGER

@<TRIPOS>ATOM
      1  PB        -3.1490    0.7410    9.9910 P.3   550  ADP550      0.5373
      2  O1B       -2.2470    1.8920   10.2180 O.3   550  ADP550     -0.1143
      3  O2B       -4.5950    1.1010    9.9820 O.3   550  ADP550     -0.1143
      4  O3B       -2.7100   -0.0750    8.7210 O.2   550  ADP550     -0.2221
      5  PA        -2.3600   -1.6220   11.4160 P.3   550  ADP550      0.2231
      6  O1A       -3.2250   -2.6000   10.6430 O.2   550  ADP550     -0.5169
      7  O2A       -0.9010   -1.6400   11.0530 O.3   550  ADP550     -0.4370
      8  O3A       -2.9220   -0.1650   11.2680 O.3   550  ADP550     -0.2261
      9  O5'       -2.6820   -1.9450   12.9380 O.3   550  ADP550     -0.3111
     10  C5'       -2.0420   -1.1660   13.9940 C.3   550  ADP550      0.1813
     11  C4'       -1.2350   -1.9670   15.0120 C.3   550  ADP550      0.1821
     12  O4'       -2.0790   -2.4240   16.0950 O.3   550  ADP550     -0.3135
     13  C3'       -0.5190   -3.2280   14.5100 C.3   550  ADP550      0.2184
     14  O3'        0.7970   -3.2510   15.1060 O.3   550  ADP550     -0.2174
     15  C2'       -1.4520   -4.3710   14.9220 C.3   550  ADP550      0.2570
     16  O2'       -0.7350   -5.5570   15.3140 O.3   550  ADP550     -0.2130
     17  C1'       -2.2380   -3.8290   16.1260 C.3   550  ADP550      0.3186
     18  N9        -3.7220   -4.1770   16.1000 N.pl3 550  ADP550     -0.1439
     19  C8        -4.5540   -4.2370   15.0260 C.3   550  ADP550      0.3377
     20  N7        -5.8170   -4.5790   15.3530 N.2   550  ADP550     -0.2095
     21  C5        -5.7740   -4.7390   16.6970 C.2   550  ADP550      0.2526
     22  C6        -6.8010   -5.1070   17.6550 C.2   550  ADP550      0.4393
     23  N6        -8.0240   -5.3630   17.3920 N.pl3 550  ADP550      0.2180
     24  N1        -6.3570   -5.1700   18.9640 N.2   550  ADP550      0.0021
     25  C2        -5.0500   -4.9110   19.3470 C.3   550  ADP550      0.5254
     26  N3        -4.0940   -4.5710   18.4820 N.2   550  ADP550     -0.0055
     27  C4        -4.4890   -4.4970   17.1820 C.2   550  ADP550      0.3518
@<TRIPOS>BOND
     1     4     1    2
     2     3     1    1
     3     1     2    1
     4     1     8    1
     5     6     5    2
     6     7     5    1
     7     8     5    1
     8     5     9    1
     9     9    10    1
    10    10    11    1
    11    13    15    1
    12    13    11    1
    13    13    14    1
    14    15    16    1
    15    15    17    1
    16    11    12    1
    17    19    20    1
    18    19    18    1
    19    20    21    2
    20    12    17    1
    21    18    17    1
    22    18    27    1
    23    21    27    1
    24    21    22    1
    25    27    26    2
    26    23    22    1
    27    22    24    2
    28    26    25    1
    29    24    25    1
