@<TRIPOS>MOLECULE
1xtp_SAI_A_1.pdb
 26 28 0 0 0
SMALL
GASTEIGER

@<TRIPOS>ATOM
      1  N          6.1940   -4.0960   21.7260 N.3   401  SAI401      0.0000
      2  CA         5.8820   -5.4130   22.3530 C.3   401  SAI401      0.0000
      3  CB         4.8280   -6.1390   21.5430 C.3   401  SAI401      0.0000
      4  CG         5.1970   -6.4830   20.1080 C.3   401  SAI401      0.0000
      5 SE          3.6880   -7.4150   19.2510 Se    401  SAI401      0.0000
      6  C          7.0850   -6.3390   22.4290 C.2   401  SAI401      0.0000
      7  O          8.0760   -6.1370   21.7280 O.co2 401  SAI401      0.0000
      8  OXT        7.0740   -7.3250   23.1650 O.co2 401  SAI401      0.0000
      9  C5'        2.8980   -5.8280   18.3810 C.3   401  SAI401      0.0000
     10  C4'        1.8810   -5.0990   19.2640 C.3   401  SAI401      0.0000
     11  O4'        1.4730   -3.9450   18.5900 O.3   401  SAI401      0.0000
     12  C3'        0.6070   -5.8770   19.5550 C.3   401  SAI401      0.0000
     13  O3'        0.3470   -5.8990   20.9340 O.3   401  SAI401      0.0000
     14  C2'       -0.5080   -5.1440   18.8480 C.3   401  SAI401      0.0000
     15  O2'       -1.7450   -5.2120   19.5440 O.3   401  SAI401      0.0000
     16  C1'        0.0910   -3.7600   18.8460 C.3   401  SAI401      0.0000
     17  N9        -0.4640   -2.8530   17.8520 N.pl3 401  SAI401      0.5000
     18  C8        -0.9820   -3.1810   16.6190 C.3   401  SAI401      0.0000
     19  N7        -1.3700   -2.0560   16.0250 N.2   401  SAI401      0.0000
     20  C5        -1.0940   -1.0070   16.8570 C.2   401  SAI401      0.0000
     21  C6        -1.2790    0.3680   16.7340 C.2   401  SAI401      0.0000
     22  N6        -1.8360    0.8650   15.6280 N.pl3 401  SAI401      0.5000
     23  N1        -0.8940    1.2040   17.7690 N.2   401  SAI401      0.5000
     24  C2        -0.3380    0.6870   18.9320 C.3   401  SAI401      0.0000
     25  N3        -0.1470   -0.6800   19.0360 N.2   401  SAI401      0.5000
     26  C4        -0.5140   -1.5000   18.0130 C.2   401  SAI401      0.0000
@<TRIPOS>BOND
     1    22    21    1
     2    19    18    1
     3    19    20    2
     4    18    17    1
     5    21    20    1
     6    21    23    2
     7    20    26    1
     8    23    24    1
     9    17    26    1
    10    17    16    1
    11    26    25    2
    12     9     5    1
    13     9    10    1
    14    11    16    1
    15    11    10    1
    16    16    14    1
    17    14    15    1
    18    14    12    1
    19    24    25    1
    20     5     4    1
    21    10    12    1
    22    12    13    1
    23     4     3    1
    24     3     2    1
    25     1     2    1
    26     7     6   ar
    27     2     6    1
    28     6     8   ar
