@<TRIPOS>MOLECULE
1xtq_GDP_A_1.pdb
 28 30 0 0 0
SMALL
GASTEIGER

@<TRIPOS>ATOM
      1  PB       -19.4320   20.2400   46.9190 P.3   201  GDP201      0.5373
      2  O1B      -20.0780   21.3690   46.2250 O.2   201  GDP201     -0.2221
      3  O2B      -18.2540   19.6860   46.2250 O.3   201  GDP201     -0.1143
      4  O3B      -19.0320   20.5500   48.3110 O.3   201  GDP201     -0.1143
      5  O3A      -20.4980   19.0460   46.9740 O.3   201  GDP201     -0.2261
      6  PA       -21.5420   18.6330   48.1650 P.3   201  GDP201      0.2231
      7  O1A      -22.4640   19.7440   48.3640 O.2   201  GDP201     -0.5169
      8  O2A      -20.7240   18.1970   49.3080 O.3   201  GDP201     -0.4370
      9  O5'      -22.2460   17.3750   47.4910 O.3   201  GDP201     -0.3111
     10  C5'      -23.1110   17.5320   46.3480 C.3   201  GDP201      0.1813
     11  C4'      -24.1770   16.4490   46.2820 C.3   201  GDP201      0.1799
     12  O4'      -23.5070   15.1740   46.1170 O.3   201  GDP201     -0.3326
     13  C3'      -25.0390   16.3210   47.5380 C.3   201  GDP201      0.2158
     14  O3'      -26.3480   16.0250   47.0260 O.3   201  GDP201     -0.2175
     15  C2'      -24.3800   15.1250   48.2870 C.3   201  GDP201      0.2310
     16  O2'      -25.3250   14.3960   49.1200 O.3   201  GDP201     -0.2158
     17  C1'      -23.8520   14.2460   47.1620 C.3   201  GDP201      0.2293
     18  N9       -22.6130   13.5100   47.5490 N.pl3 201  GDP201     -0.2354
     19  C8       -21.3970   14.0050   48.0040 C.3   201  GDP201      0.2246
     20  N7       -20.4870   13.0950   48.2580 N.2   201  GDP201     -0.2322
     21  C5       -21.1520   11.9150   47.9480 C.2   201  GDP201      0.2182
     22  C6       -20.7310   10.5720   48.0000 C.1   201  GDP201      0.2372
     23  O6       -19.6190   10.1330   48.3520 O.2   201  GDP201     -0.2069
     24  N1       -21.7080    9.6690   47.6010 N.2   201  GDP201     -0.2485
     25  C2       -22.9950   10.0140   47.1810 C.1   201  GDP201      0.2531
     26  N2       -23.8210    9.0460   46.8290 N.pl3 201  GDP201     -0.0226
     27  N3       -23.4170   11.2750   47.1220 N.2   201  GDP201     -0.3074
     28  C4       -22.4650   12.1710   47.5120 C.2   201  GDP201      0.2300
@<TRIPOS>BOND
     1    12    11    1
     2    12    17    1
     3     2     1    2
     4     3     1    1
     5    11    10    1
     6    11    13    1
     7    10     9    1
     8    26    25    1
     9     1     5    1
    10     1     4    1
    11     5     6    1
    12    14    13    1
    13    27    25    2
    14    27    28    2
    15    17    18    1
    16    17    15    1
    17    25    24    2
    18     9     6    1
    19    28    18    1
    20    28    21    1
    21    13    15    1
    22    18    19    1
    23    24    22    2
    24    21    22    1
    25    21    20    2
    26    22    23    2
    27    19    20    1
    28     6     7    2
    29     6     8    1
    30    15    16    1
