@<TRIPOS>MOLECULE
1xtr_GNP_A_1.pdb
 32 34 0 0 0
SMALL
GASTEIGER

@<TRIPOS>ATOM
      1  PG        30.7320   93.1040   59.7170 P.3   179  GNP179      0.4884
      2  O1G       30.5850   93.8500   58.4520 O.2   179  GNP179     -0.2331
      3  O2G       31.3510   93.9470   60.6990 O.3   179  GNP179     -0.1240
      4  O3G       31.7310   91.9600   59.5670 O.3   179  GNP179     -0.1240
      5  N3B       29.3330   92.4560   60.1610 N.3   179  GNP179     -0.0163
      6  PB        29.1090   91.5520   61.5080 P.3   179  GNP179      0.4669
      7  O1B       29.6780   90.2200   61.3280 O.2   179  GNP179     -0.2351
      8  O2B       29.5300   92.1790   62.7410 O.3   179  GNP179     -0.1253
      9  O3A       27.5120   91.4400   61.6040 O.3   179  GNP179     -0.2360
     10  PA        26.4760   92.3750   62.4780 P.3   179  GNP179      0.2220
     11  O1A       26.6430   92.0840   63.9300 O.3   179  GNP179     -0.4370
     12  O2A       26.5710   93.7760   62.0420 O.2   179  GNP179     -0.5170
     13  O5'       25.0820   91.7220   62.0400 O.3   179  GNP179     -0.3111
     14  C5'       24.6510   91.8560   60.6460 C.3   179  GNP179      0.1813
     15  C4'       23.1200   91.8790   60.5340 C.3   179  GNP179      0.1799
     16  O4'       22.5950   90.5790   60.9210 O.3   179  GNP179     -0.3326
     17  C3'       22.4410   92.9340   61.4510 C.3   179  GNP179      0.2158
     18  O3'       21.3970   93.6180   60.7290 O.3   179  GNP179     -0.2175
     19  C2'       21.9610   92.0800   62.6120 C.3   179  GNP179      0.2310
     20  O2'       20.7990   92.5920   63.2580 O.3   179  GNP179     -0.2158
     21  C1'       21.6620   90.7220   61.9950 C.3   179  GNP179      0.2293
     22  N9        21.8520   89.6380   62.9990 N.pl3 179  GNP179     -0.2354
     23  C8        22.9940   89.2870   63.7220 C.3   179  GNP179      0.2246
     24  N7        22.8470   88.2910   64.5340 N.2   179  GNP179     -0.2322
     25  C5        21.4990   87.9190   64.3650 C.2   179  GNP179      0.2182
     26  C6        20.7090   86.8710   64.9900 C.1   179  GNP179      0.2372
     27  O6        21.0520   86.0410   65.8400 O.2   179  GNP179     -0.2069
     28  N1        19.3880   86.8520   64.5280 N.2   179  GNP179     -0.2485
     29  C2        18.8390   87.7090   63.5810 C.1   179  GNP179      0.2531
     30  N2        17.5400   87.5400   63.2610 N.pl3 179  GNP179     -0.0226
     31  N3        19.5680   88.6900   62.9890 N.2   179  GNP179     -0.3074
     32  C4        20.8820   88.7450   63.4190 C.2   179  GNP179      0.2300
@<TRIPOS>BOND
     1     2     1    2
     2     4     1    1
     3     1     5    1
     4     1     3    1
     5     5     6    1
     6    15    14    1
     7    15    16    1
     8    15    17    1
     9    14    13    1
    10    18    17    1
    11    16    21    1
    12     7     6    2
    13    17    19    1
    14     6     9    1
    15     6     8    1
    16     9    10    1
    17    21    19    1
    18    21    22    1
    19    13    10    1
    20    12    10    2
    21    10    11    1
    22    19    20    1
    23    31    32    2
    24    31    29    2
    25    22    32    1
    26    22    23    1
    27    30    29    1
    28    32    25    1
    29    29    28    2
    30    23    24    1
    31    25    24    2
    32    25    26    1
    33    28    26    2
    34    26    27    2
