@<TRIPOS>MOLECULE
1xts_GTP_A_1.pdb
 32 34 0 0 0
SMALL
GASTEIGER

@<TRIPOS>ATOM
      1  PG       -30.6680   92.1090  -59.9490 P.3   179  GTP179      0.5373
      2  O1G      -30.6750   92.7950  -58.6370 O.3   179  GTP179     -0.1143
      3  O2G      -31.4980   90.7300  -59.9330 O.3   179  GTP179     -0.1143
      4  O3G      -31.3230   93.0010  -61.1160 O.2   179  GTP179     -0.2221
      5  O3B      -29.1850   91.7280  -60.4430 O.3   179  GTP179     -0.2258
      6  PB       -28.9720   90.7880  -61.7330 P.3   179  GTP179      0.2277
      7  O1B      -29.3660   91.5510  -62.9390 O.2   179  GTP179     -0.5168
      8  O2B      -29.6550   89.5040  -61.4600 O.3   179  GTP179     -0.4368
      9  O3A      -27.3810   90.5330  -61.7530 O.3   179  GTP179     -0.2700
     10  PA       -26.3790   91.5740  -62.4650 P.3   179  GTP179      0.2189
     11  O1A      -26.6700   92.9330  -61.9540 O.3   179  GTP179     -0.4371
     12  O2A      -26.4540   91.3360  -63.9240 O.2   179  GTP179     -0.5170
     13  O5'      -24.9320   91.1080  -61.9370 O.3   179  GTP179     -0.3112
     14  C5'      -24.5650   91.2960  -60.5660 C.3   179  GTP179      0.1813
     15  C4'      -23.0530   91.1480  -60.3760 C.3   179  GTP179      0.1799
     16  O4'      -22.6500   89.8680  -60.8980 O.3   179  GTP179     -0.3326
     17  C3'      -22.3250   92.2050  -61.2100 C.3   179  GTP179      0.2158
     18  O3'      -21.0800   92.5500  -60.5950 O.3   179  GTP179     -0.2175
     19  C2'      -22.0840   91.4500  -62.5160 C.3   179  GTP179      0.2310
     20  O2'      -20.9760   92.0330  -63.2070 O.3   179  GTP179     -0.2158
     21  C1'      -21.6750   90.0970  -61.9300 C.3   179  GTP179      0.2293
     22  N9       -21.7270   89.0180  -62.9450 N.pl3 179  GTP179     -0.2354
     23  C8       -22.7920   88.6910  -63.6740 C.3   179  GTP179      0.2246
     24  N7       -22.5020   87.6620  -64.4660 N.2   179  GTP179     -0.2322
     25  C5       -21.2340   87.3300  -64.2430 C.2   179  GTP179      0.2182
     26  C6       -20.4010   86.3600  -64.7850 C.1   179  GTP179      0.2372
     27  O6       -20.8190   85.6000  -65.6590 O.2   179  GTP179     -0.2069
     28  N1       -19.0750   86.2810  -64.3400 N.2   179  GTP179     -0.2485
     29  C2       -18.6250   87.1790  -63.3640 C.1   179  GTP179      0.2531
     30  N2       -17.3630   87.1240  -62.9500 N.pl3 179  GTP179     -0.0226
     31  N3       -19.4620   88.1000  -62.8610 N.2   179  GTP179     -0.3074
     32  C4       -20.7360   88.1940  -63.2730 C.2   179  GTP179      0.2300
@<TRIPOS>BOND
     1    27    26    2
     2    26    28    2
     3    26    25    1
     4    24    25    2
     5    24    23    1
     6    28    29    2
     7    25    32    1
     8    12    10    2
     9    23    22    1
    10    29    30    1
    11    29    31    2
    12    32    22    1
    13    32    31    2
    14    20    19    1
    15    22    21    1
    16     7     6    2
    17    19    21    1
    18    19    17    1
    19    10    11    1
    20    10    13    1
    21    10     9    1
    22    13    14    1
    23    21    16    1
    24     9     6    1
    25     6     8    1
    26     6     5    1
    27    17    18    1
    28    17    15    1
    29     4     1    2
    30    16    15    1
    31    14    15    1
    32     5     1    1
    33     1     3    1
    34     1     2    1
