@<TRIPOS>MOLECULE
1xtt_U5P_A_1.pdb
 21 22 0 0 0
SMALL
GASTEIGER

@<TRIPOS>ATOM
      1  N1         4.0870   21.3680   29.4670 N.am  1250  U5P1250    -0.1766
      2  C2         3.5140   22.1620   28.4210 C.1   1250  U5P1250     0.2845
      3  N3         4.2750   23.2830   27.9860 N.2   1250  U5P1250    -0.2452
      4  C4         5.5250   23.6100   28.5460 C.1   1250  U5P1250     0.2182
      5  C5         6.0780   22.7980   29.6090 C.2   1250  U5P1250     0.1242
      6  C6         5.2990   21.6230   30.0770 C.2   1250  U5P1250     0.0929
      7  O2         2.3310   21.8780   27.8780 O.2   1250  U5P1250    -0.1918
      8  O4         6.1300   24.5870   28.1200 O.2   1250  U5P1250    -0.2085
      9  C1'        3.2670   20.1370   29.9460 C.3   1250  U5P1250     0.2401
     10  C2'        2.9590   19.0900   28.8490 C.3   1250  U5P1250     0.2319
     11  O2'        1.5910   19.0550   28.6500 O.3   1250  U5P1250    -0.2157
     12  C3'        3.6280   17.7540   29.3700 C.3   1250  U5P1250     0.2158
     13  C4'        4.2420   18.0950   30.6740 C.3   1250  U5P1250     0.1801
     14  O3'        2.5460   16.7840   29.5210 O.3   1250  U5P1250    -0.2175
     15  O4'        4.0080   19.4980   31.0020 O.3   1250  U5P1250    -0.3320
     16  C5'        5.7050   17.9840   30.7610 C.3   1250  U5P1250     0.1859
     17  O5'        6.4500   18.8320   31.5640 O.3   1250  U5P1250    -0.2675
     18  P          7.5710   18.1440   32.4040 P.3   1250  U5P1250     0.5327
     19  O1P        8.5270   17.6070   31.3530 O.2   1250  U5P1250    -0.2224
     20  O2P        8.1660   19.2260   33.2790 O.3   1250  U5P1250    -0.1145
     21  O3P        6.9630   17.0480   33.2470 O.3   1250  U5P1250    -0.1145
@<TRIPOS>BOND
     1     7     2    2
     2     3     2    2
     3     3     4    2
     4     8     4    2
     5     2     1   am
     6     4     5    1
     7    11    10    1
     8    10    12    1
     9    10     9    1
    10    12    14    1
    11    12    13    1
    12     1     9    1
    13     1     6    1
    14     5     6    2
    15     9    15    1
    16    13    16    1
    17    13    15    1
    18    16    17    1
    19    19    18    2
    20    17    18    1
    21    18    21    1
    22    18    20    1
