@<TRIPOS>MOLECULE
1xtu_U5P_A_1.pdb
 21 22 0 0 0
SMALL
GASTEIGER

@<TRIPOS>ATOM
      1  N1        -0.3400   24.4080    4.7610 N.am  1250  U5P1250    -0.1766
      2  C2         0.9950   23.9580    4.9730 C.1   1250  U5P1250     0.2845
      3  N3         1.3980   23.7700    6.3110 N.2   1250  U5P1250    -0.2452
      4  C4         0.5330   24.0160    7.3770 C.1   1250  U5P1250     0.2182
      5  C5        -0.8120   24.4770    7.1020 C.2   1250  U5P1250     0.1242
      6  C6        -1.1520   24.6410    5.7620 C.2   1250  U5P1250     0.0929
      7  O2         1.8440   23.7180    3.9710 O.2   1250  U5P1250    -0.1918
      8  O4         0.9380   23.8340    8.5260 O.2   1250  U5P1250    -0.2085
      9  C1'       -0.7770   24.6090    3.3040 C.3   1250  U5P1250     0.2401
     10  C2'       -1.4080   23.3630    2.6600 C.3   1250  U5P1250     0.2319
     11  O2'       -0.5520   22.8490    1.7160 O.3   1250  U5P1250    -0.2157
     12  C3'       -2.8260   23.8410    2.1340 C.3   1250  U5P1250     0.2158
     13  C4'       -2.9350   25.2780    2.5370 C.3   1250  U5P1250     0.1801
     14  O3'       -2.7630   23.7020    0.6630 O.3   1250  U5P1250    -0.2175
     15  O4'       -1.7060   25.7070    3.2470 O.3   1250  U5P1250    -0.3320
     16  C5'       -4.0270   25.7250    3.4260 C.3   1250  U5P1250     0.1859
     17  O5'       -4.8620   24.7200    4.0190 O.3   1250  U5P1250    -0.2675
     18  P         -6.0370   25.2290    4.9410 P.3   1250  U5P1250     0.5327
     19  O1P       -6.9000   26.1100    4.0580 O.2   1250  U5P1250    -0.2224
     20  O2P       -6.7700   23.9930    5.4280 O.3   1250  U5P1250    -0.1145
     21  O3P       -5.4250   25.9960    6.0910 O.3   1250  U5P1250    -0.1145
@<TRIPOS>BOND
     1    14    12    1
     2    11    10    1
     3    12    13    1
     4    12    10    1
     5    13    15    1
     6    13    16    1
     7    10     9    1
     8    15     9    1
     9     9     1    1
    10    16    17    1
    11     7     2    2
    12    17    18    1
    13    19    18    2
    14     1     2   am
    15     1     6    1
    16    18    20    1
    17    18    21    1
    18     2     3    2
    19     6     5    2
    20     3     4    2
    21     5     4    1
    22     4     8    2
