@<TRIPOS>MOLECULE
1xtu_CTP_A_1.pdb
 29 30 0 0 0
SMALL
GASTEIGER

@<TRIPOS>ATOM
      1  N1        10.9030   12.3490   -7.2200 N.am  1260  CTP1260    -0.1778
      2  C2        10.8550   13.7330   -7.0600 C.1   1260  CTP1260     0.2756
      3  N3        12.0800   14.4100   -7.2360 N.2   1260  CTP1260    -0.3024
      4  C4        13.2780   13.7140   -7.5540 C.2   1260  CTP1260     0.2346
      5  C5        13.3280   12.3570   -7.7110 C.2   1260  CTP1260     0.0687
      6  C6        12.0740   11.6380   -7.5330 C.2   1260  CTP1260     0.0836
      7  O2         9.8120   14.3960   -6.7730 O.2   1260  CTP1260    -0.1925
      8  N4        14.4340   14.5060   -7.7010 N.pl3 1260  CTP1260    -0.0921
      9  C1'        9.5240   11.5510   -7.0120 C.3   1260  CTP1260     0.2400
     10  C2'        8.7980   11.2530   -8.2910 C.3   1260  CTP1260     0.2319
     11  O2'        7.3820   11.2860   -8.0510 O.3   1260  CTP1260    -0.2157
     12  C3'        9.3440    9.9260   -8.6780 C.3   1260  CTP1260     0.2158
     13  C4'        9.3200    9.1850   -7.2620 C.3   1260  CTP1260     0.1799
     14  O4'        9.8430   10.2850   -6.3420 O.3   1260  CTP1260    -0.3320
     15  O3'        8.4300    9.1920   -9.4860 O.3   1260  CTP1260    -0.2175
     16  C5'       10.0700    7.7630   -7.3190 C.3   1260  CTP1260     0.1813
     17  O5'       11.2780    7.6400   -6.4600 O.3   1260  CTP1260    -0.3112
     18  PA        12.2520    6.0890   -6.5170 P.3   1260  CTP1260     0.2189
     19  O1A       13.6090    6.2970   -7.3470 O.2   1260  CTP1260    -0.5170
     20  O2A       12.2280    5.4820   -5.0280 O.3   1260  CTP1260    -0.4371
     21  O3A       11.1580    5.2010   -7.4910 O.3   1260  CTP1260    -0.2700
     22  PB        10.3240    3.9090   -6.8530 P.3   1260  CTP1260     0.2277
     23  O1B        9.2910    4.4680   -5.6150 O.3   1260  CTP1260    -0.4368
     24  O2B       11.2900    2.8870   -6.1470 O.2   1260  CTP1260    -0.5168
     25  O3B        9.4270    3.3150   -8.0260 O.3   1260  CTP1260    -0.2258
     26  PG         8.2100    4.4240   -8.4790 P.3   1260  CTP1260     0.5373
     27  O1G        8.8680    5.6930   -9.0980 O.3   1260  CTP1260    -0.1143
     28  O2G        7.2930    4.6930   -7.2220 O.3   1260  CTP1260    -0.1143
     29  O3G        7.2840    3.7340   -9.7300 O.2   1260  CTP1260    -0.2221
@<TRIPOS>BOND
     1    29    26    2
     2    15    12    1
     3    27    26    1
     4    12    10    1
     5    12    13    1
     6    26    25    1
     7    26    28    1
     8    10    11    1
     9    10     9    1
    10    25    22    1
    11     5     4    1
    12     5     6    2
    13     8     4    1
    14     4     3    2
    15     6     1    1
    16    21    22    1
    17    21    18    1
    18    19    18    2
    19    16    13    1
    20    16    17    1
    21    13    14    1
    22     3     2    2
    23     1     2   am
    24     1     9    1
    25     2     7    2
    26     9    14    1
    27    22    24    2
    28    22    23    1
    29    18    17    1
    30    18    20    1
