@<TRIPOS>MOLECULE
1xtv_U5P_A_1.pdb
 21 22 0 0 0
SMALL
GASTEIGER

@<TRIPOS>ATOM
      1  N1        74.5340   30.6260  113.1760 N.am  1250  U5P1250    -0.1766
      2  C2        75.6080   30.1700  112.3370 C.1   1250  U5P1250     0.2845
      3  N3        76.9240   30.3930  112.8190 N.2   1250  U5P1250    -0.2452
      4  C4        77.1810   31.0370  114.0490 C.1   1250  U5P1250     0.2182
      5  C5        76.0840   31.5100  114.8590 C.2   1250  U5P1250     0.1242
      6  C6        74.6990   31.2770  114.3760 C.2   1250  U5P1250     0.0929
      7  O2        75.4040   29.5620  111.1660 O.2   1250  U5P1250    -0.1918
      8  O4        78.3450   31.1880  114.4110 O.2   1250  U5P1250    -0.2085
      9  C1'       73.0810   30.3820  112.6790 C.3   1250  U5P1250     0.2401
     10  C2'       72.6640   28.9220  112.3510 C.3   1250  U5P1250     0.2319
     11  O2'       72.4570   28.8270  110.9700 O.3   1250  U5P1250    -0.2157
     12  C3'       71.4000   28.6380  113.2740 C.3   1250  U5P1250     0.2158
     13  C4'       71.1840   29.9020  114.0320 C.3   1250  U5P1250     0.1801
     14  O3'       70.2740   28.3380  112.3620 O.3   1250  U5P1250    -0.2175
     15  O4'       72.1810   30.9080  113.6600 O.3   1250  U5P1250    -0.3320
     16  C5'       71.2970   29.8900  115.5130 C.3   1250  U5P1250     0.1859
     17  O5'       71.6990   31.0540  116.1800 O.3   1250  U5P1250    -0.2675
     18  P         71.0110   31.4560  117.5420 P.3   1250  U5P1250     0.5327
     19  O1P       69.5290   31.5600  117.2120 O.2   1250  U5P1250    -0.2224
     20  O2P       71.3250   30.3460  118.5340 O.3   1250  U5P1250    -0.1145
     21  O3P       71.6100   32.7570  117.9840 O.3   1250  U5P1250    -0.1145
@<TRIPOS>BOND
     1    11    10    1
     2     7     2    2
     3     2     3    2
     4     2     1   am
     5    10     9    1
     6    10    12    1
     7    14    12    1
     8     9     1    1
     9     9    15    1
    10     3     4    2
    11     1     6    1
    12    12    13    1
    13    15    13    1
    14    13    16    1
    15     4     8    2
    16     4     5    1
    17     6     5    2
    18    16    17    1
    19    17    18    1
    20    19    18    2
    21    18    21    1
    22    18    20    1
