@<TRIPOS>MOLECULE
1xu4_ANP_A_1.pdb
 31 33 0 0 0
SMALL
GASTEIGER

@<TRIPOS>ATOM
      1  PG        27.9710   59.3710   -9.3980 P.3   401  ANP401      0.4884
      2  O1G       27.3140   58.9910   -8.1860 O.3   401  ANP401     -0.1240
      3  O2G       27.2080   60.4820  -10.0230 O.2   401  ANP401     -0.2331
      4  O3G       29.3010   59.8410   -9.0990 O.3   401  ANP401     -0.1240
      5  PB        28.3900   56.5650  -10.0790 P.3   401  ANP401      0.4669
      6  O1B       27.5730   56.1140   -8.9140 O.3   401  ANP401     -0.1253
      7  O2B       29.8080   56.4370   -9.7660 O.2   401  ANP401     -0.2351
      8  N3B       28.0470   58.0690  -10.4800 N.3   401  ANP401     -0.0163
      9  PA        26.7400   54.7470  -11.5280 P.3   401  ANP401      0.2220
     10  O1A       26.7420   53.5910  -10.5140 O.3   401  ANP401     -0.4370
     11  O2A       25.5480   55.5930  -11.3240 O.2   401  ANP401     -0.5170
     12  O3A       28.1050   55.6230  -11.3560 O.3   401  ANP401     -0.2360
     13  O5'       26.7380   54.1110  -13.0470 O.3   401  ANP401     -0.3111
     14  C5'       26.2190   54.8950  -14.2400 C.3   401  ANP401      0.1813
     15  C4'       26.4240   54.1780  -15.3450 C.3   401  ANP401      0.1821
     16  O4'       25.9280   52.7940  -15.1510 O.3   401  ANP401     -0.3135
     17  C3'       25.5140   54.6850  -16.4940 C.3   401  ANP401      0.2184
     18  O3'       25.7640   55.9630  -16.9450 O.3   401  ANP401     -0.2174
     19  C2'       25.3370   53.4280  -17.4010 C.3   401  ANP401      0.2570
     20  O2'       26.4700   53.4130  -18.4410 O.3   401  ANP401     -0.2130
     21  C1'       25.5640   52.2540  -16.4380 C.3   401  ANP401      0.3186
     22  N9        24.3560   51.6630  -16.3340 N.pl3 401  ANP401     -0.1439
     23  C8        23.3630   51.9240  -15.3660 C.3   401  ANP401      0.3377
     24  N7        22.3390   51.1810  -15.6020 N.2   401  ANP401     -0.2095
     25  C5        22.5820   50.4180  -16.6940 C.2   401  ANP401      0.2526
     26  C6        21.8440   49.4700  -17.3840 C.2   401  ANP401      0.4393
     27  N6        20.5910   49.1530  -16.9770 N.pl3 401  ANP401      0.2180
     28  N1        22.4150   48.8430  -18.5200 N.2   401  ANP401      0.0021
     29  C2        23.7350   49.1740  -18.9610 C.3   401  ANP401      0.5254
     30  N3        24.4840   50.1080  -18.3050 N.2   401  ANP401     -0.0055
     31  C4        23.8520   50.7080  -17.1610 C.2   401  ANP401      0.3518
@<TRIPOS>BOND
     1    29    28    1
     2    29    30    1
     3    28    26    2
     4    20    19    1
     5    30    31    2
     6    19    17    1
     7    19    21    1
     8    26    27    1
     9    26    25    1
    10    31    25    1
    11    31    22    1
    12    18    17    1
    13    25    24    2
    14    17    15    1
    15    21    22    1
    16    21    16    1
    17    22    23    1
    18    24    23    1
    19    15    16    1
    20    15    14    1
    21    14    13    1
    22    13     9    1
    23     9    12    1
    24     9    11    2
    25     9    10    1
    26    12     5    1
    27     8     5    1
    28     8     1    1
    29     5     7    2
    30     5     6    1
    31     3     1    2
    32     1     4    1
    33     1     2    1
