@<TRIPOS>MOLECULE
1xu7_NDP_A_1.pdb
 48 52 0 0 0
SMALL
GASTEIGER

@<TRIPOS>ATOM
      1  PA       -65.0440  -85.2440  -23.2950 P.3   522  NDP522      0.2189
      2  O1A      -66.2390  -84.6180  -23.7890 O.2   522  NDP522     -0.5170
      3  O2A      -65.1500  -86.2920  -22.2260 O.3   522  NDP522     -0.4371
      4  O5B      -64.3140  -85.8080  -24.5090 O.3   522  NDP522     -0.3112
      5  C5B      -63.0650  -86.6600  -24.3530 C.3   522  NDP522      0.1813
      6  C4B      -62.7760  -87.3510  -25.6640 C.3   522  NDP522      0.1820
      7  O4B      -61.4380  -88.0900  -25.6030 O.3   522  NDP522     -0.3136
      8  C3B      -63.8250  -88.3420  -25.9950 C.3   522  NDP522      0.2157
      9  O3B      -63.9990  -88.0590  -27.5340 O.3   522  NDP522     -0.2175
     10  C2B      -63.3310  -89.5570  -25.9660 C.3   522  NDP522      0.2314
     11  O2B      -63.9130  -90.5530  -26.9290 O.3   522  NDP522     -0.2630
     12  C1B      -61.7270  -89.4640  -25.9100 C.3   522  NDP522      0.3158
     13  N9A      -61.0890  -90.4610  -25.1840 N.pl3 522  NDP522     -0.1439
     14  C8A      -61.3800  -90.9380  -23.9560 C.3   522  NDP522      0.3377
     15  N7A      -60.4100  -91.9600  -23.7280 N.2   522  NDP522     -0.2095
     16  C5A      -59.7220  -91.9910  -24.7530 C.2   522  NDP522      0.2526
     17  C6A      -58.4630  -92.8820  -25.2160 C.2   522  NDP522      0.4393
     18  N6A      -58.0030  -93.7900  -24.4180 N.pl3 522  NDP522      0.2180
     19  N1A      -57.8810  -92.7070  -26.4410 N.2   522  NDP522      0.0021
     20  C2A      -58.3290  -91.7940  -27.2850 C.3   522  NDP522      0.5254
     21  N3A      -59.4960  -90.9390  -26.8950 N.2   522  NDP522     -0.0055
     22  C4A      -60.1280  -91.1280  -25.5630 C.2   522  NDP522      0.3518
     23  O3       -64.0290  -84.1900  -22.8000 O.3   522  NDP522     -0.2703
     24  PN       -64.2470  -82.5320  -22.7340 P.3   522  NDP522      0.2189
     25  O1N      -64.7030  -82.0370  -24.0160 O.2   522  NDP522     -0.5170
     26  O2N      -64.9390  -82.2170  -21.5090 O.3   522  NDP522     -0.4371
     27  O5D      -62.7050  -82.0750  -22.5290 O.3   522  NDP522     -0.3112
     28  C5D      -61.8510  -81.9720  -23.6400 C.3   522  NDP522      0.1813
     29  C4D      -60.4650  -81.3860  -23.1880 C.3   522  NDP522      0.1799
     30  O4D      -60.6470  -80.0860  -22.5690 O.3   522  NDP522     -0.3327
     31  C3D      -59.8480  -82.2400  -22.2090 C.3   522  NDP522      0.2158
     32  O3D      -58.3900  -82.2290  -22.6740 O.3   522  NDP522     -0.2175
     33  C2D      -59.7850  -81.5660  -20.9850 C.3   522  NDP522      0.2309
     34  O2D      -58.5840  -81.7440  -20.2880 O.3   522  NDP522     -0.2158
     35  C1D      -60.1260  -80.1670  -21.2510 C.3   522  NDP522      0.2263
     36  N1N      -60.8830  -79.5040  -20.2140 N.pl3 522  NDP522     -0.2787
     37  C2N      -62.3490  -79.5720  -20.1750 C.3   522  NDP522      0.1244
     38  C3N      -62.9810  -78.9420  -19.1710 C.2   522  NDP522      0.0544
     39  C7N      -64.4000  -78.9690  -19.0750 C.2   522  NDP522      0.2818
     40  O7N      -64.9200  -78.4070  -18.1390 O.2   522  NDP522     -0.2670
     41  N7N      -65.1060  -79.6310  -20.0120 N.am  522  NDP522     -0.0839
     42  C4N      -62.2070  -78.2100  -18.1580 C.2   522  NDP522      0.0033
     43  C5N      -60.8520  -78.1550  -18.2160 C.2   522  NDP522      0.0157
     44  C6N      -60.1790  -78.8060  -19.2480 C.2   522  NDP522      0.0633
     45  P2B      -63.8940  -92.1190  -26.5970 P.3   522  NDP522      0.5328
     46  O1X      -64.8290  -92.6900  -27.5930 O.2   522  NDP522     -0.2224
     47  O2X      -62.4920  -92.4950  -26.8200 O.3   522  NDP522     -0.1145
     48  O3X      -64.3380  -92.2580  -25.1780 O.3   522  NDP522     -0.1145
@<TRIPOS>BOND
     1    46    45    2
     2     9     8    1
     3    20    21    1
     4    20    19    1
     5    11    45    1
     6    11    10    1
     7    21    22    2
     8    47    45    1
     9    45    48    1
    10    19    17    2
    11     8    10    1
    12     8     6    1
    13    10    12    1
    14    12     7    1
    15    12    13    1
    16     6     7    1
    17     6     5    1
    18    22    13    1
    19    22    16    1
    20    17    16    1
    21    17    18    1
    22    13    14    1
    23    16    15    2
    24     4     5    1
    25     4     1    1
    26    25    24    2
    27    14    15    1
    28     2     1    2
    29    28    29    1
    30    28    27    1
    31     1    23    1
    32     1     3    1
    33    29    30    1
    34    29    31    1
    35    23    24    1
    36    24    27    1
    37    24    26    1
    38    32    31    1
    39    30    35    1
    40    31    33    1
    41    35    33    1
    42    35    36    1
    43    33    34    1
    44    36    37    1
    45    36    44    1
    46    37    38    1
    47    41    39   am
    48    44    43    2
    49    38    39    1
    50    38    42    2
    51    39    40    2
    52    43    42    1
