@<TRIPOS>MOLECULE
1xu9_NDP_A_1.pdb
 48 52 0 0 0
SMALL
GASTEIGER

@<TRIPOS>ATOM
      1  PA         8.8090   -4.7540   22.6760 P.3     1  NDP1        0.2189
      2  O1A       10.1060   -4.1370   23.1580 O.3     1  NDP1       -0.4371
      3  O2A        8.8690   -5.7510   21.5800 O.2     1  NDP1       -0.5170
      4  O5B        8.0100   -5.3480   23.9370 O.3     1  NDP1       -0.3112
      5  C5B        6.9130   -6.2390   23.7520 C.3     1  NDP1        0.1813
      6  C4B        6.4930   -6.7540   25.1200 C.3     1  NDP1        0.1820
      7  O4B        5.2920   -7.5350   24.9690 O.3     1  NDP1       -0.3136
      8  C3B        7.5880   -7.6670   25.6120 C.3     1  NDP1        0.2157
      9  O3B        7.5520   -7.5430   27.0470 O.3     1  NDP1       -0.2175
     10  C2B        7.0860   -9.0530   25.4070 C.3     1  NDP1        0.2314
     11  O2B        7.6600  -10.0460   26.2460 O.3     1  NDP1       -0.2630
     12  C1B        5.5790   -8.8770   25.3560 C.3     1  NDP1        0.3158
     13  N9A        4.8170   -9.9050   24.6730 N.pl3   1  NDP1       -0.1439
     14  C8A        5.0330  -10.3880   23.4290 C.3     1  NDP1        0.3377
     15  N7A        4.1320  -11.3600   23.1190 N.2     1  NDP1       -0.2095
     16  C5A        3.3320  -11.4980   24.1790 C.2     1  NDP1        0.2526
     17  C6A        2.2170  -12.3370   24.5680 C.2     1  NDP1        0.4393
     18  N6A        1.7460  -13.2510   23.6890 N.pl3   1  NDP1        0.2180
     19  N1A        1.6780  -12.1690   25.8050 N.2     1  NDP1        0.0021
     20  C2A        2.1300  -11.2620   26.6900 C.3     1  NDP1        0.5254
     21  N3A        3.1610  -10.4390   26.4280 N.2     1  NDP1       -0.0055
     22  C4A        3.7760  -10.5580   25.1540 C.2     1  NDP1        0.3518
     23  O3         7.7690   -3.6310   22.1730 O.3     1  NDP1       -0.2703
     24  PN         7.9890   -2.0360   22.1300 P.3     1  NDP1        0.2189
     25  O1N        8.4300   -1.5260   23.4610 O.3     1  NDP1       -0.4371
     26  O2N        8.7410   -1.6920   20.8890 O.2     1  NDP1       -0.5170
     27  O5D        6.4670   -1.5330   21.8860 O.3     1  NDP1       -0.3112
     28  C5D        5.6110   -1.3610   23.0200 C.3     1  NDP1        0.1813
     29  C4D        4.2980   -0.7480   22.5820 C.3     1  NDP1        0.1799
     30  O4D        4.5560    0.4870   21.8750 O.3     1  NDP1       -0.3327
     31  C3D        3.5480   -1.6490   21.6370 C.3     1  NDP1        0.2158
     32  O3D        2.1750   -1.4970   22.0100 O.3     1  NDP1       -0.2175
     33  C2D        3.5790   -0.9840   20.2900 C.3     1  NDP1        0.2309
     34  O2D        2.4750   -1.2290   19.4330 O.3     1  NDP1       -0.2158
     35  C1D        3.9740    0.4540   20.5930 C.3     1  NDP1        0.2263
     36  N1N        4.7140    1.0920   19.5290 N.pl3   1  NDP1       -0.2787
     37  C2N        6.0450    0.9980   19.5020 C.3     1  NDP1        0.1244
     38  C3N        6.7240    1.5990   18.4530 C.2     1  NDP1        0.0544
     39  C7N        8.2170    1.5400   18.3620 C.2     1  NDP1        0.2818
     40  O7N        8.7560    2.1050   17.4030 O.2     1  NDP1       -0.2670
     41  N7N        8.9160    0.8480   19.2660 N.am    1  NDP1       -0.0839
     42  C4N        6.0220    2.2700   17.4710 C.2     1  NDP1        0.0033
     43  C5N        4.6410    2.3450   17.5280 C.2     1  NDP1        0.0157
     44  C6N        4.0050    1.7480   18.6020 C.2     1  NDP1        0.0633
     45  P2B        7.5840  -11.6260   25.9520 P.3     1  NDP1        0.5328
     46  O1X        8.5400  -12.2000   26.9750 O.3     1  NDP1       -0.1145
     47  O2X        6.1620  -12.0490   26.1800 O.3     1  NDP1       -0.1145
     48  O3X        8.0730  -11.8350   24.5340 O.2     1  NDP1       -0.2224
@<TRIPOS>BOND
     1    40    39    2
     2    42    43    1
     3    42    38    2
     4    43    44    2
     5    39    38    1
     6    39    41   am
     7    38    37    1
     8    44    36    1
     9    34    33    1
    10    37    36    1
    11    36    35    1
    12    33    35    1
    13    33    31    1
    14    35    30    1
    15    26    24    2
    16     3     1    2
    17    31    32    1
    18    31    29    1
    19    30    29    1
    20    27    24    1
    21    27    28    1
    22    24    23    1
    23    24    25    1
    24    23     1    1
    25    29    28    1
    26     1     2    1
    27     1     4    1
    28    15    14    1
    29    15    16    2
    30    14    13    1
    31    18    17    1
    32     5     4    1
    33     5     6    1
    34    16    17    1
    35    16    22    1
    36    48    45    2
    37    17    19    2
    38    13    22    1
    39    13    12    1
    40     7     6    1
    41     7    12    1
    42     6     8    1
    43    22    21    2
    44    12    10    1
    45    10     8    1
    46    10    11    1
    47     8     9    1
    48    19    20    1
    49    45    47    1
    50    45    11    1
    51    45    46    1
    52    21    20    1
