@<TRIPOS>MOLECULE
1xua_HHA_A_1.pdb
 11 11 0 0 0
SMALL
GASTEIGER

@<TRIPOS>ATOM
      1  O1         7.9400   30.5540   23.9270 O.co2 1001  HHA1001    -0.2453
      2  C          7.4170   31.4710   23.2990 C.2   1001  HHA1001     0.3698
      3  O2         7.1170   32.5400   23.8270 O.co2 1001  HHA1001    -0.2453
      4  C1         7.2480   31.3810   21.7990 C.3   1001  HHA1001     0.1450
      5  C6         6.8600   32.5540   21.1000 C.2   1001  HHA1001    -0.0182
      6  C5         6.5350   32.4530   19.7560 C.2   1001  HHA1001    -0.0274
      7  C4         6.6260   31.2350   19.0900 C.3   1001  HHA1001     0.0601
      8  C3         7.4890   30.0800   19.6700 C.3   1001  HHA1001     0.1746
      9  O3'        7.1920   28.8350   19.0620 O.3   1001  HHA1001    -0.2212
     10  C2         7.2680   29.9840   21.1680 C.3   1001  HHA1001     0.1371
     11  N2         8.2270   29.0090   21.8110 N.3   1001  HHA1001    -0.1293
@<TRIPOS>BOND
     1     9     8    1
     2     7     8    1
     3     7     6    1
     4     8    10    1
     5     6     5    2
     6     5     4    1
     7    10     4    1
     8    10    11    1
     9     4     2    1
    10     2     3   ar
    11     2     1   ar
