@<TRIPOS>MOLECULE
1xuc_PB3_A_1.pdb
 28 30 0 0 0
SMALL
GASTEIGER

@<TRIPOS>ATOM
      1  C1       -11.6440   27.4240   44.9340 C.2   2001  PB32001     0.1168
      2  C2       -11.0940   27.9990   46.0710 C.3   2001  PB32001     0.1003
      3  C3        -9.7160   28.0400   46.1830 C.2   2001  PB32001     0.1168
      4  N6       -10.8160   26.8970   43.9190 N.2   2001  PB32001    -0.2436
      5  C7        -5.9120   27.9920   53.6390 C.3   2001  PB32001     0.0310
      6  C8       -18.2710   22.2390   44.1490 C.3   2001  PB32001     0.0310
      7  C9        -9.1310   28.6250   47.3770 C.2   2001  PB32001     0.2787
      8  C11       -7.0140   28.8070   48.7260 C.3   2001  PB32001     0.1418
      9  C12       -7.1980   27.9930   50.0040 C.ar  2001  PB32001    -0.0009
     10  C15      -13.1020   27.3630   44.8160 C.2   2001  PB32001     0.2787
     11  C21      -16.6420   24.2110   43.9590 C.ar  2001  PB32001    -0.0068
     12  C24      -15.7220   23.6980   46.6590 C.ar  2001  PB32001    -0.0006
     13  C30       -8.0850   26.8410   50.0560 C.ar  2001  PB32001    -0.0026
     14  C31       -8.2640   26.0830   51.2480 C.ar  2001  PB32001    -0.0006
     15  C32       -7.5510   26.4620   52.4200 C.ar  2001  PB32001    -0.0043
     16  C34       -6.4910   28.3600   51.1880 C.ar  2001  PB32001    -0.0068
     17  N4        -8.8800   27.5130   45.1690 N.2   2001  PB32001    -0.2436
     18  C5        -9.4260   26.9340   44.0180 C.3   2001  PB32001     0.2504
     19  N10       -7.7950   28.3330   47.5470 N.am  2001  PB32001    -0.1958
     20  N16      -13.5970   26.4180   43.9180 N.am  2001  PB32001    -0.1958
     21  C17      -15.0460   26.1940   43.6840 C.3   2001  PB32001     0.1418
     22  C18      -15.6270   25.0460   44.5180 C.ar  2001  PB32001    -0.0009
     23  C4       -17.1850   23.1330   44.7490 C.ar  2001  PB32001    -0.0221
     24  C23      -16.7340   22.8730   46.0870 C.ar  2001  PB32001    -0.0043
     25  C25      -15.1780   24.7720   45.8770 C.ar  2001  PB32001    -0.0026
     26  C6        -6.6750   27.5910   52.3780 C.ar  2001  PB32001    -0.0221
     27  O41      -13.9190   28.0490   45.4520 O.2   2001  PB32001    -0.2671
     28  O42       -9.7050   29.3010   48.2330 O.2   2001  PB32001    -0.2671
@<TRIPOS>BOND
     1    21    20    1
     2    21    22    1
     3    20    10   am
     4     4    18    1
     5     4     1    2
     6    11    22   ar
     7    11    23   ar
     8    18    17    1
     9     6    23    1
    10    22    25   ar
    11    23    24   ar
    12    10     1    1
    13    10    27    2
    14     1     2    1
    15    17     3    2
    16    25    12   ar
    17     2     3    1
    18    24    12   ar
    19     3     7    1
    20     7    19   am
    21     7    28    2
    22    19     8    1
    23     8     9    1
    24     9    13   ar
    25     9    16   ar
    26    13    14   ar
    27    16    26   ar
    28    14    15   ar
    29    26    15   ar
    30    26     5    1
