@<TRIPOS>MOLECULE
1xud_PB4_A_1.pdb
 30 32 0 0 0
SMALL
GASTEIGER

@<TRIPOS>ATOM
      1  C1       -11.6020   27.3320   44.8470 C.2   2001  PB42001     0.1168
      2  C2       -11.0420   27.9400   45.9640 C.3   2001  PB42001     0.1003
      3  C3        -9.6600   27.9910   46.0580 C.2   2001  PB42001     0.1168
      4  C7        -5.8050   27.9660   53.4540 C.3   2001  PB42001     0.0334
      5  C8       -18.2930   22.1760   44.2470 C.3   2001  PB42001     0.0334
      6  C9        -9.0580   28.6100   47.2290 C.2   2001  PB42001     0.2787
      7  C10       -6.9290   28.8230   48.5460 C.3   2001  PB42001     0.1418
      8  C11       -7.0870   28.0030   49.8160 C.ar  2001  PB42001    -0.0007
      9  C12      -13.0640   27.2600   44.7390 C.2   2001  PB42001     0.2787
     10  C13      -15.0110   26.0620   43.6260 C.3   2001  PB42001     0.1418
     11  C14      -15.6040   24.9540   44.5050 C.ar  2001  PB42001    -0.0007
     12  C15      -16.6340   24.1120   43.9820 C.ar  2001  PB42001    -0.0046
     13  C16      -16.7340   22.8610   46.1670 C.ar  2001  PB42001     0.1361
     14  C19       -7.9500   26.8380   49.8460 C.ar  2001  PB42001    -0.0003
     15  C20       -8.1200   26.0570   51.0140 C.ar  2001  PB42001     0.0290
     16  C21       -7.4200   26.4240   52.1900 C.ar  2001  PB42001     0.1361
     17  C22       -6.3860   28.3680   51.0050 C.ar  2001  PB42001    -0.0046
     18  N1        -8.8310   27.4410   45.0490 N.2   2001  PB42001    -0.2436
     19  C5        -9.3880   26.8280   43.9210 C.3   2001  PB42001     0.2504
     20  N2       -10.7790   26.7810   43.8380 N.2   2001  PB42001    -0.2436
     21  N3        -7.7200   28.3150   47.3890 N.am  2001  PB42001    -0.1958
     22  N4       -13.5610   26.2960   43.8550 N.am  2001  PB42001    -0.1958
     23  C6       -17.1890   23.0740   44.8160 C.ar  2001  PB42001     0.0053
     24  C17      -15.7070   23.6950   46.6970 C.ar  2001  PB42001     0.0290
     25  C18      -15.1530   24.7270   45.8700 C.ar  2001  PB42001    -0.0003
     26  C4        -6.5590   27.5750   52.1790 C.ar  2001  PB42001     0.0053
     27  O1       -13.8830   27.9540   45.3680 O.2   2001  PB42001    -0.2671
     28  O2        -9.6150   29.3170   48.0770 O.2   2001  PB42001    -0.2671
     29  F1        -7.5890   25.5950   53.4450 F     2001  PB42001    -0.2045
     30  F2       -17.2980   21.8280   46.9770 F     2001  PB42001    -0.2045
@<TRIPOS>BOND
     1    10    22    1
     2    10    11    1
     3    20    19    1
     4    20     1    2
     5    22     9   am
     6    19    18    1
     7    12    11   ar
     8    12    23   ar
     9     5    23    1
    10    11    25   ar
    11     9     1    1
    12     9    27    2
    13    23    13   ar
    14     1     2    1
    15    18     3    2
    16    25    24   ar
    17     2     3    1
    18     3     6    1
    19    13    24   ar
    20    13    30    1
    21     6    21   am
    22     6    28    2
    23    21     7    1
    24     7     8    1
    25     8    14   ar
    26     8    17   ar
    27    14    15   ar
    28    17    26   ar
    29    15    16   ar
    30    26    16   ar
    31    26     4    1
    32    16    29    1
