@<TRIPOS>MOLECULE
1xuf_BAZ_A_1.pdb
 36 40 0 0 0
SMALL
GASTEIGER

@<TRIPOS>ATOM
      1  C1        29.1520   14.9200   17.0430 C.ar  246  BAZ246      0.0000
      2  C2        28.6040   15.5930   18.1850 C.ar  246  BAZ246      0.0000
      3  C3        28.1630   14.9010   19.3400 C.ar  246  BAZ246      0.0000
      4  C4        28.2960   13.5180   19.2920 C.ar  246  BAZ246      0.0000
      5  C5        28.8080   12.8440   18.2450 C.ar  246  BAZ246      0.0000
      6  C6        29.2460   13.5100   17.1150 C.ar  246  BAZ246      0.0000
      7  C7        29.4660   15.6100   15.8610 C.2   246  BAZ246      0.0000
      8  N1        30.1470   14.9800   14.8990 N.2   246  BAZ246      0.5000
      9  N2        29.0770   16.8750   15.6890 N.pl3 246  BAZ246      0.5000
     10  N3        27.9610   12.6390   20.2090 N.pl3 246  BAZ246      0.0000
     11  N4        28.8110   11.5470   18.5160 N.pl3 246  BAZ246      0.0000
     12  C8        28.2790   11.4410   19.7240 C.3   246  BAZ246      0.0000
     13  C1'       29.9420   10.1460   26.1730 C.ar  246  BAZ246      0.0000
     14  C2'       29.3580   11.4490   26.1700 C.ar  246  BAZ246      0.0000
     15  C3'       28.7100   11.9900   25.0310 C.ar  246  BAZ246      0.0000
     16  C4'       28.6620   11.1830   23.8970 C.ar  246  BAZ246      0.0000
     17  C5'       29.1980    9.9470   23.8570 C.ar  246  BAZ246      0.0000
     18  C6'       29.8450    9.3980   24.9650 C.ar  246  BAZ246      0.0000
     19  C7'       30.6930    9.7140   27.2860 C.2   246  BAZ246      0.0000
     20  N1'       30.9900    8.4260   27.5040 N.2   246  BAZ246      0.5000
     21  N2'       31.1570   10.6090   28.1530 N.pl3 246  BAZ246      0.5000
     22  N3'       28.1110   11.4640   22.7240 N.pl3 246  BAZ246      0.0000
     23  N4'       28.9800    9.4390   22.6490 N.pl3 246  BAZ246      0.0000
     24  C8'       28.3330   10.3770   21.9710 C.3   246  BAZ246      0.0000
     25  C9        27.9980   10.2410   20.5260 C.3   246  BAZ246      0.0000
     26 ZN         27.0420   13.0230   22.2730 Zn    246  BAZ246      0.0000
     27  HN1       30.4050   15.4050   14.0330 H     246  BAZ246      0.0000
     28 HN21       29.3040   17.4280   14.8920 H     246  BAZ246      0.0000
     29 HN22       28.5150   17.3260   16.3990 H     246  BAZ246      0.0000
     30  HN4       29.3560   10.8690   18.0420 H     246  BAZ246      0.0000
     31  H1'       31.5300    8.1440   28.3120 H     246  BAZ246      0.0000
     32 H2'1       31.7270   10.3860   28.9370 H     246  BAZ246      0.0000
     33 H2'2       31.0450   11.5870   27.9320 H     246  BAZ246      0.0000
     34 HN4'       29.2150    8.5360   22.3120 H     246  BAZ246      0.0000
     35 HN12       30.4600   14.0250   15.0280 H     246  BAZ246      0.0000
     36 H12'       30.6930    7.7240   26.8620 H     246  BAZ246      0.0000
@<TRIPOS>BOND
     1    27     8    1
     2    28     9    1
     3     8    35    1
     4     8     7    2
     5     9     7    1
     6     9    29    1
     7     7     1    1
     8     1     6   ar
     9     1     2   ar
    10     6     5   ar
    11    30    11    1
    12     2     3   ar
    13     5    11    1
    14     5     4   ar
    15    11    12    1
    16     4     3   ar
    17     4    10    1
    18    12    10    1
    19    12    25    1
    20    10    26    1
    21    25    24    1
    22    24    23    1
    23    24    22    1
    24    26    22    1
    25    34    23    1
    26    23    17    1
    27    22    16    1
    28    17    16   ar
    29    17    18   ar
    30    16    15   ar
    31    18    13   ar
    32    15    14   ar
    33    14    13   ar
    34    13    19    1
    35    36    20    1
    36    19    20    2
    37    19    21    1
    38    20    31    1
    39    33    21    1
    40    21    32    1
