@<TRIPOS>MOLECULE
1xug_BAB_A_1.pdb
 43 46 0 0 0
SMALL
GASTEIGER

@<TRIPOS>ATOM
      1  C1        43.7570   -2.8580   26.3910 C.3   246  BAB246      0.1307
      2  C2        44.3310   -1.5610   26.6120 C.2   246  BAB246     -0.0581
      3  C3        44.1330   -0.8570   27.8130 C.2   246  BAB246     -0.0250
      4  C4        43.3590   -1.4860   28.7510 C.2   246  BAB246      0.1364
      5  C5        42.8040   -2.6870   28.5920 C.2   246  BAB246      0.0682
      6  C6        42.9680   -3.4190   27.4350 C.2   246  BAB246     -0.0368
      7  C7        43.9630   -3.5390   25.1890 C.2   246  BAB246      0.2498
      8  C8        42.2820   -1.9390   30.5240 C.2   246  BAB246      0.1598
      9  C9        41.6830   -1.7130   32.0090 C.3   246  BAB246      0.0825
     10  N1        43.7140   -4.8230   25.1280 N.pl3 246  BAB246     -0.2528
     11  N2        44.3900   -2.8790   24.1360 N.2   246  BAB246     -0.2916
     12  N3        43.0250   -1.0630   29.9250 N.2   246  BAB246     -0.3910
     13  N4        42.1410   -2.9560   29.6960 N.pl3 246  BAB246     -0.2904
     14  C1'       45.1710    0.3350   36.5420 C.3   246  BAB246      0.1307
     15  C2'       45.5520    1.2280   35.4880 C.2   246  BAB246     -0.0581
     16  C3'       44.9990    1.1550   34.2020 C.2   246  BAB246     -0.0250
     17  C4'       44.0590    0.1710   33.9990 C.2   246  BAB246      0.1364
     18  C5'       43.6580   -0.6980   34.9500 C.2   246  BAB246      0.0682
     19  C6'       44.1830   -0.6590   36.2420 C.2   246  BAB246     -0.0368
     20  C7'       45.7780    0.4500   37.8100 C.2   246  BAB246      0.2498
     21  C8'       42.6280   -1.1080   33.1340 C.2   246  BAB246      0.1598
     22  N1'       45.1760    0.0310   38.9020 N.pl3 246  BAB246     -0.2528
     23  N2'       46.9800    0.9820   37.8570 N.2   246  BAB246     -0.2916
     24  N3'       43.4170   -0.1020   32.9100 N.2   246  BAB246     -0.3910
     25  N4'       42.7630   -1.4900   34.3900 N.pl3 246  BAB246     -0.2904
     26  H2        44.9380   -1.1050   25.8470 H     246  BAB246      0.0588
     27  H3        44.5590    0.1190   27.9880 H     246  BAB246      0.0647
     28  H6        42.5090   -4.3880   27.3240 H     246  BAB246      0.0606
     29  H91       41.3140   -2.6620   32.3720 H     246  BAB246      0.0440
     30  H92       40.8380   -1.0470   31.9230 H     246  BAB246      0.0440
     31 HN21       44.5270   -1.8840   24.2010 H     246  BAB246      0.3006
     32 HN22       44.6020   -3.3140   23.2670 H     246  BAB246      0.3006
     33  HN4       41.6170   -3.7770   29.8470 H     246  BAB246      0.1543
     34  H2'       46.2900    1.9910   35.6830 H     246  BAB246      0.0588
     35  H3'       45.2950    1.8360   33.4190 H     246  BAB246      0.0647
     36  H6'       43.8530   -1.3560   36.9960 H     246  BAB246      0.0606
     37 H2'1       47.4160    1.2450   36.9850 H     246  BAB246      0.3006
     38 H2'2       47.5000    1.0810   38.7010 H     246  BAB246      0.3006
     39 HN4'       42.2840   -2.2210   34.8330 H     246  BAB246      0.1543
     40  HN1       44.2460   -0.3420   38.8340 H     246  BAB246      0.2880
     41  HN2       45.5700    0.0840   39.8230 H     246  BAB246      0.2880
     42  HN5       43.4310   -5.2910   25.9790 H     246  BAB246      0.2880
     43  HN6       43.8370   -5.3970   24.3260 H     246  BAB246      0.2880
@<TRIPOS>BOND
     1    32    11    1
     2    11    31    1
     3    11     7    2
     4    43    10    1
     5    10     7    1
     6    10    42    1
     7     7     1    1
     8    26     2    1
     9     1     2    1
    10     1     6    1
    11     2     3    2
    12    28     6    1
    13     6     5    2
    14     3    27    1
    15     3     4    1
    16     5     4    1
    17     5    13    1
    18     4    12    2
    19    13    33    1
    20    13     8    1
    21    12     8    2
    22     8     9    1
    23    30     9    1
    24     9    29    1
    25     9    21    1
    26    24    21    2
    27    24    17    2
    28    21    25    1
    29    35    16    1
    30    17    16    1
    31    17    18    1
    32    16    15    2
    33    25    39    1
    34    25    18    1
    35    18    19    2
    36    15    34    1
    37    15    14    1
    38    19    14    1
    39    19    36    1
    40    14    20    1
    41    37    23    1
    42    20    23    2
    43    20    22    1
    44    23    38    1
    45    40    22    1
    46    22    41    1
