@<TRIPOS>MOLECULE
1xuh_BAO_A_1.pdb
 36 39 0 0 0
SMALL
GASTEIGER

@<TRIPOS>ATOM
      1  C1        45.5050   19.6130   52.9510 C.3   369  BAO369      0.1460
      2  C2        44.9090   19.1900   51.7320 C.2   369  BAO369     -0.0075
      3  C3        44.4860   20.0970   50.7320 C.2   369  BAO369      0.0297
      4  C4        44.6730   21.4520   50.9860 C.2   369  BAO369      0.1459
      5  C5        45.2340   21.9160   52.1320 C.2   369  BAO369      0.0768
      6  C6        45.6550   21.0210   53.1180 C.2   369  BAO369      0.0071
      7  C7        45.7680   18.7050   54.0010 C.2   369  BAO369      0.2510
      8  N1        46.6030   19.0400   54.9590 N.pl3 369  BAO369     -0.2528
      9  N2        45.2010   17.4900   54.1070 N.2   369  BAO369     -0.2915
     10  N3        44.3480   22.4700   50.1830 N.2   369  BAO369     -0.3822
     11  N4        45.2860   23.2520   52.0880 N.pl3 369  BAO369     -0.2836
     12  C8        44.7340   23.5190   50.8950 C.2   369  BAO369      0.2270
     13  C1'       43.5780   27.2460   45.1180 C.3   369  BAO369      0.1460
     14  C2'       43.0980   25.9350   44.8530 C.2   369  BAO369     -0.0075
     15  C3'       43.1240   24.9230   45.8450 C.2   369  BAO369      0.0297
     16  C4'       43.6380   25.2420   47.1100 C.2   369  BAO369      0.1459
     17  C5'       44.1080   26.4820   47.4040 C.2   369  BAO369      0.0768
     18  C6'       44.0890   27.4940   46.4320 C.2   369  BAO369      0.0071
     19  C7'       43.4350   28.2890   44.1640 C.2   369  BAO369      0.2510
     20  N1'       44.1900   29.3920   44.2970 N.pl3 369  BAO369     -0.2528
     21  N2'       42.5670   28.2470   43.1270 N.2   369  BAO369     -0.2915
     22  N3'       43.7470   24.4390   48.1790 N.2   369  BAO369     -0.3822
     23  N4'       44.5330   26.4890   48.6740 N.pl3 369  BAO369     -0.2836
     24  C8'       44.2840   25.2480   49.0840 C.2   369  BAO369      0.2270
     25  C9        44.5460   24.8560   50.4320 C.2   369  BAO369      0.2826
     26  O9        44.4370   25.7410   51.3000 O.2   369  BAO369     -0.2782
     27  HN1       46.7050   18.5120   55.8080 H     369  BAO369      0.2880
     28 HN21       45.3650   16.9110   54.9070 H     369  BAO369      0.3006
     29 HN22       44.4820   17.2260   53.4510 H     369  BAO369      0.3006
     30  HN4       45.9100   23.8670   52.5490 H     369  BAO369      0.1547
     31  H1'       44.1270   30.1860   43.6340 H     369  BAO369      0.2880
     32 H2'1       42.5220   29.0950   42.5570 H     369  BAO369      0.3006
     33 H2'2       41.9200   27.5020   42.9630 H     369  BAO369      0.3006
     34 HN4'       45.1530   27.0850   49.1500 H     369  BAO369      0.1547
     35 H12'       44.8920   29.5330   44.9830 H     369  BAO369      0.2880
     36 HN12       47.0250   19.9510   54.9410 H     369  BAO369      0.2880
@<TRIPOS>BOND
     1    32    21    1
     2    33    21    1
     3    21    19    2
     4    31    20    1
     5    19    20    1
     6    19    13    1
     7    20    35    1
     8    14    13    1
     9    14    15    2
    10    13    18    1
    11    15    16    1
    12    18    17    2
    13    16    17    1
    14    16    22    2
    15    17    23    1
    16    22    24    2
    17    23    24    1
    18    23    34    1
    19    24    25    1
    20    10    12    2
    21    10     4    2
    22    25    12    1
    23    25    26    2
    24     3     4    1
    25     3     2    2
    26    12    11    1
    27     4     5    1
    28     2     1    1
    29    11     5    1
    30    11    30    1
    31     5     6    2
    32     1     6    1
    33     1     7    1
    34    29     9    1
    35     7     9    2
    36     7     8    1
    37     9    28    1
    38    36     8    1
    39     8    27    1
