@<TRIPOS>MOLECULE
1xui_BAO_A_1.pdb
 36 39 0 0 0
SMALL
GASTEIGER

@<TRIPOS>ATOM
      1  C1        45.6060   19.5310   52.7920 C.2   246  BAO246      0.0622
      2  C2        45.1180   19.0900   51.5220 C.3   246  BAO246      0.0611
      3  C3        44.7340   19.9900   50.5030 C.2   246  BAO246     -0.0039
      4  C4        44.8630   21.3610   50.7830 C.2   246  BAO246      0.0762
      5  C5        45.3290   21.8500   51.9950 C.2   246  BAO246      0.1461
      6  C6        45.7080   20.9420   53.0050 C.2   246  BAO246      0.0366
      7  C7        45.9130   18.5990   53.7930 C.2   246  BAO246      0.2637
      8  N1        46.6640   18.9190   54.8210 N.pl3 246  BAO246     -0.2499
      9  N2        45.4250   17.3680   53.7430 N.2   246  BAO246     -0.2887
     10  N3        44.5750   22.3760   49.9490 N.pl3 246  BAO246     -0.2836
     11  N4        45.2890   23.2060   52.0390 N.2   246  BAO246     -0.3822
     12  C8        44.8190   23.4290   50.7670 C.2   246  BAO246      0.2270
     13  C1'       43.4130   27.1750   45.1720 C.3   246  BAO246      0.1460
     14  C2'       43.2370   25.8210   44.7830 C.2   246  BAO246     -0.0075
     15  C3'       43.4070   24.7420   45.6910 C.2   246  BAO246      0.0297
     16  C4'       43.7250   25.0430   47.0160 C.2   246  BAO246      0.1459
     17  C5'       43.8920   26.3400   47.4130 C.2   246  BAO246      0.0768
     18  C6'       43.7330   27.4110   46.5260 C.2   246  BAO246      0.0071
     19  C7'       43.2680   28.2060   44.2330 C.2   246  BAO246      0.2510
     20  N1'       43.9490   29.3640   44.3850 N.pl3 246  BAO246     -0.2528
     21  N2'       42.4530   28.0390   43.1780 N.2   246  BAO246     -0.2915
     22  N3'       43.9150   24.1620   48.0180 N.2   246  BAO246     -0.3822
     23  N4'       44.1970   26.3720   48.7050 N.pl3 246  BAO246     -0.2836
     24  C8'       44.1990   25.0590   48.9900 C.2   246  BAO246      0.2270
     25  C9        44.6480   24.7660   50.3120 C.2   246  BAO246      0.2826
     26  O9        44.5210   25.6670   51.1600 O.2   246  BAO246     -0.2782
     27  HN1       46.7870   18.3510   55.6390 H     246  BAO246      0.2883
     28 HN21       45.6390   16.6770   54.4270 H     246  BAO246      0.3009
     29 HN22       44.8230   17.0920   52.9790 H     246  BAO246      0.3009
     30  H1'       43.9570   30.1030   43.7060 H     246  BAO246      0.2880
     31 H2'1       42.3300   28.7140   42.4460 H     246  BAO246      0.3006
     32 H2'2       41.9630   27.1650   43.0700 H     246  BAO246      0.3006
     33 HN4'       44.2770   27.0640   49.3920 H     246  BAO246      0.1547
     34 H12'       44.6090   29.4690   45.1340 H     246  BAO246      0.2880
     35 HN12       47.0410   19.8480   54.8520 H     246  BAO246      0.2883
     36  HN3       44.2700   22.3710   49.0220 H     246  BAO246      0.1547
@<TRIPOS>BOND
     1    31    21    1
     2    32    21    1
     3    21    19    2
     4    30    20    1
     5    19    20    1
     6    19    13    1
     7    20    34    1
     8    14    13    1
     9    14    15    2
    10    13    18    1
    11    15    16    1
    12    18    17    2
    13    16    17    1
    14    16    22    2
    15    17    23    1
    16    22    24    2
    17    23    24    1
    18    23    33    1
    19    24    25    1
    20    36    10    1
    21    10    12    1
    22    10     4    1
    23    25    12    1
    24    25    26    2
    25     3     4    2
    26     3     2    1
    27    12    11    2
    28     4     5    1
    29     2     1    1
    30     5    11    2
    31     5     6    1
    32     1     6    2
    33     1     7    1
    34    29     9    1
    35     9     7    2
    36     9    28    1
    37     7     8    1
    38     8    35    1
    39     8    27    1
