@<TRIPOS>MOLECULE
1xuj_BOZ_A_1.pdb
 37 41 0 0 0
SMALL
GASTEIGER

@<TRIPOS>ATOM
      1  C1        45.3380   19.6670   52.8740 C.ar  246  BOZ246      0.0000
      2  C2        44.7870   19.2300   51.6160 C.ar  246  BOZ246      0.0000
      3  C3        44.3390   20.1230   50.6030 C.ar  246  BOZ246      0.0000
      4  C4        44.4500   21.5030   50.8980 C.ar  246  BOZ246      0.0000
      5  C5        44.9660   21.9620   52.0890 C.ar  246  BOZ246      0.0000
      6  C6        45.4160   21.0760   53.0810 C.ar  246  BOZ246      0.0000
      7  C7        45.6970   18.7490   53.8970 C.2   246  BOZ246      0.0000
      8  N1        46.5160   19.0960   54.8910 N.pl3 246  BOZ246      0.5000
      9  N2        45.2060   17.5120   53.9210 N.2   246  BOZ246      0.5000
     10  N3        44.1020   22.5370   50.1220 N.pl3 246  BOZ246      0.0000
     11  N4        44.9630   23.2970   52.0850 N.pl3 246  BOZ246      0.0000
     12  C8        44.4270   23.5720   50.8790 C.3   246  BOZ246      0.0000
     13  C1'       43.3760   27.4380   45.1440 C.ar  246  BOZ246      0.0000
     14  C2'       43.1660   26.0720   44.7990 C.ar  246  BOZ246      0.0000
     15  C3'       43.2670   25.0270   45.7520 C.ar  246  BOZ246      0.0000
     16  C4'       43.5910   25.3610   47.0580 C.ar  246  BOZ246      0.0000
     17  C5'       43.8050   26.6460   47.4400 C.ar  246  BOZ246      0.0000
     18  C6'       43.6960   27.6940   46.5110 C.ar  246  BOZ246      0.0000
     19  C7'       43.3450   28.4600   44.1480 C.2   246  BOZ246      0.0000
     20  N1'       44.0620   29.5920   44.2450 N.pl3 246  BOZ246      0.5000
     21  N2'       42.6020   28.3710   43.0360 N.2   246  BOZ246      0.5000
     22  N3'       43.7320   24.5320   48.1020 N.pl3 246  BOZ246      0.0000
     23  N4'       44.0930   26.6420   48.7450 N.pl3 246  BOZ246      0.0000
     24  C8'       44.0260   25.3560   49.0950 C.3   246  BOZ246      0.0000
     25  C9        44.2430   24.9240   50.4460 C.2   246  BOZ246      0.0000
     26  O9        44.4260   25.8020   51.3110 O.2   246  BOZ246      0.0000
     27 ZN         43.3140   22.6730   48.2630 Zn    246  BOZ246      0.0000
     28 HN11       46.6630   18.5640   55.7240 H     246  BOZ246      0.0000
     29 HN12       46.8820   20.0380   54.9070 H     246  BOZ246      0.0000
     30 HN21       45.3800   16.9200   54.7080 H     246  BOZ246      0.0000
     31 HN22       44.4490   17.2750   53.2970 H     246  BOZ246      0.0000
     32  HN4       45.6420   23.8760   52.5060 H     246  BOZ246      0.0000
     33 H1'1       44.0020   30.3320   43.5110 H     246  BOZ246      0.0000
     34 H1'2       44.7280   29.7750   44.9550 H     246  BOZ246      0.0000
     35 H2'1       42.5990   29.1880   42.4190 H     246  BOZ246      0.0000
     36 H2'2       41.9900   27.6070   42.8450 H     246  BOZ246      0.0000
     37 HN4'       44.4120   27.3500   49.3400 H     246  BOZ246      0.0000
@<TRIPOS>BOND
     1    35    21    1
     2    36    21    1
     3    21    19    2
     4    33    20    1
     5    19    20    1
     6    19    13    1
     7    20    34    1
     8    14    13   ar
     9    14    15   ar
    10    13    18   ar
    11    15    16   ar
    12    18    17   ar
    13    16    17   ar
    14    16    22    1
    15    17    23    1
    16    22    27    1
    17    22    24    1
    18    27    10    1
    19    23    24    1
    20    23    37    1
    21    24    25    1
    22    10    12    1
    23    10     4    1
    24    25    12    1
    25    25    26    2
    26     3     4   ar
    27     3     2   ar
    28    12    11    1
    29     4     5   ar
    30     2     1   ar
    31    11     5    1
    32    11    32    1
    33     5     6   ar
    34     1     6   ar
    35     1     7    1
    36    31     9    1
    37     7     9    2
    38     7     8    1
    39     9    30    1
    40     8    29    1
    41     8    28    1
