@<TRIPOS>MOLECULE
1xuk_BAB_A_1.pdb
 37 40 0 0 0
SMALL
GASTEIGER

@<TRIPOS>ATOM
      1  C1        29.3090   14.8990   16.6820 C.ar  246  BAB246      0.0787
      2  C2        28.8400   15.4370   17.9160 C.ar  246  BAB246      0.0086
      3  C3        28.4890   14.6060   19.0080 C.ar  246  BAB246      0.0158
      4  C4        28.6380   13.2380   18.7810 C.ar  246  BAB246      0.0590
      5  C5        29.0850   12.7120   17.6130 C.ar  246  BAB246      0.0593
      6  C6        29.4230   13.5070   16.5570 C.ar  246  BAB246      0.0228
      7  C7        29.5620   15.6680   15.5650 C.2   246  BAB246      0.2674
      8  C8        28.6680   11.1140   18.8980 C.3   246  BAB246      0.1471
      9  C9        28.4040    9.7040   19.2460 C.3   246  BAB246      0.0805
     10  N1        30.2890   15.1220   14.5980 N.2   246  BAB246     -0.2884
     11  N2        29.0790   16.9060   15.4560 N.pl3 246  BAB246     -0.2497
     12  N3        28.3900   12.2250   19.5960 N.pl3 246  BAB246     -0.3179
     13  N4        29.1230   11.3910   17.6750 N.pl3 246  BAB246     -0.3179
     14  C1'       32.5450    7.4580   22.7710 C.ar  246  BAB246      0.0787
     15  C2'       31.9920    8.4050   23.6700 C.ar  246  BAB246      0.0086
     16  C3'       30.8690    9.1630   23.3150 C.ar  246  BAB246      0.0158
     17  C4'       30.3310    8.9300   22.0420 C.ar  246  BAB246      0.0590
     18  C5'       30.8270    8.0340   21.1610 C.ar  246  BAB246      0.0593
     19  C6'       31.9330    7.2850   21.5060 C.ar  246  BAB246      0.0228
     20  C7'       33.7830    6.8890   23.0370 C.2   246  BAB246      0.2674
     21  C8'       29.1550    8.9880   20.2670 C.3   246  BAB246      0.1471
     22  N1'       34.3540    6.2080   22.0480 N.2   246  BAB246     -0.2884
     23  N2'       34.3680    7.0000   24.2480 N.pl3 246  BAB246     -0.2497
     24  N3'       29.2890    9.5170   21.4760 N.pl3 246  BAB246     -0.3179
     25  N4'       30.0990    8.0590   20.0400 N.pl3 246  BAB246     -0.3179
     26 HN21       29.2840   17.5060   14.6860 H     246  BAB246      0.2883
     27 HN22       28.4710   17.2600   16.1770 H     246  BAB246      0.2883
     28  HN4       29.6670   10.7830   17.1140 H     246  BAB246      0.1483
     29 H2'1       35.2660    6.6000   24.4500 H     246  BAB246      0.2883
     30 H2'2       33.9110    7.5050   24.9830 H     246  BAB246      0.2883
     31 HN4'       30.1580    7.4730   19.2490 H     246  BAB246      0.1483
     32  HN1       35.2500    5.7820   22.1650 H     246  BAB246      0.3009
     33  HN2       33.8900    6.0510   21.1670 H     246  BAB246      0.3009
     34  HN3       28.7560   10.2470   21.9080 H     246  BAB246      0.1483
     35  HN5       30.3910   15.5290   13.6920 H     246  BAB246      0.3009
     36  HN6       30.6310   14.1770   14.6950 H     246  BAB246      0.3009
     37  H3N       28.2760   12.2830   20.5810 H     246  BAB246      0.1483
@<TRIPOS>BOND
     1    35    10    1
     2    10    36    1
     3    10     7    2
     4    26    11    1
     5    11     7    1
     6    11    27    1
     7     7     1    1
     8     6     1   ar
     9     6     5   ar
    10     1     2   ar
    11    28    13    1
    12     5    13    1
    13     5     4   ar
    14    13     8    1
    15     2     3   ar
    16     4     3   ar
    17     4    12    1
    18     8     9    1
    19     8    12    1
    20     9    21    1
    21    31    25    1
    22    12    37    1
    23    25    21    1
    24    25    18    1
    25    21    24    1
    26    18    19   ar
    27    18    17   ar
    28    33    22    1
    29    24    34    1
    30    24    17    1
    31    19    14   ar
    32    17    16   ar
    33    22    32    1
    34    22    20    2
    35    14    20    1
    36    14    15   ar
    37    20    23    1
    38    16    15   ar
    39    23    29    1
    40    23    30    1
