@<TRIPOS>MOLECULE
1xuo_LA1_A_1.pdb
 40 44 0 0 0
SMALL
GASTEIGER

@<TRIPOS>ATOM
      1  O70        5.7540   48.6080   44.4640 O.2   401  LA1401     -0.2715
      2  C69        6.5260   48.8910   43.5580 C.2   401  LA1401      0.2598
      3  N71        7.4750   49.8360   43.6580 N.am  401  LA1401     -0.2021
      4  C73        7.6380   50.6520   44.8480 C.3   401  LA1401      0.1386
      5  C30        6.4900   48.1240   42.2530 C.3   401  LA1401      0.1579
      6  C49        5.0530   47.9940   41.7180 C.3   401  LA1401      0.0556
      7  C52        4.9090   47.1680   40.4530 C.ar  401  LA1401     -0.0200
      8  C59        4.2490   45.9140   40.4730 C.ar  401  LA1401     -0.0042
      9  C58        4.0880   45.1750   39.2970 C.ar  401  LA1401     -0.0003
     10  C61        3.4390   43.9140   39.2930 C.ar  401  LA1401     -0.0000
     11  C63        3.3160   43.2050   38.0900 C.ar  401  LA1401     -0.0000
     12  C65        3.8350   43.7190   36.8900 C.ar  401  LA1401     -0.0000
     13  C67        4.4940   44.9510   36.9110 C.ar  401  LA1401     -0.0000
     14  C57        4.6170   45.6640   38.1080 C.ar  401  LA1401     -0.0000
     15  C55        5.2720   46.8990   38.0990 C.ar  401  LA1401     -0.0003
     16  C53        5.4200   47.6380   39.2680 C.ar  401  LA1401     -0.0042
     17  N2         7.1120   46.8150   42.4690 N.am  401  LA1401     -0.2708
     18  C3         6.4510   45.8030   43.2780 C.3   401  LA1401      0.1034
     19  C6         7.2330   45.5660   44.5800 C.3   401  LA1401      0.1067
     20  C9         8.5560   44.8330   44.4840 C.2   401  LA1401      0.2279
     21  O10        8.9430   44.3120   45.5260 O.2   401  LA1401     -0.2748
     22  N11        9.3430   44.7280   43.4140 N.am  401  LA1401     -0.2690
     23  C12        9.0340   45.2680   42.0890 C.3   401  LA1401      0.1522
     24  C14        8.3260   44.1020   41.2930 C.3   401  LA1401      0.0292
     25  C17        7.9100   44.3890   39.8340 C.3   401  LA1401      0.0021
     26  C23        7.1500   43.1550   39.2660 C.3   401  LA1401      0.0001
     27  C19        9.1280   44.7140   38.9730 C.3   401  LA1401      0.0001
     28  C1         8.3280   46.5940   41.9450 C.2   401  LA1401      0.2441
     29  O32        8.9410   47.4310   41.2770 O.2   401  LA1401     -0.2731
     30  C27       10.5780   43.9700   43.5720 C.3   401  LA1401      0.1182
     31  C33       11.6790   44.8700   44.0280 C.2   401  LA1401     -0.0010
     32  C39       11.9400   45.0230   45.4460 C.3   401  LA1401      0.0527
     33  C38       13.0710   45.9220   45.8690 C.2   401  LA1401     -0.0043
     34  C41       13.3550   46.0950   47.2300 C.2   401  LA1401     -0.0239
     35  C43       14.4100   46.9390   47.5940 C.3   401  LA1401      0.0518
     36  C45       15.1660   47.6020   46.6190 C.2   401  LA1401     -0.0199
     37  C47       14.8790   47.4220   45.2630 C.2   401  LA1401      0.0145
     38  C37       13.8200   46.5750   44.8980 C.2   401  LA1401      0.0770
     39  N36       13.4960   46.3680   43.5150 N.2   401  LA1401     -0.2448
     40  C34       12.4060   45.4990   43.1220 C.2   401  LA1401      0.0923
@<TRIPOS>BOND
     1    12    13   ar
     2    12    11   ar
     3    13    14   ar
     4    11    10   ar
     5    15    14   ar
     6    15    16   ar
     7    14     9   ar
     8    27    25    1
     9    26    25    1
    10    16     7   ar
    11    10     9   ar
    12     9     8   ar
    13    25    24    1
    14     7     8   ar
    15     7     6    1
    16    29    28    2
    17    24    23    1
    18     6     5    1
    19    28    23    1
    20    28    17   am
    21    23    22    1
    22     5    17    1
    23     5     2    1
    24    17    18    1
    25    40    39    1
    26    40    31    2
    27    18    19    1
    28    22    30    1
    29    22    20   am
    30    39    38    2
    31     2     3   am
    32     2     1    2
    33    30    31    1
    34     3     4    1
    35    31    32    1
    36    20    19    1
    37    20    21    2
    38    38    37    1
    39    38    33    1
    40    37    36    2
    41    32    33    1
    42    33    34    2
    43    36    35    1
    44    34    35    1
