@<TRIPOS>MOLECULE
1xur_PB5_A_1.pdb
 26 28 0 0 0
SMALL
GASTEIGER

@<TRIPOS>ATOM
      1  C1       -11.8390   27.3620   44.9950 C.2   2001  PB52001     0.1168
      2  C2       -11.2640   27.9440   46.1050 C.3   2001  PB52001     0.1003
      3  C3        -9.8910   28.0020   46.1830 C.2   2001  PB52001     0.1168
      4  N6       -11.0400   26.8450   43.9760 N.2   2001  PB52001    -0.2436
      5  C9        -9.2680   28.5980   47.3590 C.2   2001  PB52001     0.2787
      6  C11       -7.2040   28.8140   48.6930 C.3   2001  PB52001     0.1434
      7  C12       -7.3710   28.0130   49.9660 C.ar  2001  PB52001     0.0186
      8  C15      -13.2980   27.2780   44.9040 C.2   2001  PB52001     0.2787
      9  C21      -16.5660   23.9480   44.0130 C.ar  2001  PB52001     0.0963
     10  C24      -15.9670   23.6480   46.7810 C.ar  2001  PB52001     0.0204
     11  C30       -8.1990   26.8560   49.9990 C.ar  2001  PB52001     0.0006
     12  C31       -8.3730   26.1020   51.1730 C.ar  2001  PB52001     0.0204
     13  C32       -7.7090   26.5020   52.3400 C.ar  2001  PB52001     0.0989
     14  C34       -6.7090   28.4050   51.1400 C.ar  2001  PB52001     0.0963
     15  N4        -9.0910   27.4840   45.1630 N.2   2001  PB52001    -0.2436
     16  C5        -9.6630   26.9010   44.0460 C.3   2001  PB52001     0.2504
     17  N10       -7.9450   28.2920   47.5220 N.am  2001  PB52001    -0.1957
     18  N16      -13.8020   26.3210   44.0370 N.am  2001  PB52001    -0.1957
     19  C17      -15.2520   26.1090   43.8640 C.3   2001  PB52001     0.1434
     20  C18      -15.7770   24.9150   44.6530 C.ar  2001  PB52001     0.0186
     21  N22      -17.0470   22.8440   44.7570 N.ar  2001  PB52001    -0.2426
     22  C23      -16.7560   22.6860   46.1310 C.ar  2001  PB52001     0.0989
     23  C25      -15.4860   24.7510   46.0390 C.ar  2001  PB52001     0.0006
     24  N33       -6.8860   27.6440   52.3100 N.ar  2001  PB52001    -0.2426
     25  O41      -14.1120   27.9570   45.5400 O.2   2001  PB52001    -0.2671
     26  O42       -9.8000   29.3030   48.2140 O.2   2001  PB52001    -0.2671
@<TRIPOS>BOND
     1    19    18    1
     2    19    20    1
     3     4    16    1
     4     4     1    2
     5     9    20   ar
     6     9    21   ar
     7    18     8   am
     8    16    15    1
     9    20    23   ar
    10    21    22   ar
    11     8     1    1
    12     8    25    2
    13     1     2    1
    14    15     3    2
    15    23    10   ar
    16     2     3    1
    17    22    10   ar
    18     3     5    1
    19     5    17   am
    20     5    26    2
    21    17     6    1
    22     6     7    1
    23     7    11   ar
    24     7    14   ar
    25    11    12   ar
    26    14    24   ar
    27    12    13   ar
    28    24    13   ar
