@<TRIPOS>MOLECULE
1xuz_PEP_A_1.pdb
 10 9 0 0 0
SMALL
GASTEIGER

@<TRIPOS>ATOM
      1  C1        99.4750  -20.4980   53.3580 C.2   2001  PEP2001     0.4216
      2  O1        99.7890  -21.4280   52.5180 O.co2 2001  PEP2001    -0.2371
      3  O2'      100.2390  -19.6100   53.6630 O.co2 2001  PEP2001    -0.2371
      4  C2        98.0690  -20.6050   53.9340 C.2   2001  PEP2001     0.2283
      5  C3        97.2740  -21.7040   54.0640 C.2   2001  PEP2001     0.0477
      6  O2        97.6040  -19.3630   54.3850 O.2   2001  PEP2001    -0.3930
      7  P         96.1240  -18.8280   54.6700 P.3   2001  PEP2001     0.5889
      8  O1P       95.5790  -19.6330   55.8650 O.3   2001  PEP2001    -0.1039
      9  O2P       95.3720  -19.0370   53.3880 O.2   2001  PEP2001    -0.2114
     10  O3P       96.2940  -17.4220   55.0890 O.3   2001  PEP2001    -0.1039
@<TRIPOS>BOND
     1     2     1   ar
     2     1     3   ar
     3     1     4    1
     4     9     7    2
     5     4     5    2
     6     4     6    1
     7     6     7    1
     8     7    10    1
     9     7     8    1
