@<TRIPOS>MOLECULE
1xuz_MMN_A_1.pdb
 15 14 0 0 0
SMALL
GASTEIGER

@<TRIPOS>ATOM
      1  C8        94.5210  -24.8230   54.4200 C.3   3001  MMN3001     0.0964
      2  C7        95.5790  -24.6160   53.3330 C.2   3001  MMN3001     0.2420
      3  O7        96.6360  -25.2450   53.3570 O.2   3001  MMN3001    -0.2733
      4  N1        95.2570  -23.7190   52.4040 N.am  3001  MMN3001    -0.2018
      5  C2        96.1380  -23.3800   51.2760 C.3   3001  MMN3001     0.1610
      6  C1        96.5790  -21.9170   51.3710 C.3   3001  MMN3001     0.2063
      7  O1        95.4380  -21.0640   51.4940 O.3   3001  MMN3001    -0.2184
      8  C3        95.4150  -23.6540   49.9550 C.3   3001  MMN3001     0.2071
      9  O3        96.2470  -23.2310   48.8710 O.3   3001  MMN3001    -0.2184
     10  C4        95.0960  -25.1440   49.8040 C.3   3001  MMN3001     0.2166
     11  O4        96.3200  -25.8810   49.7420 O.3   3001  MMN3001    -0.2175
     12  C5        94.2730  -25.4170   48.5410 C.3   3001  MMN3001     0.2175
     13  O5        93.0650  -24.6520   48.5730 O.3   3001  MMN3001    -0.2175
     14  C6        93.9220  -26.9020   48.4280 C.3   3001  MMN3001     0.2175
     15  O6        93.0890  -27.1120   47.2850 O.3   3001  MMN3001    -0.2175
@<TRIPOS>BOND
     1    15    14    1
     2    14    12    1
     3    12    13    1
     4    12    10    1
     5     9     8    1
     6    11    10    1
     7    10     8    1
     8     8     5    1
     9     5     6    1
    10     5     4    1
    11     6     7    1
    12     4     2   am
    13     2     3    2
    14     2     1    1
