@<TRIPOS>MOLECULE
1xv5_UDP_A_1.pdb
 25 26 0 0 0
SMALL
GASTEIGER

@<TRIPOS>ATOM
      1  N1        -2.4680   31.6480   24.6610 N.am  1402  UDP1402    -0.1766
      2  C2        -3.7960   31.6860   24.2860 C.1   1402  UDP1402     0.2845
      3  N3        -4.4810   30.5110   24.4670 N.2   1402  UDP1402    -0.2452
      4  C4        -3.9810   29.3300   24.9840 C.1   1402  UDP1402     0.2182
      5  C5        -2.6010   29.3780   25.3590 C.2   1402  UDP1402     0.1242
      6  C6        -1.9080   30.5080   25.1860 C.2   1402  UDP1402     0.0929
      7  O2        -4.3270   32.6880   23.8360 O.2   1402  UDP1402    -0.1918
      8  O4        -4.7220   28.3530   25.0880 O.2   1402  UDP1402    -0.2085
      9  C1'       -1.6750   32.8670   24.4700 C.3   1402  UDP1402     0.2401
     10  C2'       -1.0670   33.4410   25.7450 C.3   1402  UDP1402     0.2319
     11  O2'       -2.0160   34.1990   26.4650 O.3   1402  UDP1402    -0.2157
     12  C3'        0.0710   34.2610   25.1520 C.3   1402  UDP1402     0.2158
     13  C4'        0.5830   33.3290   24.0550 C.3   1402  UDP1402     0.1799
     14  O4'       -0.5720   32.5450   23.6510 O.3   1402  UDP1402    -0.3320
     15  O3'       -0.4580   35.4530   24.5710 O.3   1402  UDP1402    -0.2175
     16  C5'        1.7010   32.3960   24.4770 C.3   1402  UDP1402     0.1813
     17  O5'        2.9340   33.1050   24.5070 O.3   1402  UDP1402    -0.3111
     18  PA         3.9870   32.9590   25.6960 P.3   1402  UDP1402     0.2231
     19  O1A        5.1100   33.8510   25.3400 O.2   1402  UDP1402    -0.5169
     20  O2A        3.2810   33.1610   26.9890 O.3   1402  UDP1402    -0.4370
     21  O3A        4.4810   31.3990   25.6600 O.3   1402  UDP1402    -0.2261
     22  PB         4.6810   30.3440   24.4220 P.3   1402  UDP1402     0.5373
     23  O1B        5.8480   29.4940   24.7720 O.3   1402  UDP1402    -0.1143
     24  O2B        3.3740   29.7020   24.1570 O.3   1402  UDP1402    -0.1143
     25  O3B        5.0700   31.2550   23.1810 O.2   1402  UDP1402    -0.2221
@<TRIPOS>BOND
     1    25    22    2
     2    14    13    1
     3    14     9    1
     4     7     2    2
     5    13    16    1
     6    13    12    1
     7    24    22    1
     8     2     3    2
     9     2     1   am
    10    22    23    1
    11    22    21    1
    12     3     4    2
    13     9     1    1
    14     9    10    1
    15    16    17    1
    16    17    18    1
    17    15    12    1
    18     1     6    1
    19     4     8    2
    20     4     5    1
    21    12    10    1
    22     6     5    2
    23    19    18    2
    24    21    18    1
    25    18    20    1
    26    10    11    1
