@<TRIPOS>MOLECULE
1xv9_F15_A_1.pdb
 46 45 0 0 0
SMALL
GASTEIGER

@<TRIPOS>ATOM
      1  C1        37.0030   31.3580   61.0800 C.2   1003  F151003     0.3560
      2  O2        36.5050   31.0370   62.1650 O.co2 1003  F151003    -0.2464
      3  O3        37.8830   30.6500   60.5950 O.co2 1003  F151003    -0.2464
      4  C4        36.4740   32.6150   60.2490 C.3   1003  F151003     0.0492
      5  C5        36.7550   34.0890   60.7850 C.3   1003  F151003    -0.0428
      6  C6        36.6400   36.5490   60.9450 C.3   1003  F151003    -0.0530
      7  C7        36.0140   37.9190   60.7280 C.3   1003  F151003    -0.0531
      8  C8        36.1140   35.3640   60.1170 C.3   1003  F151003    -0.0526
      9  C9        36.6950   38.6540   59.5420 C.3   1003  F151003    -0.0531
     10  C10       37.2360   40.0850   59.8070 C.3   1003  F151003    -0.0531
     11  C11       38.7430   40.2170   59.5640 C.3   1003  F151003    -0.0531
     12  C12       39.3150   41.0050   58.3270 C.3   1003  F151003    -0.0531
     13  C13       40.8770   40.8000   58.0530 C.3   1003  F151003    -0.0531
     14  C2        41.9650   41.3210   59.0700 C.3   1003  F151003    -0.0531
     15  C3        42.3930   40.4350   60.2660 C.3   1003  F151003    -0.0533
     16  C14       42.9650   39.1030   59.8170 C.3   1003  F151003    -0.0559
     17  C15       43.5140   38.4050   61.0470 C.3   1003  F151003    -0.0653
     18  H22       35.4060   32.4970   60.1500 H     1003  F151003     0.0379
     19  H23       36.8570   32.5210   59.2430 H     1003  F151003     0.0379
     20  H24       37.8220   34.2440   60.8000 H     1003  F151003     0.0270
     21  H25       36.4630   34.1240   61.8250 H     1003  F151003     0.0270
     22  H26       36.4960   36.3210   61.9900 H     1003  F151003     0.0265
     23  H1        37.7090   36.6260   60.8060 H     1003  F151003     0.0265
     24  H27       36.1620   38.4930   61.6340 H     1003  F151003     0.0265
     25  H2        34.9430   37.8300   60.5940 H     1003  F151003     0.0265
     26  H28       35.0360   35.3520   60.1600 H     1003  F151003     0.0265
     27  H29       36.3830   35.4600   59.0780 H     1003  F151003     0.0265
     28  H30       35.9790   38.7290   58.7380 H     1003  F151003     0.0265
     29  H31       37.4790   38.0250   59.1530 H     1003  F151003     0.0265
     30  H33       36.7170   40.8030   59.2070 H     1003  F151003     0.0265
     31  H5        37.0420   40.3410   60.8390 H     1003  F151003     0.0265
     32  H34       39.1380   39.2110   59.5280 H     1003  F151003     0.0265
     33  H6        39.1610   40.6500   60.4650 H     1003  F151003     0.0265
     34  H36       39.1210   42.0570   58.4490 H     1003  F151003     0.0265
     35  H37       38.7790   40.7120   57.4390 H     1003  F151003     0.0265
     36  H3        41.0980   41.3220   57.1360 H     1003  F151003     0.0265
     37  H4        41.1040   39.7650   57.8350 H     1003  F151003     0.0265
     38  H7        41.7040   42.2980   59.4530 H     1003  F151003     0.0265
     39  H8        42.8800   41.4600   58.5120 H     1003  F151003     0.0265
     40  H9        41.5700   40.2770   60.9540 H     1003  F151003     0.0265
     41  H10       43.1630   40.9280   60.8490 H     1003  F151003     0.0265
     42  H11       43.7380   39.2780   59.0900 H     1003  F151003     0.0263
     43  H12       42.2100   38.5140   59.3250 H     1003  F151003     0.0263
     44  H13       42.7500   38.2410   61.7890 H     1003  F151003     0.0230
     45  H14       44.2960   38.9880   61.5000 H     1003  F151003     0.0230
     46  H15       43.9170   37.4520   60.7430 H     1003  F151003     0.0230
@<TRIPOS>BOND
     1    36    13    1
     2    35    12    1
     3    37    13    1
     4    13    12    1
     5    13    14    1
     6    12    34    1
     7    12    11    1
     8    39    14    1
     9    28     9    1
    10    14    38    1
    11    14    15    1
    12    27     8    1
    13    42    16    1
    14    29     9    1
    15    30    10    1
    16    19     4    1
    17    43    16    1
    18    32    11    1
    19     9    10    1
    20     9     7    1
    21    11    10    1
    22    11    33    1
    23    10    31    1
    24    16    15    1
    25    16    17    1
    26     8    26    1
    27     8     5    1
    28     8     6    1
    29    18     4    1
    30     4     5    1
    31     4     1    1
    32    15    41    1
    33    15    40    1
    34    25     7    1
    35     3     1   ar
    36     7     6    1
    37     7    24    1
    38    46    17    1
    39     5    20    1
    40     5    21    1
    41    23     6    1
    42     6    22    1
    43    17    45    1
    44    17    44    1
    45     1     2   ar
