@<TRIPOS>MOLECULE
1xva_SAM_A_1.pdb
 27 29 0 0 0
SMALL
GASTEIGER

@<TRIPOS>ATOM
      1  N         61.5280   67.4880    7.5600 N.3   293  SAM293     -0.1208
      2  CA        61.3530   68.9000    7.2400 C.3   293  SAM293      0.1952
      3  C         61.4990   69.0370    5.7160 C.2   293  SAM293      0.3819
      4  O         60.5610   68.6930    4.9770 O.co2 293  SAM293     -0.2441
      5  OXT       62.4300   69.6590    5.2120 O.co2 293  SAM293     -0.2441
      6  CB        62.4090   69.7100    8.0120 C.3   293  SAM293      0.0414
      7  CG        61.9270   70.8080    8.9740 C.3   293  SAM293      0.0503
      8  SD        63.2730   71.7310    9.7930 S.3   293  SAM293     -0.1761
      9  CE        63.8780   70.6570   11.0850 C.3   293  SAM293      0.0590
     10  C5'       62.4630   73.0350   10.7870 C.3   293  SAM293      0.0806
     11  C4'       61.8300   73.9450    9.8720 C.3   293  SAM293      0.1622
     12  O4'       60.8400   74.7810   10.5920 O.3   293  SAM293     -0.3153
     13  C3'       62.9510   74.9180    9.2950 C.3   293  SAM293      0.2168
     14  O3'       62.9610   74.9370    7.8290 O.3   293  SAM293     -0.2175
     15  C2'       62.5500   76.2880    9.8220 C.3   293  SAM293      0.2569
     16  O2'       62.7830   77.2710    8.8360 O.3   293  SAM293     -0.2130
     17  C1'       61.0480   76.1390   10.1020 C.3   293  SAM293      0.3185
     18  N9        60.4080   77.3090   10.8400 N.pl3 293  SAM293     -0.1439
     19  C8        59.9200   78.4400   10.1890 C.3   293  SAM293      0.3377
     20  N7        59.5020   79.3780   10.9880 N.2   293  SAM293     -0.2095
     21  C5        59.7120   78.8570   12.2770 C.2   293  SAM293      0.2526
     22  C6        59.3920   79.3550   13.5640 C.2   293  SAM293      0.4393
     23  N6        58.8650   80.5710   13.7450 N.pl3 293  SAM293      0.2180
     24  N1        59.6380   78.5660   14.6330 N.2   293  SAM293      0.0021
     25  C2        60.1880   77.3690   14.4330 C.3   293  SAM293      0.5254
     26  N3        60.5470   76.7880   13.2930 N.2   293  SAM293     -0.0055
     27  C4        60.2790   77.5960   12.2180 C.2   293  SAM293      0.3518
@<TRIPOS>BOND
     1     4     3   ar
     2     5     3   ar
     3     3     2    1
     4     2     1    1
     5     2     6    1
     6    14    13    1
     7     6     7    1
     8    16    15    1
     9     7     8    1
    10    13    15    1
    11    13    11    1
    12     8    10    1
    13     8     9    1
    14    15    17    1
    15    11    12    1
    16    11    10    1
    17    17    12    1
    18    17    18    1
    19    19    18    1
    20    19    20    1
    21    18    27    1
    22    20    21    2
    23    27    21    1
    24    27    26    2
    25    21    22    1
    26    26    25    1
    27    22    23    1
    28    22    24    2
    29    25    24    1
