@<TRIPOS>MOLECULE
1xvm_III_B_1.pdb
 42 41 0 0 0
SMALL
GASTEIGER

@<TRIPOS>ATOM
      1  N         11.2160    0.3640  -10.9080 N.3   2001  GLY2001    -0.3225
      2  CA         9.8330    0.7810  -10.8690 C.3   2001  GLY2001     0.0707
      3  C          9.1120    0.7570   -9.5410 C.2   2001  GLY2001     0.2273
      4  O          7.8700    0.7480   -9.5140 O.2   2001  GLY2001    -0.2744
      5  H2        11.6460    0.3690  -11.6520 H     2001  GLY2001     0.1186
      6  H         11.6090    0.1100  -10.1860 H     2001  GLY2001     0.1186
      7  HA2        9.7880    1.6860  -11.2130 H     2001  GLY2001     0.0518
      8  HA3        9.3380    0.2170  -11.4830 H     2001  GLY2001     0.0518
      9  N          9.8020    0.7460   -8.4090 N.am  2002  ALA2002    -0.3032
     10  CA         9.1390    0.7010   -7.1100 C.3   2002  ALA2002     0.0966
     11  C          8.3360    1.9920   -6.8810 C.2   2002  ALA2002     0.2336
     12  O          8.7290    3.0790   -7.2780 O.2   2002  ALA2002    -0.2738
     13  CB        10.1130    0.5050   -5.9730 C.3   2002  ALA2002    -0.0381
     14  H         10.6620    0.7670   -8.4420 H     2002  ALA2002     0.1495
     15  HA         8.5140   -0.0540   -7.1120 H     2002  ALA2002     0.0592
     16  HB1       10.7170    1.2510   -5.9370 H     2002  ALA2002     0.0252
     17  HB2       10.6110   -0.3030   -6.1140 H     2002  ALA2002     0.0252
     18  HB3        9.6310    0.4440   -5.1460 H     2002  ALA2002     0.0252
     19  N          7.1900    1.8050   -6.2470 N.am  2003  ARG2003    -0.3037
     20  CA         6.2730    2.9340   -6.0850 C.3   2003  ARG2003     0.0891
     21  C          5.9360    3.4590   -4.7070 C.2   2003  ARG2003     0.2199
     22  O          5.7580    4.6130   -4.2930 O.2   2003  ARG2003    -0.2869
     23  CB         4.8470    2.5460   -6.5770 C.3   2003  ARG2003    -0.0243
     24  CG         4.8310    2.4010   -8.0860 C.3   2003  ARG2003    -0.0201
     25  CD         3.4560    1.9320   -8.5300 C.3   2003  ARG2003     0.0646
     26  NE         3.4780    1.7940   -9.9860 N.pl3 2003  ARG2003    -0.2787
     27  CZ         2.4020    1.4530  -10.6680 C.cat 2003  ARG2003     0.3410
     28  NH1        2.4080    1.3210  -11.9860 N.pl3 2003  ARG2003    -0.2919
     29  NH2        1.3230    1.2430   -9.9700 N.pl3 2003  ARG2003    -0.2919
     30  H          6.9860    1.0300   -5.9340 H     2003  ARG2003     0.1495
     31  HA         6.5980    3.6800   -6.6310 H     2003  ARG2003     0.0582
     32  HB2        4.5790    1.7090   -6.1680 H     2003  ARG2003     0.0288
     33  HB3        4.2130    3.2300   -6.3100 H     2003  ARG2003     0.0288
     34  HG2        5.0380    3.2530   -8.5000 H     2003  ARG2003     0.0296
     35  HG3        5.5030    1.7580   -8.3610 H     2003  ARG2003     0.0296
     36  HD2        3.2440    1.0800   -8.1170 H     2003  ARG2003     0.0655
     37  HD3        2.7820    2.5770   -8.2650 H     2003  ARG2003     0.0655
     38  HE         4.2130    1.9390  -10.4090 H     2003  ARG2003     0.2578
     39 HH11        1.6890    1.0920  -12.3980 H     2003  ARG2003     0.2545
     40 HH12        3.1300    1.4650  -12.4290 H     2003  ARG2003     0.2545
     41 HH21        1.3400    1.3340   -9.1150 H     2003  ARG2003     0.2545
     42 HH22        0.5940    1.0130  -10.3640 H     2003  ARG2003     0.2545
@<TRIPOS>BOND
     1    40    28    1
     2    39    28    1
     3    28    27    2
     4     5     1    1
     5     8     2    1
     6     7     2    1
     7     1     2    1
     8     1     6    1
     9     2     3    1
    10    27    26    1
    11    27    29    1
    12    38    26    1
    13    42    29    1
    14    26    25    1
    15    29    41    1
    16     3     4    2
    17     3     9   am
    18    25    37    1
    19    25    36    1
    20    25    24    1
    21    34    24    1
    22    14     9    1
    23     9    10    1
    24    35    24    1
    25    24    23    1
    26    12    11    2
    27    15    10    1
    28    10    11    1
    29    10    13    1
    30    11    19   am
    31    31    20    1
    32    23    33    1
    33    23    32    1
    34    23    20    1
    35    19    20    1
    36    19    30    1
    37    17    13    1
    38    20    21    1
    39    13    16    1
    40    13    18    1
    41    21    22    2
