@<TRIPOS>MOLECULE
1xvp_F15_A_1.pdb
 46 45 0 0 0
SMALL
GASTEIGER

@<TRIPOS>ATOM
      1  C1        37.6000   30.6620   59.7470 C.2   1002  F151002     0.3560
      2  O2        37.2450   29.5490   59.3490 O.co2 1002  F151002    -0.2464
      3  O3        38.3970   30.7100   60.6870 O.co2 1002  F151002    -0.2464
      4  C4        37.0570   32.0160   59.0680 C.3   1002  F151002     0.0492
      5  C5        37.2630   33.3920   59.9010 C.3   1002  F151002    -0.0428
      6  C6        37.2280   35.9860   59.8420 C.3   1002  F151002    -0.0530
      7  C7        36.2600   37.0880   60.3300 C.3   1002  F151002    -0.0531
      8  C8        36.5330   34.6970   59.4530 C.3   1002  F151002    -0.0526
      9  C9        36.3880   38.2740   59.3630 C.3   1002  F151002    -0.0531
     10  C10       37.4690   39.2950   59.7790 C.3   1002  F151002    -0.0531
     11  C11       38.7710   39.2840   58.9480 C.3   1002  F151002    -0.0531
     12  C12       39.0920   40.4440   57.8980 C.3   1002  F151002    -0.0531
     13  C13       40.3480   40.2120   56.9280 C.3   1002  F151002    -0.0531
     14  C2        41.7380   40.6440   57.5020 C.3   1002  F151002    -0.0531
     15  C3        42.1730   40.1210   58.9450 C.3   1002  F151002    -0.0533
     16  C14       43.3550   39.1060   59.0870 C.3   1002  F151002    -0.0559
     17  C15       43.2480   38.2190   60.3470 C.3   1002  F151002    -0.0653
     18  H22       35.9980   31.8730   58.8510 H     1002  F151002     0.0379
     19  H23       37.5180   32.1000   58.0800 H     1002  F151002     0.0379
     20  H24       38.3220   33.6350   59.8900 H     1002  F151002     0.0270
     21  H25       36.9850   33.2250   60.9420 H     1002  F151002     0.0270
     22  H26       37.9900   35.8220   60.5780 H     1002  F151002     0.0265
     23  H1        37.7640   36.3320   58.9580 H     1002  F151002     0.0265
     24  H27       36.4680   37.3860   61.3600 H     1002  F151002     0.0265
     25  H2        35.2310   36.7260   60.3310 H     1002  F151002     0.0265
     26  H28       35.5050   34.7040   59.8240 H     1002  F151002     0.0265
     27  H29       36.4800   34.7220   58.3710 H     1002  F151002     0.0265
     28  H30       35.4300   38.7950   59.3740 H     1002  F151002     0.0265
     29  H31       36.5520   37.9450   58.3320 H     1002  F151002     0.0265
     30  H33       37.0530   40.3040   59.7560 H     1002  F151002     0.0265
     31  H5        37.7230   39.1080   60.8240 H     1002  F151002     0.0265
     32  H34       38.8550   38.3050   58.4700 H     1002  F151002     0.0265
     33  H6        39.5270   39.3240   59.7250 H     1002  F151002     0.0265
     34  H36       39.1720   41.4140   58.4010 H     1002  F151002     0.0265
     35  H37       38.2230   40.5160   57.2400 H     1002  F151002     0.0265
     36  H3        40.2020   40.7670   55.9970 H     1002  F151002     0.0265
     37  H4        40.3950   39.1730   56.5990 H     1002  F151002     0.0265
     38  H7        41.7240   41.7330   57.5430 H     1002  F151002     0.0265
     39  H8        42.5090   40.4030   56.7700 H     1002  F151002     0.0265
     40  H9        41.3450   39.6210   59.4180 H     1002  F151002     0.0265
     41  H10       42.3550   40.9730   59.5990 H     1002  F151002     0.0265
     42  H11       44.2980   39.6550   59.1160 H     1002  F151002     0.0263
     43  H12       43.3930   38.4460   58.2200 H     1002  F151002     0.0263
     44  H13       44.1190   37.5690   60.4460 H     1002  F151002     0.0230
     45  H14       42.3640   37.5790   60.3020 H     1002  F151002     0.0230
     46  H15       43.1920   38.8290   61.2500 H     1002  F151002     0.0230
@<TRIPOS>BOND
     1    36    13    1
     2    37    13    1
     3    39    14    1
     4    13    14    1
     5    13    12    1
     6    35    12    1
     7    14    38    1
     8    14    15    1
     9    12    34    1
    10    12    11    1
    11    19     4    1
    12    43    16    1
    13    29     9    1
    14    27     8    1
    15    32    11    1
    16    18     4    1
    17    15    16    1
    18    15    40    1
    19    15    41    1
    20    11    33    1
    21    11    10    1
    22    23     6    1
    23     4     1    1
    24     4     5    1
    25    16    42    1
    26    16    17    1
    27     2     1   ar
    28     9    28    1
    29     9    10    1
    30     9     7    1
    31     8    26    1
    32     8     6    1
    33     8     5    1
    34     1     3   ar
    35    30    10    1
    36    10    31    1
    37     6     7    1
    38     6    22    1
    39    20     5    1
    40     5    21    1
    41    45    17    1
    42     7    25    1
    43     7    24    1
    44    17    44    1
    45    17    46    1
