@<TRIPOS>MOLECULE
1xvp_CID_D_1.pdb
 28 30 0 0 0
SMALL
GASTEIGER

@<TRIPOS>ATOM
      1  C20       23.1100   54.9390   27.4960 C.3   1003  CID1003     0.0316
      2  C20       23.1630   54.7560   27.5830 C.2   1003  CID1003     0.0236
      3  C18       23.7860   54.3490   26.2780 C.3   1003  CID1003     0.2649
      4  O16       24.5780   53.2050   26.5990 O.2   1003  CID1003    -0.3726
      5  N11       25.5470   53.2520   27.4750 N.2   1003  CID1003    -0.0836
      6  C10       26.0520   52.1990   27.9500 C.2   1003  CID1003     0.1408
      7  C21       23.1520   56.3570   27.7490 C.2   1003  CID1003    -0.0135
      8  C23       22.5540   56.9120   28.9370 C.2   1003  CID1003     0.0640
      9 CL26       22.6390   58.6510   29.2260 Cl    1003  CID1003    -0.0817
     10  C25       21.8960   56.0370   29.8790 C.2   1003  CID1003     0.0679
     11 CL27       21.1700   56.6690   31.3480 Cl    1003  CID1003    -0.0814
     12  C24       21.8340   54.6270   29.6200 C.2   1003  CID1003     0.0120
     13  C22       22.4390   54.0830   28.4410 C.2   1003  CID1003     0.0001
     14  N5        28.0960   51.1740   29.0470 N.pl3 1003  CID1003    -0.2455
     15  C9        28.8530   51.3960   30.1410 C.2   1003  CID1003     0.2187
     16  N4        28.5170   52.5370   30.7810 N.2   1003  CID1003    -0.3825
     17  C1        27.5170   53.0910   30.0490 C.2   1003  CID1003     0.1354
     18  C2        27.1880   52.1960   28.9520 C.3   1003  CID1003     0.1767
     19  C3        26.9480   54.3380   30.5270 C.ar  1003  CID1003     0.0276
     20  C8        27.0020   54.6140   31.9470 C.ar  1003  CID1003     0.0031
     21  C13       26.3230   55.7520   32.5080 C.ar  1003  CID1003     0.0115
     22  C17       25.6490   56.6850   31.6510 C.ar  1003  CID1003     0.0577
     23 CL19       24.8120   58.0770   32.3310 Cl    1003  CID1003    -0.0822
     24  C12       25.6710   56.4740   30.2310 C.ar  1003  CID1003     0.0115
     25  C7        26.2940   55.3040   29.6750 C.ar  1003  CID1003     0.0031
     26  C11       28.3500   49.9540   28.4050 C.2   1003  CID1003     0.0755
     27  S14       29.9990   50.1730   30.4580 S.3   1003  CID1003    -0.0379
     28  C15       29.3540   49.2750   29.0310 C.2   1003  CID1003     0.0553
@<TRIPOS>BOND
     1     3     4    1
     2     3     2    1
     3     4     5    1
     4     5     6    2
     5     1     7    1
     6     2    13    2
     7     7     8    2
     8     6    18    1
     9    26    28    2
    10    26    14    1
    11    13    12    1
    12     8     9    1
    13     8    10    1
    14    18    14    1
    15    18    17    1
    16    28    27    1
    17    14    15    1
    18    12    10    2
    19    25    24   ar
    20    25    19   ar
    21    10    11    1
    22    17    19    1
    23    17    16    2
    24    15    27    1
    25    15    16    2
    26    24    22   ar
    27    19    20   ar
    28    22    23    1
    29    22    21   ar
    30    20    21   ar
