@<TRIPOS>MOLECULE
1xvt_COA_A_1.pdb
 48 50 0 0 0
SMALL
GASTEIGER

@<TRIPOS>ATOM
      1  N1A       44.0240   47.7930   27.0660 N.2   501  COA501      0.0021
      2  C2A       45.0170   47.5050   27.9770 C.3   501  COA501      0.5254
      3  N3A       46.3430   47.6310   27.6250 N.2   501  COA501     -0.0055
      4  C4A       46.6850   48.0380   26.3770 C.2   501  COA501      0.3518
      5  C5A       45.7000   48.3350   25.4370 C.2   501  COA501      0.2526
      6  C6A       44.3540   48.2100   25.7910 C.2   501  COA501      0.4393
      7  N6A       43.3760   48.5250   24.9480 N.pl3 501  COA501      0.2180
      8  N7A       46.3300   48.7080   24.3010 N.2   501  COA501     -0.2095
      9  C8A       47.6720   48.6550   24.4960 C.3   501  COA501      0.3377
     10  N9A       47.9110   48.2340   25.7840 N.pl3 501  COA501     -0.1439
     11  C1B       49.2100   48.0510   26.4650 C.3   501  COA501      0.3185
     12  C2B       50.3600   47.6490   25.5480 C.3   501  COA501      0.2543
     13  O2B       50.4380   46.2610   25.2990 O.3   501  COA501     -0.2131
     14  C3B       51.5700   48.1810   26.2920 C.3   501  COA501      0.1928
     15  O3B       52.0420   47.2150   27.2110 O.3   501  COA501     -0.2673
     16  P3B       53.2720   46.2100   26.8820 P.3   501  COA501      0.5327
     17  O7A       54.5650   46.9660   27.0930 O.3   501  COA501     -0.1145
     18  O8A       53.2140   45.0020   27.8010 O.3   501  COA501     -0.1145
     19  O9A       53.2100   45.7080   25.4570 O.2   501  COA501     -0.2224
     20  C4B       51.0260   49.3890   27.0460 C.3   501  COA501      0.1795
     21  O4B       49.6140   49.2740   27.0480 O.3   501  COA501     -0.3136
     22  C5B       51.4200   50.7310   26.4220 C.3   501  COA501      0.1812
     23  O5B       51.5050   50.6030   25.0150 O.3   501  COA501     -0.3112
     24  P1A       51.2220   51.7990   23.9670 P.3   501  COA501      0.2189
     25  O1A       50.8100   51.1930   22.6450 O.2   501  COA501     -0.5170
     26  O2A       50.1600   52.7660   24.4450 O.3   501  COA501     -0.4371
     27  O3A       52.6190   52.5890   23.8690 O.3   501  COA501     -0.2703
     28  P2A       54.0420   51.9060   23.5810 P.3   501  COA501      0.2188
     29  O4A       55.1030   52.9680   23.6950 O.2   501  COA501     -0.5170
     30  O5A       54.3440   50.7470   24.4860 O.3   501  COA501     -0.4371
     31  O6A       53.9480   51.4210   22.0410 O.3   501  COA501     -0.3138
     32  CBP       54.3210   51.8210   19.6910 C.3   501  COA501      0.0645
     33  CCP       53.6850   52.3210   20.9820 C.3   501  COA501      0.1519
     34  CDP       53.6360   52.5400   18.5300 C.3   501  COA501      0.0056
     35  CEP       55.7940   52.2390   19.7280 C.3   501  COA501      0.0056
     36  CAP       54.1500   50.2920   19.5880 C.3   501  COA501      0.2312
     37  OAP       52.7980   49.9150   19.7260 O.3   501  COA501     -0.2131
     38  C9P       54.7090   49.6690   18.3430 C.2   501  COA501      0.2719
     39  O9P       56.0970   49.5900   18.1710 O.2   501  COA501     -0.2706
     40  N8P       53.8400   49.2020   17.4410 N.am  501  COA501     -0.2028
     41  C7P       54.2530   48.5390   16.2170 C.3   501  COA501      0.1248
     42  C6P       54.6430   49.4990   15.0920 C.3   501  COA501      0.1102
     43  C5P       53.5910   50.5750   14.9330 C.2   501  COA501      0.2432
     44  O5P       52.3960   50.2740   14.8430 O.2   501  COA501     -0.2733
     45  N4P       54.0230   51.8300   14.9170 N.am  501  COA501     -0.2044
     46  C3P       53.1200   52.9610   14.8020 C.3   501  COA501      0.1276
     47  C2P       53.1190   53.4980   13.3760 C.3   501  COA501      0.0920
     48  S1P       52.5890   55.2240   13.3450 S.3   501  COA501     -0.0802
@<TRIPOS>BOND
     1    48    47    1
     2    47    46    1
     3    46    45    1
     4    44    43    2
     5    45    43   am
     6    43    42    1
     7    42    41    1
     8    41    40    1
     9    40    38   am
    10    39    38    2
    11    38    36    1
    12    34    32    1
    13    36    32    1
    14    36    37    1
    15    32    35    1
    16    32    33    1
    17    33    31    1
    18    31    28    1
    19    25    24    2
    20    28    29    2
    21    28    27    1
    22    28    30    1
    23    27    24    1
    24    24    26    1
    25    24    23    1
    26     8     9    1
    27     8     5    2
    28     9    10    1
    29     7     6    1
    30    23    22    1
    31    13    12    1
    32     5     6    1
    33     5     4    1
    34    19    16    2
    35    12    14    1
    36    12    11    1
    37    10     4    1
    38    10    11    1
    39     6     1    2
    40    14    20    1
    41    14    15    1
    42     4     3    2
    43    22    20    1
    44    11    21    1
    45    16    17    1
    46    16    15    1
    47    16    18    1
    48    20    21    1
    49     1     2    1
    50     3     2    1
