@<TRIPOS>MOLECULE
1xvu_COA_A_1.pdb
 48 50 0 0 0
SMALL
GASTEIGER

@<TRIPOS>ATOM
      1  N1A       43.6990   46.6960   26.9090 N.2   501  COA501      0.0021
      2  C2A       44.6700   46.5190   27.8760 C.3   501  COA501      0.5254
      3  N3A       45.9680   46.9100   27.6380 N.2   501  COA501     -0.0055
      4  C4A       46.2900   47.4630   26.4430 C.2   501  COA501      0.3518
      5  C5A       45.3210   47.6470   25.4530 C.2   501  COA501      0.2526
      6  C6A       44.0040   47.2720   25.6850 C.2   501  COA501      0.4393
      7  N6A       43.0330   47.9050   25.0220 N.pl3 501  COA501      0.2180
      8  N7A       45.9200   48.2120   24.3890 N.2   501  COA501     -0.2095
      9  C8A       47.2290   48.3940   24.6860 C.3   501  COA501      0.3377
     10  N9A       47.4830   47.9280   25.9550 N.pl3 501  COA501     -0.1439
     11  C1B       48.7810   47.4550   26.4530 C.3   501  COA501      0.3185
     12  C2B       49.6880   46.9860   25.3310 C.3   501  COA501      0.2543
     13  O2B       49.5500   45.6000   25.1190 O.3   501  COA501     -0.2131
     14  C3B       51.0670   47.3090   25.8410 C.3   501  COA501      0.1928
     15  O3B       51.4980   46.0790   26.3840 O.3   501  COA501     -0.2673
     16  P3B       52.9880   45.7060   26.8830 P.3   501  COA501      0.5327
     17  O7A       52.8340   44.3370   27.5030 O.3   501  COA501     -0.1145
     18  O8A       53.9950   45.5680   25.7650 O.2   501  COA501     -0.2224
     19  O9A       53.4840   46.7390   27.8810 O.3   501  COA501     -0.1145
     20  C4B       50.8450   48.4020   26.8800 C.3   501  COA501      0.1795
     21  O4B       49.4600   48.5070   27.0980 O.3   501  COA501     -0.3136
     22  C5B       51.3000   49.7790   26.4170 C.3   501  COA501      0.1812
     23  O5B       50.3650   50.3610   25.5040 O.3   501  COA501     -0.3112
     24  P1A       50.8890   51.0490   24.1230 P.3   501  COA501      0.2189
     25  O1A       50.2810   50.3920   22.8920 O.2   501  COA501     -0.5170
     26  O2A       50.6810   52.5370   24.1030 O.3   501  COA501     -0.4371
     27  O3A       52.4390   50.6860   24.3710 O.3   501  COA501     -0.2703
     28  P2A       53.7030   51.1250   23.5150 P.3   501  COA501      0.2188
     29  O4A       54.0020   52.6040   23.6230 O.2   501  COA501     -0.5170
     30  O5A       54.8960   50.3530   24.0120 O.3   501  COA501     -0.4371
     31  O6A       53.2780   50.6440   22.0310 O.3   501  COA501     -0.3138
     32  CBP       53.8600   51.0940   19.7210 C.3   501  COA501      0.0645
     33  CCP       53.1190   51.5570   20.9640 C.3   501  COA501      0.1519
     34  CDP       53.2860   51.9030   18.5560 C.3   501  COA501      0.0056
     35  CEP       55.3250   51.4850   19.9350 C.3   501  COA501      0.0056
     36  CAP       53.6180   49.5810   19.5180 C.3   501  COA501      0.2312
     37  OAP       52.2360   49.2850   19.5110 O.3   501  COA501     -0.2131
     38  C9P       54.1690   49.0040   18.2570 C.2   501  COA501      0.2719
     39  O9P       55.5450   48.9150   18.0780 O.2   501  COA501     -0.2706
     40  N8P       53.2950   48.6030   17.3430 N.am  501  COA501     -0.2028
     41  C7P       53.6750   48.0220   16.0590 C.3   501  COA501      0.1248
     42  C6P       54.0770   49.0430   14.9940 C.3   501  COA501      0.1102
     43  C5P       53.0510   50.1530   14.9010 C.2   501  COA501      0.2432
     44  O5P       51.8660   49.8520   14.6760 O.2   501  COA501     -0.2733
     45  N4P       53.4870   51.4120   15.0520 N.am  501  COA501     -0.2044
     46  C3P       52.6210   52.5890   15.1920 C.3   501  COA501      0.1276
     47  C2P       51.9930   53.0940   13.8820 C.3   501  COA501      0.0920
     48  S1P       53.1150   54.0530   12.8550 S.3   501  COA501     -0.0802
@<TRIPOS>BOND
     1    48    47    1
     2    47    46    1
     3    44    43    2
     4    43    42    1
     5    43    45   am
     6    42    41    1
     7    45    46    1
     8    41    40    1
     9    40    38   am
    10    39    38    2
    11    38    36    1
    12    34    32    1
    13    37    36    1
    14    36    32    1
    15    32    35    1
    16    32    33    1
    17    33    31    1
    18    31    28    1
    19    25    24    2
    20    28    29    2
    21    28    30    1
    22    28    27    1
    23    26    24    1
    24    24    27    1
    25    24    23    1
    26     8     9    1
    27     8     5    2
    28     9    10    1
    29     7     6    1
    30    13    12    1
    31    12    14    1
    32    12    11    1
    33     5     6    1
    34     5     4    1
    35    23    22    1
    36     6     1    2
    37    18    16    2
    38    14    15    1
    39    14    20    1
    40    10     4    1
    41    10    11    1
    42    15    16    1
    43    22    20    1
    44     4     3    2
    45    11    21    1
    46    20    21    1
    47    16    17    1
    48    16    19    1
    49     1     2    1
    50     3     2    1
