@<TRIPOS>MOLECULE
1xvy_CIT_A_1.pdb
 13 12 0 0 0
SMALL
GASTEIGER

@<TRIPOS>ATOM
      1  C1         4.7910    8.1030  -13.8870 C.2   510  CIT510      0.3680
      2  O1         3.8440    7.6730  -13.1840 O.co2 510  CIT510     -0.2455
      3  O2         4.6790    9.1300  -14.5870 O.co2 510  CIT510     -0.2455
      4  C2         6.1420    7.4080  -13.9300 C.3   510  CIT510      0.1560
      5  C3         6.4740    6.5760  -12.6970 C.3   510  CIT510      0.2402
      6  O7         6.3800    7.3950  -11.5330 O.3   510  CIT510     -0.2129
      7  C4         7.8690    5.9830  -12.8440 C.3   510  CIT510      0.1560
      8  C5         8.3110    5.2750  -11.5740 C.2   510  CIT510      0.3680
      9  O3         7.6840    4.2570  -11.1760 O.co2 510  CIT510     -0.2455
     10  O4         9.2910    5.7520  -10.9670 O.co2 510  CIT510     -0.2455
     11  C6         5.4510    5.4760  -12.5400 C.2   510  CIT510      0.3927
     12  O5         4.8190    5.4240  -11.4660 O.co2 510  CIT510     -0.2429
     13  O6         5.2720    4.6930  -13.4960 O.co2 510  CIT510     -0.2429
@<TRIPOS>BOND
     1     3     1   ar
     2     4     1    1
     3     4     5    1
     4     1     2   ar
     5    13    11   ar
     6     7     5    1
     7     7     8    1
     8     5    11    1
     9     5     6    1
    10    11    12   ar
    11     8     9   ar
    12     8    10   ar
