@<TRIPOS>MOLECULE
1xw4_ADP_X_1.pdb
 27 29 0 0 0
SMALL
GASTEIGER

@<TRIPOS>ATOM
      1  PB        32.5960  -38.2340    7.6330 P.3   998  ADP998      0.5373
      2  O1B       33.3570  -38.7690    8.8220 O.3   998  ADP998     -0.1143
      3  O2B       31.1750  -37.7650    7.9470 O.3   998  ADP998     -0.1143
      4  O3B       33.3050  -37.1800    6.8140 O.2   998  ADP998     -0.2221
      5  PA        32.7370  -39.6480    5.1310 P.3   998  ADP998      0.2231
      6  O1A       32.5950  -38.3010    4.4360 O.2   998  ADP998     -0.5169
      7  O2A       32.1310  -40.9250    4.5400 O.3   998  ADP998     -0.4370
      8  O3A       32.2690  -39.5170    6.7130 O.3   998  ADP998     -0.2261
      9  O5'       34.3370  -39.9590    5.2010 O.3   998  ADP998     -0.3111
     10  C5'       34.8630  -41.0420    5.9840 C.3   998  ADP998      0.1813
     11  C4'       36.2690  -41.3530    5.4810 C.3   998  ADP998      0.1821
     12  O4'       36.6660  -42.5700    6.1180 O.3   998  ADP998     -0.3135
     13  C3'       36.3390  -41.6150    3.9690 C.3   998  ADP998      0.2184
     14  O3'       37.5210  -41.0080    3.4310 O.3   998  ADP998     -0.2174
     15  C2'       36.3840  -43.1350    3.8190 C.3   998  ADP998      0.2570
     16  O2'       37.1850  -43.6210    2.7340 O.3   998  ADP998     -0.2130
     17  C1'       36.9620  -43.5940    5.1500 C.3   998  ADP998      0.3186
     18  N9        36.3580  -44.8570    5.6260 N.pl3 998  ADP998     -0.1439
     19  C8        37.0750  -45.9000    6.0830 C.3   998  ADP998      0.3377
     20  N7        36.2440  -46.9110    6.4440 N.2   998  ADP998     -0.2095
     21  C5        34.9660  -46.5100    6.2370 C.2   998  ADP998      0.2526
     22  C6        33.6130  -47.0970    6.4370 C.2   998  ADP998      0.4393
     23  N6        33.5160  -48.3450    6.9560 N.pl3 998  ADP998      0.2180
     24  N1        32.5180  -46.3510    6.0920 N.2   998  ADP998      0.0021
     25  C2        32.6460  -45.0940    5.5840 C.3   998  ADP998      0.5254
     26  N3        33.8560  -44.4980    5.3960 N.2   998  ADP998     -0.0055
     27  C4        35.0330  -45.1440    5.6910 C.2   998  ADP998      0.3518
@<TRIPOS>BOND
     1    16    15    1
     2    14    13    1
     3    15    13    1
     4    15    17    1
     5    13    11    1
     6     6     5    2
     7     7     5    1
     8     5     9    1
     9     5     8    1
    10    17    18    1
    11    17    12    1
    12     9    10    1
    13    26    25    1
    14    26    27    2
    15    11    10    1
    16    11    12    1
    17    25    24    1
    18    18    27    1
    19    18    19    1
    20    27    21    1
    21    19    20    1
    22    24    22    2
    23    21    22    1
    24    21    20    2
    25    22    23    1
    26     8     1    1
    27     4     1    2
    28     1     3    1
    29     1     2    1
