@<TRIPOS>MOLECULE
1xw5_GSH_A_1.pdb
 20 19 0 0 0
SMALL
GASTEIGER

@<TRIPOS>ATOM
      1  N1         5.4840   -1.2260   24.6560 N.3   471  GSH471     -0.1208
      2  CA1        4.2820   -1.0300   25.4690 C.3   471  GSH471      0.1948
      3  C1         4.5380   -0.0040   26.6930 C.2   471  GSH471      0.3819
      4  O11        3.6460    0.6400   27.2170 O.co2 471  GSH471     -0.2441
      5  O12        5.7740    0.0430   26.9930 O.co2 471  GSH471     -0.2441
      6  CB1        3.7620   -2.3990   26.0150 C.3   471  GSH471      0.0402
      7  CG1        2.3330   -2.2790   26.6290 C.3   471  GSH471      0.0889
      8  CD1        1.8590   -3.6420   27.1470 C.2   471  GSH471      0.2418
      9  OE1        2.3570   -4.7740   26.7630 O.2   471  GSH471     -0.2733
     10  N2         0.8560   -3.6120   28.0680 N.am  471  GSH471     -0.1968
     11  CA2        0.3150   -4.8940   28.6230 C.3   471  GSH471      0.1843
     12  C2        -1.1970   -4.8760   28.4460 C.2   471  GSH471      0.2627
     13  O2        -1.9290   -5.5840   29.1590 O.2   471  GSH471     -0.2714
     14  CB2        0.6770   -4.9280   30.1380 C.3   471  GSH471      0.0997
     15  SG2        2.4750   -4.8930   30.3340 S.3   471  GSH471     -0.0797
     16  N3        -1.7020   -4.0270   27.5000 N.am  471  GSH471     -0.1917
     17  CA3       -3.1710   -3.9800   27.3570 C.3   471  GSH471      0.2285
     18  C3        -3.5960   -4.3380   25.9450 C.2   471  GSH471      0.3865
     19  O31       -4.8190   -4.3380   25.7150 O.co2 471  GSH471     -0.2437
     20  O32       -2.6980   -4.6190   25.1070 O.co2 471  GSH471     -0.2437
@<TRIPOS>BOND
     1     1     2    1
     2    20    18   ar
     3     2     6    1
     4     2     3    1
     5    19    18   ar
     6    18    17    1
     7     6     7    1
     8     7     8    1
     9     3     5   ar
    10     3     4   ar
    11     9     8    2
    12     8    10   am
    13    17    16    1
    14    16    12   am
    15    10    11    1
    16    12    11    1
    17    12    13    2
    18    11    14    1
    19    14    15    1
