@<TRIPOS>MOLECULE
1xw6_GSH_A_1.pdb
 20 19 0 0 0
SMALL
GASTEIGER

@<TRIPOS>ATOM
      1  N1        -3.7450    9.3850   77.2200 N.3   750  GSH750     -0.1208
      2  CA1       -4.5430    8.3940   76.5060 C.3   750  GSH750      0.1948
      3  C1        -3.7150    7.6750   75.4580 C.2   750  GSH750      0.3819
      4  O11       -2.6480    8.2040   75.1110 O.co2 750  GSH750     -0.2441
      5  O12       -4.1060    6.5800   75.0150 O.co2 750  GSH750     -0.2441
      6  CB1       -5.8390    9.0120   75.9470 C.3   750  GSH750      0.0402
      7  CG1       -6.8980    8.0130   75.5400 C.3   750  GSH750      0.0889
      8  CD1       -8.1190    8.7160   75.0090 C.2   750  GSH750      0.2418
      9  OE1       -8.3970    9.8630   75.3620 O.2   750  GSH750     -0.2733
     10  N2        -8.7990    8.0640   74.0820 N.am  750  GSH750     -0.1968
     11  CA2      -10.0190    8.5520   73.4810 C.3   750  GSH750      0.1843
     12  C2       -11.2140    7.5900   73.5150 C.2   750  GSH750      0.2627
     13  O2       -12.1450    7.7240   72.7320 O.2   750  GSH750     -0.2714
     14  CB2       -9.7300    8.9390   72.0030 C.3   750  GSH750      0.0997
     15  SG2       -8.4600   10.2090   71.6700 S.3   750  GSH750     -0.0797
     16  N3       -11.2090    6.6510   74.4470 N.am  750  GSH750     -0.1917
     17  CA3      -12.2950    5.6930   74.5750 C.3   750  GSH750      0.2285
     18  C3       -13.2640    6.0940   75.6640 C.2   750  GSH750      0.3865
     19  O31      -13.1690    7.2300   76.1650 O.co2 750  GSH750     -0.2437
     20  O32      -14.1290    5.2760   76.0160 O.co2 750  GSH750     -0.2437
@<TRIPOS>BOND
     1    15    14    1
     2    14    11    1
     3    13    12    2
     4    11    12    1
     5    11    10    1
     6    12    16   am
     7    10     8   am
     8    16    17    1
     9    17    18    1
    10     8     9    2
    11     8     7    1
    12     5     3   ar
    13     4     3   ar
    14     3     2    1
    15     7     6    1
    16    18    20   ar
    17    18    19   ar
    18     6     2    1
    19     2     1    1
