@<TRIPOS>MOLECULE
1xwf_NAD_A_1.pdb
 44 48 0 0 0
SMALL
GASTEIGER

@<TRIPOS>ATOM
      1  PA        44.9510   29.4030   46.9040 P.3   432  NAD432      0.2189
      2  O1A       44.9670   29.0430   48.3480 O.3   432  NAD432     -0.4371
      3  O2A       43.9790   30.4920   46.5590 O.2   432  NAD432     -0.5170
      4  O5B       44.5640   28.1610   46.0310 O.3   432  NAD432     -0.3112
      5  C5B       45.2680   26.9360   46.0720 C.3   432  NAD432      0.1813
      6  C4B       44.2550   26.0240   45.4860 C.3   432  NAD432      0.1821
      7  O4B       44.8400   24.7130   45.4190 O.3   432  NAD432     -0.3135
      8  C3B       42.9810   25.8380   46.3470 C.3   432  NAD432      0.2184
      9  O3B       41.7560   26.3430   45.7410 O.3   432  NAD432     -0.2174
     10  C2B       43.0070   24.3220   46.6380 C.3   432  NAD432      0.2570
     11  O2B       41.6670   23.7630   46.6990 O.3   432  NAD432     -0.2130
     12  C1B       43.8700   23.7640   45.4970 C.3   432  NAD432      0.3186
     13  N9A       44.5340   22.4820   45.7910 N.pl3 432  NAD432     -0.1439
     14  C8A       45.2280   22.1280   46.9210 C.3   432  NAD432      0.3377
     15  N7A       45.7120   20.8820   46.8850 N.2   432  NAD432     -0.2095
     16  C5A       45.2930   20.4300   45.6710 C.2   432  NAD432      0.2526
     17  C6A       45.4790   19.1740   45.0300 C.2   432  NAD432      0.4393
     18  N6A       46.1560   18.1590   45.5890 N.pl3 432  NAD432      0.2180
     19  N1A       44.9110   18.9940   43.7310 N.2   432  NAD432      0.0021
     20  C2A       44.2110   20.0480   43.1550 C.3   432  NAD432      0.5254
     21  N3A       44.0060   21.2570   43.7200 N.2   432  NAD432     -0.0055
     22  C4A       44.5680   21.3870   44.9640 C.2   432  NAD432      0.3518
     23  O3        46.4370   29.7810   46.5820 O.3   432  NAD432     -0.2703
     24  PN        46.9400   30.7980   45.4950 P.3   432  NAD432      0.2189
     25  O1N       46.8640   32.2300   45.8720 O.3   432  NAD432     -0.4371
     26  O2N       46.1480   30.4550   44.2500 O.2   432  NAD432     -0.5170
     27  O5D       48.4930   30.3060   45.5020 O.3   432  NAD432     -0.3112
     28  C5D       48.8760   28.9210   45.1570 C.3   432  NAD432      0.1813
     29  C4D       50.3770   28.7950   45.2700 C.3   432  NAD432      0.1799
     30  O4D       51.0550   29.6860   44.3250 O.3   432  NAD432     -0.3327
     31  C3D       50.9680   29.1520   46.6440 C.3   432  NAD432      0.2158
     32  O3D       52.0130   28.2070   46.9650 O.3   432  NAD432     -0.2175
     33  C2D       51.4740   30.5660   46.4530 C.3   432  NAD432      0.2309
     34  O2D       52.4240   31.0450   47.4270 O.3   432  NAD432     -0.2158
     35  C1D       51.9810   30.5040   45.0480 C.3   432  NAD432      0.2263
     36  N1N       52.1460   31.8550   44.4330 N.pl3 432  NAD432     -0.2787
     37  C2N       53.0760   31.9780   43.3610 C.3   432  NAD432      0.1244
     38  C3N       53.3380   33.2630   42.6780 C.2   432  NAD432      0.0544
     39  C7N       54.3450   33.2400   41.5680 C.2   432  NAD432      0.2818
     40  O7N       54.5340   34.3620   41.0220 O.2   432  NAD432     -0.2670
     41  N7N       55.0090   32.1040   41.1710 N.am  432  NAD432     -0.0839
     42  C4N       52.5890   34.4680   43.1370 C.2   432  NAD432      0.0033
     43  C5N       51.5990   34.2680   44.2950 C.2   432  NAD432      0.0157
     44  C6N       51.4310   33.0490   44.8580 C.2   432  NAD432      0.0633
@<TRIPOS>BOND
     1    40    39    2
     2    41    39   am
     3    39    38    1
     4    38    42    2
     5    38    37    1
     6    42    43    1
     7    20    21    1
     8    20    19    1
     9    37    36    1
    10    21    22    2
    11    19    17    2
    12    26    24    2
    13    43    44    2
    14    30    35    1
    15    30    29    1
    16    36    44    1
    17    36    35    1
    18    22    16    1
    19    22    13    1
    20    17    18    1
    21    17    16    1
    22    35    33    1
    23    28    29    1
    24    28    27    1
    25    29    31    1
    26     7     6    1
    27     7    12    1
    28     6     5    1
    29     6     8    1
    30    24    27    1
    31    24    25    1
    32    24    23    1
    33    12    13    1
    34    12    10    1
    35    16    15    2
    36     9     8    1
    37    13    14    1
    38     4     5    1
    39     4     1    1
    40     8    10    1
    41    33    31    1
    42    33    34    1
    43     3     1    2
    44    23     1    1
    45    10    11    1
    46    31    32    1
    47    15    14    1
    48     1     2    1
