@<TRIPOS>MOLECULE
1xwf_ADN_A_1.pdb
 19 21 0 0 0
SMALL
GASTEIGER

@<TRIPOS>ATOM
      1  O5'       58.3120   33.7700   44.9340 O.3   433  ADN433     -0.2176
      2  C5'       56.9380   34.1820   44.9760 C.3   433  ADN433      0.2143
      3  C4'       56.9760   35.7380   44.8440 C.3   433  ADN433      0.1851
      4  O4'       57.4390   36.1930   43.5340 O.3   433  ADN433     -0.3134
      5  C3'       55.6240   36.4370   44.8730 C.3   433  ADN433      0.2186
      6  O3'       55.3000   36.7000   46.2670 O.3   433  ADN433     -0.2174
      7  C2'       55.8160   37.7160   44.0470 C.3   433  ADN433      0.2570
      8  O2'       55.4510   38.9090   44.6980 O.3   433  ADN433     -0.2130
      9  C1'       57.2570   37.5790   43.6690 C.3   433  ADN433      0.3186
     10  N9        57.6130   38.3040   42.4490 N.pl3 433  ADN433     -0.1439
     11  C8        57.1910   37.9740   41.1480 C.3   433  ADN433      0.3377
     12  N7        57.6300   38.7580   40.2130 N.2   433  ADN433     -0.2095
     13  C5        58.4080   39.6850   40.9170 C.2   433  ADN433      0.2526
     14  C6        59.1940   40.8270   40.5120 C.2   433  ADN433      0.4393
     15  N6        59.2880   41.1930   39.2220 N.pl3 433  ADN433      0.2180
     16  N1        59.8650   41.5520   41.5160 N.2   433  ADN433      0.0021
     17  C2        59.7640   41.1710   42.8220 C.3   433  ADN433      0.5254
     18  N3        59.0490   40.1140   43.2980 N.2   433  ADN433     -0.0055
     19  C4        58.4040   39.4190   42.3010 C.2   433  ADN433      0.3518
@<TRIPOS>BOND
     1    15    14    1
     2    12    13    2
     3    12    11    1
     4    14    13    1
     5    14    16    2
     6    13    19    1
     7    11    10    1
     8    16    17    1
     9    19    10    1
    10    19    18    2
    11    10     9    1
    12    17    18    1
    13     4     9    1
    14     4     3    1
    15     9     7    1
    16     7     8    1
    17     7     5    1
    18     3     5    1
    19     3     2    1
    20     5     6    1
    21     1     2    1
