@<TRIPOS>MOLECULE
1xwk_GDN_A_1.pdb
 32 32 0 0 0
SMALL
GASTEIGER

@<TRIPOS>ATOM
      1  N1        41.3470   -4.6250   24.1540 N.3   218  GDN218     -0.1208
      2  CA1       41.4490   -5.6510   23.1150 C.3   218  GDN218      0.1948
      3  C1        42.7260   -5.5280   22.3280 C.2   218  GDN218      0.3819
      4  O11       43.1790   -4.3840   22.1210 O.co2 218  GDN218     -0.2441
      5  O12       43.2780   -6.5790   21.9220 O.co2 218  GDN218     -0.2441
      6  CB1       40.1930   -5.6090   22.2510 C.3   218  GDN218      0.0402
      7  CG1       40.0100   -6.8320   21.3760 C.3   218  GDN218      0.0889
      8  CD1       38.7410   -6.7630   20.5400 C.2   218  GDN218      0.2418
      9  OE1       37.8000   -6.0120   20.8370 O.2   218  GDN218     -0.2733
     10  N2        38.7140   -7.5600   19.4910 N.am  218  GDN218     -0.1968
     11  CA2       37.5790   -7.6090   18.6180 C.3   218  GDN218      0.1838
     12  C2        37.2140   -9.0440   18.3610 C.2   218  GDN218      0.2626
     13  O2        36.6090   -9.3430   17.3520 O.2   218  GDN218     -0.2714
     14  CB2       37.5270   -6.8480   17.3130 C.3   218  GDN218      0.0932
     15  SG2       37.9140   -5.0800   17.5080 S.3   218  GDN218     -0.1097
     16  N3        37.5810   -9.9340   19.2740 N.am  218  GDN218     -0.1917
     17  CA3       37.2940  -11.3660   19.1620 C.3   218  GDN218      0.2285
     18  C3        36.3370  -11.8040   20.2450 C.2   218  GDN218      0.3865
     19  O31       36.1660  -13.0200   20.4550 O.co2 218  GDN218     -0.2437
     20  O32       35.7450  -10.9220   20.8900 O.co2 218  GDN218     -0.2437
     21  C1'       36.3860   -4.0940   17.6400 C.ar  218  GDN218      0.0478
     22  C2'       36.4150   -2.6860   17.4700 C.ar  218  GDN218      0.1501
     23  C3'       35.2300   -1.9370   17.5660 C.ar  218  GDN218      0.0486
     24  C4'       34.0080   -2.5700   17.8320 C.ar  218  GDN218      0.1446
     25  C5'       33.9660   -3.9730   18.0030 C.ar  218  GDN218      0.0247
     26  C6'       35.1510   -4.7340   17.9060 C.ar  218  GDN218      0.0095
     27  N2'       37.6780   -1.9940   17.1840 N.pl3 218  GDN218      0.0582
     28  O2A       37.8220   -0.8300   17.5230 O.2   218  GDN218     -0.1261
     29  O2B       38.5700   -2.5830   16.6180 O.2   218  GDN218     -0.1261
     30  N4'       32.8020   -1.7800   17.9380 N.pl3 218  GDN218      0.0577
     31  O4A       31.7190   -2.2850   18.1670 O.2   218  GDN218     -0.1261
     32  O4B       32.8930   -0.5710   17.8000 O.2   218  GDN218     -0.1261
@<TRIPOS>BOND
     1    29    27    2
     2    27    22    1
     3    27    28    2
     4    14    15    1
     5    14    11    1
     6    13    12    2
     7    22    23   ar
     8    22    21   ar
     9    15    21    1
    10    23    24   ar
    11    21    26   ar
    12    32    30    2
    13    24    30    1
    14    24    25   ar
    15    26    25   ar
    16    30    31    2
    17    12    11    1
    18    12    16   am
    19    11    10    1
    20    17    16    1
    21    17    18    1
    22    10     8   am
    23    18    19   ar
    24    18    20   ar
    25     8     9    2
    26     8     7    1
    27     7     6    1
    28     5     3   ar
    29     4     3   ar
    30     6     2    1
    31     3     2    1
    32     2     1    1
