@<TRIPOS>MOLECULE
1xwq_XYP_A_1.pdb
 10 10 0 0 0
SMALL
GASTEIGER

@<TRIPOS>ATOM
      1  O4A      -10.3250   -0.1150    9.0990 O.3   500  XYP500     -0.1869
      2  C1B      -10.9770    0.6540   10.0930 C.3   500  XYP500      0.3024
      3  C2B       -9.9850    1.4360   10.9290 C.3   500  XYP500      0.2434
      4  C3B       -9.1680    0.4810   11.8140 C.3   500  XYP500      0.2199
      5  C4B      -10.0760   -0.4730   12.6000 C.3   500  XYP500      0.2143
      6  C5B      -11.0910   -1.1320   11.6620 C.3   500  XYP500      0.1804
      7  O2B       -9.1310    2.1850   10.0850 O.3   500  XYP500     -0.2148
      8  O3B       -8.3310    1.2110   12.6870 O.3   500  XYP500     -0.2174
      9  O4B       -9.3200   -1.4990   13.2110 O.3   500  XYP500     -0.2176
     10  O5B      -11.7580   -0.1510   10.8750 O.3   500  XYP500     -0.3237
@<TRIPOS>BOND
     1     1     2    1
     2     7     3    1
     3     2    10    1
     4     2     3    1
     5    10     6    1
     6     3     4    1
     7     6     5    1
     8     4     5    1
     9     4     8    1
    10     5     9    1
