@<TRIPOS>MOLECULE
1xws_BI1_A_1.pdb
 31 35 0 0 0
SMALL
GASTEIGER

@<TRIPOS>ATOM
      1  CBD      -14.9030  -36.4870    5.8420 C.3   1001  BI11001     0.0897
      2  NBC      -15.8660  -36.4870    4.7470 N.3   1001  BI11001    -0.2703
      3  CBE      -17.2180  -36.9790    4.9630 C.3   1001  BI11001     0.0897
      4  CBB      -15.3890  -35.9230    3.4860 C.3   1001  BI11001     0.0742
      5  CBA      -16.4520  -36.0540    2.4070 C.3   1001  BI11001     0.0418
      6  CAY      -15.6560  -36.0150    1.1240 C.3   1001  BI11001     0.1075
      7  NAH      -16.5110  -36.1470   -0.0400 N.ar  1001  BI11001    -0.3260
      8  CAW      -17.4560  -37.1270   -0.1720 C.ar  1001  BI11001     0.0766
      9  CAE      -16.4620  -35.3690   -1.1300 C.ar  1001  BI11001     0.0599
     10  CAF      -15.6680  -34.2780   -1.4930 C.ar  1001  BI11001     0.0172
     11  CAA      -15.8460  -33.6620   -2.7160 C.ar  1001  BI11001     0.0015
     12  CAB      -16.8130  -34.1320   -3.6210 C.ar  1001  BI11001     0.0001
     13  CAC      -17.6160  -35.2240   -3.2780 C.ar  1001  BI11001     0.0015
     14  CAD      -17.4030  -35.8500   -2.0450 C.ar  1001  BI11001     0.0180
     15  CAG      -18.0360  -36.9000   -1.3980 C.ar  1001  BI11001     0.0313
     16  CAI      -19.0800  -37.8430   -1.9360 C.2   1001  BI11001     0.1085
     17  CAT      -19.1420  -38.3480   -3.3350 C.1   1001  BI11001     0.2158
     18  OAZ      -18.4160  -37.8970   -4.2920 O.2   1001  BI11001    -0.2086
     19  NAU      -20.1060  -39.2700   -3.5490 N.2   1001  BI11001    -0.2576
     20  CAV      -20.6570  -39.4950   -2.3480 C.1   1001  BI11001     0.2155
     21  OAX      -21.6020  -40.3400   -2.2080 O.2   1001  BI11001    -0.2086
     22  CAJ      -20.0890  -38.6740   -1.2550 C.2   1001  BI11001     0.1056
     23  CAK      -20.5040  -38.7500    0.1830 C.2   1001  BI11001     0.0190
     24  CAM      -20.4300  -37.7310    1.1540 C.3   1001  BI11001     0.0866
     25  CAP      -20.0080  -36.3960    1.1200 C.2   1001  BI11001    -0.0160
     26  CAQ      -20.0660  -35.6470    2.2900 C.2   1001  BI11001    -0.0038
     27  CAR      -20.5500  -36.2460    3.4540 C.2   1001  BI11001     0.0009
     28  CAS      -20.9830  -37.5830    3.4910 C.2   1001  BI11001     0.0153
     29  CAN      -20.9090  -38.3470    2.3110 C.2   1001  BI11001     0.0668
     30  NAO      -21.2560  -39.6430    2.0190 N.2   1001  BI11001    -0.2478
     31  CAL      -21.0250  -39.9310    0.7090 C.2   1001  BI11001     0.0956
@<TRIPOS>BOND
     1    18    17    2
     2    12    13   ar
     3    12    11   ar
     4    19    17    2
     5    19    20    2
     6    17    16    1
     7    13    14   ar
     8    11    10   ar
     9    20    21    2
    10    20    22    1
    11    14    15   ar
    12    14     9   ar
    13    16    15    1
    14    16    22    2
    15    10     9   ar
    16    15     8   ar
    17    22    23    1
    18     9     7   ar
    19     8     7   ar
    20     7     6    1
    21    23    31    2
    22    23    24    1
    23    31    30    1
    24    25    24    1
    25    25    26    2
    26     6     5    1
    27    24    29    1
    28    30    29    2
    29    26    27    1
    30    29    28    1
    31     5     4    1
    32    27    28    2
    33     4     2    1
    34     2     3    1
    35     2     1    1
