@<TRIPOS>MOLECULE
1xx6_ADP_A_1.pdb
 27 29 0 0 0
SMALL
GASTEIGER

@<TRIPOS>ATOM
      1  PB        10.5850   23.1630   81.5460 P.3   301  ADP301      0.5373
      2  O1B       10.1000   22.1330   82.5050 O.3   301  ADP301     -0.1143
      3  O2B       12.0670   23.4090   81.6330 O.3   301  ADP301     -0.1143
      4  O3B       10.0800   22.8540   80.0920 O.2   301  ADP301     -0.2221
      5  PA         8.8770   25.4890   81.3430 P.3   301  ADP301      0.2231
      6  O1A        9.3760   25.9030   79.9780 O.2   301  ADP301     -0.5169
      7  O2A        7.5310   24.8500   81.3430 O.3   301  ADP301     -0.4370
      8  O3A        9.9050   24.5210   82.0390 O.3   301  ADP301     -0.2261
      9  O5'        9.0150   26.8330   82.1890 O.3   301  ADP301     -0.3111
     10  C5'        8.6590   26.8570   83.5910 C.3   301  ADP301      0.1813
     11  C4'        8.0090   28.1380   84.1160 C.3   301  ADP301      0.1821
     12  O4'        7.3620   27.7350   85.3490 O.3   301  ADP301     -0.3135
     13  C3'        8.9480   29.2880   84.5570 C.3   301  ADP301      0.2184
     14  O3'        9.1140   30.2190   83.4620 O.3   301  ADP301     -0.2174
     15  C2'        8.2450   29.8620   85.8000 C.3   301  ADP301      0.2570
     16  O2'        7.3220   30.9250   85.4740 O.3   301  ADP301     -0.2130
     17  C1'        7.4640   28.6900   86.3860 C.3   301  ADP301      0.3186
     18  N9         8.1210   27.9890   87.5640 N.pl3 301  ADP301     -0.1439
     19  C8         7.4660   27.2010   88.4600 C.3   301  ADP301      0.3377
     20  N7         8.2620   26.6880   89.4080 N.2   301  ADP301     -0.2095
     21  C5         9.4940   27.1770   89.1000 C.2   301  ADP301      0.2526
     22  C6        10.7670   26.9840   89.7590 C.2   301  ADP301      0.4393
     23  N6        10.9780   26.2710   90.8130 N.pl3 301  ADP301      0.2180
     24  N1        11.8190   27.6560   89.1450 N.2   301  ADP301      0.0021
     25  C2        11.6660   28.4470   87.9980 C.3   301  ADP301      0.5254
     26  N3        10.5020   28.6290   87.3870 N.2   301  ADP301     -0.0055
     27  C4         9.4490   27.9890   87.9610 C.2   301  ADP301      0.3518
@<TRIPOS>BOND
     1     6     5    2
     2     4     1    2
     3     5     7    1
     4     5     8    1
     5     5     9    1
     6     1     3    1
     7     1     8    1
     8     1     2    1
     9     9    10    1
    10    14    13    1
    11    10    11    1
    12    11    13    1
    13    11    12    1
    14    13    15    1
    15    12    17    1
    16    16    15    1
    17    15    17    1
    18    17    18    1
    19    26    27    2
    20    26    25    1
    21    18    27    1
    22    18    19    1
    23    27    21    1
    24    25    24    1
    25    19    20    1
    26    21    20    2
    27    21    22    1
    28    24    22    2
    29    22    23    1
