@<TRIPOS>MOLECULE
1xxa_ARG_A_1.pdb
 12 11 0 0 0
SMALL
GASTEIGER

@<TRIPOS>ATOM
      1  N         22.9790   74.9470   22.1980 N.3     1  ARG1       -0.1208
      2  CA        21.9940   73.8650   22.3390 C.3     1  ARG1        0.1944
      3  C         20.6520   74.5190   22.6180 C.2     1  ARG1        0.3819
      4  O         19.6300   73.8240   22.4610 O.co2   1  ARG1       -0.2441
      5  CB        22.4050   72.8990   23.4560 C.3     1  ARG1        0.0343
      6  CG        22.8320   73.5360   24.7610 C.3     1  ARG1        0.0490
      7  CD        23.4190   72.4780   25.6920 C.3     1  ARG1        0.2205
      8  NE        23.3110   72.8510   27.1050 N.pl3   1  ARG1       -0.0865
      9  CZ        22.3700   72.3950   27.9380 C.cat   1  ARG1        0.5346
     10  NH1       21.4540   71.5480   27.5030 N.pl3   1  ARG1        0.1354
     11  NH2       22.3360   72.7920   29.2040 N.pl3   1  ARG1        0.1354
     12  OXT       20.6430   75.7380   22.9410 O.co2   1  ARG1       -0.2441
@<TRIPOS>BOND
     1     1     2    1
     2     2     3    1
     3     2     5    1
     4     4     3   ar
     5     3    12   ar
     6     5     6    1
     7     6     7    1
     8     7     8    1
     9     8     9    2
    10    10     9    1
    11     9    11    1
