@<TRIPOS>MOLECULE
1xxb_ARG_A_1.pdb
 12 11 0 0 0
SMALL
GASTEIGER

@<TRIPOS>ATOM
      1  N         23.1550   76.5700   22.4700 N.3     1  ARG1       -0.1208
      2  CA        22.5100   75.2570   22.2800 C.3     1  ARG1        0.1944
      3  C         21.0370   75.4250   22.4950 C.2     1  ARG1        0.3819
      4  O         20.3090   74.4300   22.3340 O.co2   1  ARG1       -0.2441
      5  CB        23.0590   74.2510   23.2840 C.3     1  ARG1        0.0343
      6  CG        22.9380   74.6640   24.7260 C.3     1  ARG1        0.0490
      7  CD        23.4540   73.5690   25.6360 C.3     1  ARG1        0.2205
      8  NE        23.5600   74.0410   27.0060 N.pl3   1  ARG1       -0.0865
      9  CZ        22.6400   73.8470   27.9400 C.cat   1  ARG1        0.5346
     10  NH1       21.5430   73.1690   27.6590 N.pl3   1  ARG1        0.1354
     11  NH2       22.8020   74.3670   29.1480 N.pl3   1  ARG1        0.1354
     12  OXT       20.6450   76.5500   22.8560 O.co2   1  ARG1       -0.2441
@<TRIPOS>BOND
     1     2     1    1
     2     2     3    1
     3     2     5    1
     4     4     3   ar
     5     3    12   ar
     6     5     6    1
     7     6     7    1
     8     7     8    1
     9     8     9    2
    10    10     9    1
    11     9    11    1
