@<TRIPOS>MOLECULE
1xxh_AGS_B_1.pdb
 31 33 0 0 0
SMALL
GASTEIGER

@<TRIPOS>ATOM
      1  PG        15.7550   38.0760   39.4740 P.3   802  AGS802      0.4340
      2  S1G       16.8860   36.7810   39.4050 S.3   802  AGS802      0.0416
      3  O2G       16.1610   39.2450   38.6370 O.2   802  AGS802     -0.2423
      4  O3G       15.6160   38.5420   40.9580 O.3   802  AGS802     -0.1305
      5  PB        13.2770   36.3460   39.1680 P.3   802  AGS802      0.2262
      6  O1B       13.4280   35.2030   38.1970 O.2   802  AGS802     -0.5168
      7  O2B       13.3490   36.0750   40.6450 O.3   802  AGS802     -0.4369
      8  O3B       14.3210   37.5130   38.8480 O.3   802  AGS802     -0.2405
      9  PA        10.6740   37.5240   39.8270 P.3   802  AGS802      0.2189
     10  O1A        9.9120   36.2710   40.1770 O.2   802  AGS802     -0.5170
     11  O2A       11.1950   38.3130   41.0080 O.3   802  AGS802     -0.4371
     12  O3A       11.8950   37.0750   38.8810 O.3   802  AGS802     -0.2701
     13  O5'        9.8210   38.4050   38.7650 O.3   802  AGS802     -0.3112
     14  C5'        9.8330   39.8550   38.9370 C.3   802  AGS802      0.1813
     15  C4'        8.5390   40.4720   38.4020 C.3   802  AGS802      0.1821
     16  O4'        8.4170   40.0260   37.0010 O.3   802  AGS802     -0.3135
     17  C3'        7.2470   39.9510   39.0880 C.3   802  AGS802      0.2184
     18  O3'        6.8020   40.7650   40.1620 O.3   802  AGS802     -0.2174
     19  C2'        6.2470   39.8120   37.9380 C.3   802  AGS802      0.2570
     20  O2'        5.3900   40.9180   37.7630 O.3   802  AGS802     -0.2130
     21  C1'        7.0740   39.5800   36.7200 C.3   802  AGS802      0.3186
     22  N9         7.1570   38.1130   36.3110 N.pl3 802  AGS802     -0.1439
     23  C8         8.3720   37.4560   36.2240 C.3   802  AGS802      0.3377
     24  N7         8.3180   36.1900   35.8570 N.2   802  AGS802     -0.2095
     25  C5         6.9810   35.9620   35.6840 C.2   802  AGS802      0.2526
     26  C6         6.2360   34.7960   35.2910 C.2   802  AGS802      0.4393
     27  N6         6.8150   33.6120   34.9920 N.pl3 802  AGS802      0.2180
     28  N1         4.8630   34.9150   35.2150 N.2   802  AGS802      0.0021
     29  C2         4.2610   36.1150   35.5130 C.3   802  AGS802      0.5254
     30  N3         4.8680   37.2780   35.8950 N.2   802  AGS802     -0.0055
     31  C4         6.2330   37.1440   35.9660 C.2   802  AGS802      0.3518
@<TRIPOS>BOND
     1    27    26    1
     2    28    26    2
     3    28    29    1
     4    26    25    1
     5    29    30    1
     6    25    24    2
     7    25    31    1
     8    24    23    1
     9    30    31    2
    10    31    22    1
    11    23    22    1
    12    22    21    1
    13    21    16    1
    14    21    19    1
    15    16    15    1
    16    20    19    1
    17    19    17    1
    18     6     5    2
    19    15    14    1
    20    15    17    1
    21     3     1    2
    22    13    14    1
    23    13     9    1
    24     8     5    1
    25     8     1    1
    26    12     5    1
    27    12     9    1
    28    17    18    1
    29     5     7    1
    30     2     1    1
    31     1     4    1
    32     9    10    2
    33     9    11    1
