@<TRIPOS>MOLECULE
1xxi_ADP_B_1.pdb
 27 29 0 0 0
SMALL
GASTEIGER

@<TRIPOS>ATOM
      1  PB        14.0130   36.4300   39.0810 P.3   802  ADP802      0.5373
      2  O1B       14.2870   36.2800   40.5210 O.3   802  ADP802     -0.1143
      3  O2B       14.3450   35.2600   38.1650 O.2   802  ADP802     -0.2221
      4  O3B       14.7630   37.7260   38.5990 O.3   802  ADP802     -0.1143
      5  PA        11.4920   37.6700   39.7110 P.3   802  ADP802      0.2231
      6  O1A       10.4400   36.7160   40.1410 O.2   802  ADP802     -0.5169
      7  O2A       12.1020   38.3990   40.8730 O.3   802  ADP802     -0.4370
      8  O3A       12.5400   36.7660   38.9110 O.3   802  ADP802     -0.2261
      9  O5'       10.9620   38.6240   38.4970 O.3   802  ADP802     -0.3111
     10  C5'       10.6550   40.0380   38.8030 C.3   802  ADP802      0.1813
     11  C4'        9.3110   40.5200   38.1950 C.3   802  ADP802      0.1821
     12  O4'        9.2490   40.0000   36.8080 O.3   802  ADP802     -0.3135
     13  C3'        8.0560   39.9220   38.8660 C.3   802  ADP802      0.2184
     14  O3'        7.5800   40.6280   39.9750 O.3   802  ADP802     -0.2174
     15  C2'        7.0820   39.7920   37.7030 C.3   802  ADP802      0.2570
     16  O2'        6.2300   40.9090   37.4690 O.3   802  ADP802     -0.2130
     17  C1'        7.9170   39.5300   36.5240 C.3   802  ADP802      0.3186
     18  N9         8.0170   38.0420   36.1660 N.pl3 802  ADP802     -0.1439
     19  C8         9.2280   37.3830   36.1130 C.3   802  ADP802      0.3377
     20  N7         9.1940   36.1180   35.7890 N.2   802  ADP802     -0.2095
     21  C5         7.8810   35.8730   35.6130 C.2   802  ADP802      0.2526
     22  C6         7.1240   34.6800   35.2360 C.2   802  ADP802      0.4393
     23  N6         7.6820   33.4730   34.9860 N.pl3 802  ADP802      0.2180
     24  N1         5.7490   34.7950   35.1460 N.2   802  ADP802      0.0021
     25  C2         5.1230   36.0080   35.3910 C.3   802  ADP802      0.5254
     26  N3         5.7300   37.1840   35.7420 N.2   802  ADP802     -0.0055
     27  C4         7.1120   37.0660   35.8300 C.2   802  ADP802      0.3518
@<TRIPOS>BOND
     1    23    22    1
     2    24    22    2
     3    24    25    1
     4    22    21    1
     5    25    26    1
     6    21    20    2
     7    21    27    1
     8    26    27    2
     9    20    19    1
    10    27    18    1
    11    19    18    1
    12    18    17    1
    13    17    12    1
    14    17    15    1
    15    12    11    1
    16    16    15    1
    17    15    13    1
    18     3     1    2
    19    11    10    1
    20    11    13    1
    21     9    10    1
    22     9     5    1
    23     4     1    1
    24    13    14    1
    25     8     1    1
    26     8     5    1
    27     1     2    1
    28     5     6    2
    29     5     7    1
