@<TRIPOS>MOLECULE
1xxj_UNC_A_1.pdb
 12 12 0 0 0
SMALL
GASTEIGER

@<TRIPOS>ATOM
      1  OD2       25.0750   23.1760    6.0810 O.2   999  UNC999     -0.1234
      2  N4        24.7740   22.5120    7.0940 N.pl3 999  UNC999      0.0914
      3  OD1       23.6260   22.4350    7.5900 O.2   999  UNC999     -0.1234
      4  C4        25.9200   21.8920    7.7370 C.2   999  UNC999      0.3187
      5  N3        27.1970   21.9640    7.1990 N.2   999  UNC999     -0.2808
      6  C2        28.2550   21.2890    7.9850 C.1   999  UNC999      0.3672
      7  O2        29.4630   21.2680    7.6350 O.2   999  UNC999     -0.1744
      8  C5        25.5170   21.2570    8.9310 C.2   999  UNC999      0.2508
      9  N5        24.3020   21.2200    9.3790 N.2   999  UNC999     -0.1297
     10  C6        26.5560   20.5640    9.7560 C.1   999  UNC999      0.2414
     11  O6        26.3120   19.9690   10.8200 O.2   999  UNC999     -0.2068
     12  N1        27.8670   20.6460    9.1950 N.2   999  UNC999     -0.2310
@<TRIPOS>BOND
     1     1     2    2
     2     2     3    2
     3     2     4    1
     4     5     4    2
     5     5     6    2
     6     7     6    2
     7     4     8    1
     8     6    12    2
     9     8     9    2
    10     8    10    1
    11    12    10    2
    12    10    11    2
