@<TRIPOS>MOLECULE
1xxp_TYR_D_1.pdb
 16 16 0 0 0
SMALL
GASTEIGER

@<TRIPOS>ATOM
      1  N         -1.1800   35.7390   10.6250 N.3   105  TYR105     -0.1241
      2  CA         0.0190   35.3520   11.4260 C.3   105  TYR105      0.1605
      3  C          1.2900   35.1880   10.5920 C.2   105  TYR105      0.2264
      4  O          1.5340   34.0640   10.0740 O.2   105  TYR105     -0.2867
      5  CB        -0.2570   34.0600   12.2020 C.3   105  TYR105      0.0534
      6  CG        -1.3860   34.1890   13.1940 C.ar  105  TYR105     -0.0201
      7  CD1       -2.6970   33.8580   12.8400 C.ar  105  TYR105     -0.0011
      8  CD2       -1.1490   34.6680   14.4830 C.ar  105  TYR105     -0.0011
      9  CE1       -3.7460   34.0010   13.7500 C.ar  105  TYR105      0.0371
     10  CE2       -2.1870   34.8180   15.3990 C.ar  105  TYR105      0.0371
     11  CZ        -3.4830   34.4840   15.0260 C.ar  105  TYR105      0.1490
     12  OH        -4.5100   34.6470   15.9250 O.3   105  TYR105     -0.3998
     13  P         -4.8240   33.6030   17.1290 P.3   105  TYR105      0.5887
     14  O1P       -3.5580   33.2600   17.7790 O.3   105  TYR105     -0.1039
     15  O2P       -5.4590   32.3910   16.5810 O.2   105  TYR105     -0.2114
     16  O3P       -5.7060   34.2190   18.1440 O.3   105  TYR105     -0.1039
@<TRIPOS>BOND
     1     4     3    2
     2     3     2    1
     3     1     2    1
     4     2     5    1
     5     5     6    1
     6     7     6   ar
     7     7     9   ar
     8     6     8   ar
     9     9    11   ar
    10     8    10   ar
    11    11    10   ar
    12    11    12    1
    13    12    13    1
    14    15    13    2
    15    13    14    1
    16    13    16    1
