@<TRIPOS>MOLECULE
1xxp_III_C_1.pdb
 47 47 0 0 0
SMALL
GASTEIGER

@<TRIPOS>ATOM
      1  N         -9.9290    1.4920   36.5470 N.3   102  ALA102     -0.1231
      2  CA        -9.5430    1.8840   35.1530 C.3   102  ALA102      0.1694
      3  C        -10.3060    3.1240   34.6670 C.2   102  ALA102      0.2592
      4  O         -9.8150    3.8890   33.8320 O.2   102  ALA102     -0.2718
      5  CB        -9.7850    0.7160   34.2030 C.3   102  ALA102      0.0304
      6  N        -11.5230    3.2970   35.1720 N.am  103  ASP103     -0.1960
      7  CA       -12.3500    4.4580   34.8390 C.3   103  ASP103      0.1840
      8  C        -12.5180    5.2320   36.1460 C.2   103  ASP103      0.2622
      9  O        -13.5560    5.8400   36.4120 O.2   103  ASP103     -0.2715
     10  CB       -13.7210    4.0220   34.3110 C.3   103  ASP103      0.1450
     11  CG       -13.7370    3.8280   32.8070 C.2   103  ASP103      0.3671
     12  OD1      -14.7950    3.4230   32.2660 O.co2 103  ASP103     -0.2456
     13  OD2      -12.6950    4.0860   32.1690 O.co2 103  ASP103     -0.2456
     14  N        -11.4590    5.1830   36.9480 N.am  104  GLU104     -0.1963
     15  CA       -11.3880    5.8140   38.2570 C.3   104  GLU104      0.1733
     16  C        -11.9500    7.2310   38.3280 C.2   104  GLU104      0.2616
     17  O        -12.6860    7.5640   39.2510 O.2   104  GLU104     -0.2715
     18  CB        -9.9320    5.8230   38.7270 C.3   104  GLU104      0.0429
     19  CG        -9.7420    5.8470   40.2320 C.3   104  GLU104      0.1163
     20  CD        -8.3050    6.1440   40.6440 C.2   104  GLU104      0.3649
     21  OE1       -7.3670    5.5210   40.1010 O.co2 104  GLU104     -0.2457
     22  OE2       -8.1170    7.0050   41.5250 O.co2 104  GLU104     -0.2457
     23  N        -11.6110    8.0630   37.3520 N.am  105  TYR105     -0.1960
     24  CA       -12.0610    9.4510   37.3460 C.3   105  TYR105      0.1771
     25  C        -13.2250    9.7350   36.4020 C.2   105  TYR105      0.2619
     26  O        -13.4240   10.8750   35.9900 O.2   105  TYR105     -0.2715
     27  CB       -10.9000   10.3540   36.9460 C.3   105  TYR105      0.0574
     28  CG        -9.6190   10.0960   37.6870 C.ar  105  TYR105     -0.0198
     29  CD1       -9.5310   10.3080   39.0560 C.ar  105  TYR105     -0.0011
     30  CD2       -8.4830    9.6780   37.0050 C.ar  105  TYR105     -0.0011
     31  CE1       -8.3310   10.1140   39.7280 C.ar  105  TYR105      0.0371
     32  CE2       -7.2800    9.4830   37.6600 C.ar  105  TYR105      0.0371
     33  CZ        -7.2020    9.7010   39.0180 C.ar  105  TYR105      0.1490
     34  OH        -6.0020    9.5190   39.6700 O.3   105  TYR105     -0.3998
     35  P         -4.5700   10.0770   39.1490 P.3   105  TYR105      0.5887
     36  O1P       -3.6340   10.0170   40.2640 O.3   105  TYR105     -0.1039
     37  O2P       -4.6990   11.4700   38.6830 O.3   105  TYR105     -0.1039
     38  O3P       -4.0130    9.2120   38.0780 O.2   105  TYR105     -0.2114
     39  N        -13.9960    8.7160   36.0540 N.am  106  LEU106     -0.1963
     40  CA       -15.1040    8.9240   35.1310 C.3   106  LEU106      0.1744
     41  C        -16.4420    9.0990   35.8590 C.2   106  LEU106      0.2806
     42  O        -16.5340    8.7690   37.0650 O.2   106  LEU106     -0.2698
     43  CB       -15.1790    7.7430   34.1520 C.3   106  LEU106      0.0312
     44  CG       -15.4630    8.0120   32.6680 C.3   106  LEU106      0.0022
     45  CD1      -14.3400    8.8550   32.0790 C.3   106  LEU106      0.0001
     46  CD2      -15.5840    6.6960   31.9170 C.3   106  LEU106      0.0001
     47  N        -17.3930    9.5630   35.1990 N.am  107  NH2107     -0.0863
@<TRIPOS>BOND
     1    46    44    1
     2    45    44    1
     3    13    11   ar
     4    12    11   ar
     5    44    43    1
     6    11    10    1
     7     4     3    2
     8    43    40    1
     9     5     2    1
    10    10     7    1
    11     3     2    1
    12     3     6   am
    13     7     6    1
    14     7     8    1
    15    40    41    1
    16    40    39    1
    17     2     1    1
    18    47    41   am
    19    41    42    2
    20    26    25    2
    21    39    25   am
    22     8     9    2
    23     8    14   am
    24    25    24    1
    25    27    24    1
    26    27    28    1
    27    14    15    1
    28    30    32   ar
    29    30    28   ar
    30    24    23    1
    31    23    16   am
    32    32    33   ar
    33    28    29   ar
    34    38    35    2
    35    15    16    1
    36    15    18    1
    37    16    17    2
    38    37    35    1
    39    18    19    1
    40    33    34    1
    41    33    31   ar
    42    29    31   ar
    43    35    34    1
    44    35    36    1
    45    21    20   ar
    46    19    20    1
    47    20    22   ar
