@<TRIPOS>MOLECULE
1xxr_MAN_B_1.pdb
 12 12 0 0 0
SMALL
GASTEIGER

@<TRIPOS>ATOM
      1  C1       -39.5880  -11.3500  -45.8640 C.3   725  MAN725      0.3024
      2  C2       -38.1530  -10.9480  -45.4850 C.3   725  MAN725      0.2434
      3  C3       -37.1490  -11.6440  -46.4130 C.3   725  MAN725      0.2199
      4  C4       -37.3880  -13.1580  -46.3880 C.3   725  MAN725      0.2144
      5  C5       -38.8440  -13.4490  -46.7590 C.3   725  MAN725      0.1836
      6  C6       -39.1760  -14.9300  -46.7090 C.3   725  MAN725      0.2142
      7  O1       -39.8810  -10.9130  -47.1490 O.3   725  MAN725     -0.1869
      8  O2       -37.8950  -11.3220  -44.1360 O.3   725  MAN725     -0.2148
      9  O3       -35.8200  -11.3570  -45.9970 O.3   725  MAN725     -0.2174
     10  O4       -36.5190  -13.7980  -47.3080 O.3   725  MAN725     -0.2176
     11  O5       -39.7290  -12.7800  -45.8330 O.3   725  MAN725     -0.3236
     12  O6       -39.0240  -15.4420  -45.3940 O.3   725  MAN725     -0.2176
@<TRIPOS>BOND
     1    10     4    1
     2     7     1    1
     3     5     6    1
     4     5     4    1
     5     5    11    1
     6     6    12    1
     7     3     4    1
     8     3     9    1
     9     3     2    1
    10     1    11    1
    11     1     2    1
    12     2     8    1
