@<TRIPOS>MOLECULE
1xxs_STE_A_1.pdb
 20 19 0 0 0
SMALL
GASTEIGER

@<TRIPOS>ATOM
      1  C1        26.6840   37.3970   23.9870 C.2   201  STE201      0.3649
      2  O1        26.7260   38.6080   24.3250 O.co2 201  STE201     -0.2457
      3  O2        27.5060   36.5750   24.5710 O.co2 201  STE201     -0.2457
      4  C2        25.7670   36.7800   22.9310 C.3   201  STE201      0.1141
      5  C3        25.8770   35.2680   22.9750 C.3   201  STE201      0.0118
      6  C4        24.9480   34.7330   24.0440 C.3   201  STE201      0.0006
      7  C5        24.9740   33.2340   24.1210 C.3   201  STE201      0.0000
      8  C6        24.2260   32.8570   25.3710 C.3   201  STE201      0.0000
      9  C7        23.6110   31.4870   25.3910 C.3   201  STE201      0.0000
     10  C8        22.3120   31.4780   26.2120 C.3   201  STE201      0.0000
     11  C9        22.5340   30.8350   27.5600 C.3   201  STE201      0.0000
     12  C10       21.3260   31.0530   28.4820 C.3   201  STE201      0.0000
     13  C11       20.2580   30.0080   28.2160 C.3   201  STE201      0.0000
     14  C12       19.6300   29.4920   29.5000 C.3   201  STE201      0.0000
     15  C13       19.0330   30.6420   30.3060 C.3   201  STE201      0.0000
     16  C14       18.2370   30.2200   31.5260 C.3   201  STE201      0.0000
     17  C15       17.8310   31.5150   32.2290 C.3   201  STE201      0.0000
     18  C16       18.3390   31.5870   33.6620 C.3   201  STE201      0.0000
     19  C17       17.7760   32.8110   34.4190 C.3   201  STE201      0.0000
     20  C18       18.5110   34.1250   34.1430 C.3   201  STE201      0.0000
@<TRIPOS>BOND
     1     4     5    1
     2     4     1    1
     3     5     6    1
     4     1     2   ar
     5     1     3   ar
     6     6     7    1
     7     7     8    1
     8     8     9    1
     9     9    10    1
    10    10    11    1
    11    11    12    1
    12    13    12    1
    13    13    14    1
    14    14    15    1
    15    15    16    1
    16    16    17    1
    17    17    18    1
    18    18    19    1
    19    20    19    1
