@<TRIPOS>MOLECULE
1xxt_HEM_A_1.pdb
 43 50 0 0 0
SMALL
GASTEIGER

@<TRIPOS>ATOM
      1 FE          8.1910   40.5130  -15.3030 Fe    142  HEM142      0.0000
      2  CHA        6.6530   43.2940  -16.6200 C.2   142  HEM142      0.0000
      3  CHB        6.1300   40.7110  -12.5480 C.2   142  HEM142      0.0000
      4  CHC       10.1350   38.2000  -13.6160 C.2   142  HEM142      0.0000
      5  CHD       10.8780   41.0880  -17.4900 C.2   142  HEM142      0.0000
      6  NA         6.7230   41.7630  -14.6890 N.2   142  HEM142      0.0000
      7  C1A        6.2020   42.8150  -15.4050 C.2   142  HEM142      0.0000
      8  C2A        5.0990   43.3700  -14.6710 C.2   142  HEM142      0.0000
      9  C3A        4.9310   42.6590  -13.5610 C.2   142  HEM142      0.0000
     10  C4A        5.9400   41.6380  -13.5500 C.2   142  HEM142      0.0000
     11  CMA        3.8840   42.8460  -12.4360 C.3   142  HEM142      0.0000
     12  CAA        4.2990   44.5630  -15.2330 C.3   142  HEM142      0.0000
     13  CBA        3.0920   44.1580  -16.1160 C.3   142  HEM142      0.0000
     14  CGA        2.1200   45.3140  -16.2710 C.2   142  HEM142      0.0000
     15  O1A        1.0500   45.2060  -15.6200 O.co2 142  HEM142      0.0000
     16  O2A        2.4890   46.2770  -16.9900 O.co2 142  HEM142      0.0000
     17  NB         8.1420   39.6350  -13.4510 N.ar  142  HEM142      0.0000
     18  C1B        7.2110   39.8590  -12.4640 C.ar  142  HEM142      0.0000
     19  C2B        7.4980   38.9960  -11.3270 C.ar  142  HEM142      0.0000
     20  C3B        8.5870   38.2850  -11.6170 C.ar  142  HEM142      0.0000
     21  C4B        9.0160   38.6870  -12.9540 C.ar  142  HEM142      0.0000
     22  CMB        6.6080   38.9830  -10.0670 C.3   142  HEM142      0.0000
     23  CAB        9.3750   37.2660  -10.8020 C.2   142  HEM142      0.0000
     24  CBB        8.9120   36.2920  -10.0800 C.2   142  HEM142      0.0000
     25  NC        10.0950   39.7840  -15.5330 N.2   142  HEM142      0.0000
     26  C1C       10.7120   38.8400  -14.7250 C.2   142  HEM142      0.0000
     27  C2C       12.0620   38.6300  -15.1830 C.2   142  HEM142      0.0000
     28  C3C       12.2660   39.4380  -16.2240 C.2   142  HEM142      0.0000
     29  C4C       11.0360   40.1690  -16.4650 C.2   142  HEM142      0.0000
     30  CMC       13.0310   37.6370  -14.5250 C.3   142  HEM142      0.0000
     31  CAC       13.5440   39.6170  -17.0830 C.2   142  HEM142      0.0000
     32  CBC       14.7560   39.5840  -16.4960 C.2   142  HEM142      0.0000
     33  ND         8.6790   41.9140  -16.7330 N.ar  142  HEM142      0.0000
     34  C1D        9.7870   41.9130  -17.5720 C.ar  142  HEM142      0.0000
     35  C2D        9.6470   42.9720  -18.5580 C.ar  142  HEM142      0.0000
     36  C3D        8.4780   43.5660  -18.3220 C.ar  142  HEM142      0.0000
     37  C4D        7.8720   42.9340  -17.1700 C.ar  142  HEM142      0.0000
     38  CMD       10.6920   43.2860  -19.6480 C.3   142  HEM142      0.0000
     39  CAD        7.8310   44.7730  -19.0510 C.3   142  HEM142      0.0000
     40  CBD        8.2690   46.1030  -18.4340 C.3   142  HEM142      0.0000
     41  CGD        7.7770   47.3400  -19.1240 C.2   142  HEM142      0.0000
     42  O1D        7.1470   48.1600  -18.4190 O.co2 142  HEM142      0.0000
     43  O2D        8.0460   47.4440  -20.3400 O.co2 142  HEM142      0.0000
@<TRIPOS>BOND
     1    43    41   ar
     2    38    35    1
     3    41    40    1
     4    41    42   ar
     5    39    40    1
     6    39    36    1
     7    35    36   ar
     8    35    34   ar
     9    36    37   ar
    10    34     5    2
    11    34    33   ar
    12     5    29    1
    13    37    33   ar
    14    37     2    2
    15    31    32    2
    16    31    28    1
    17    16    14   ar
    18    33     1    1
    19     2     7    1
    20    29    28    1
    21    29    25    2
    22    14    13    1
    23    14    15   ar
    24    28    27    2
    25    13    12    1
    26    25     1    1
    27    25    26    1
    28     7     6    2
    29     7     8    1
    30     1     6    1
    31     1    17    1
    32    12     8    1
    33    27    26    1
    34    27    30    1
    35    26     4    2
    36     6    10    1
    37     8     9    2
    38     4    21    1
    39     9    10    1
    40     9    11    1
    41    10     3    2
    42    17    21   ar
    43    17    18   ar
    44    21    20   ar
    45     3    18    1
    46    18    19   ar
    47    20    19   ar
    48    20    23    1
    49    19    22    1
    50    23    24    2
