@<TRIPOS>MOLECULE
1xxv_III_C_1.pdb
 44 44 0 0 0
SMALL
GASTEIGER

@<TRIPOS>ATOM
      1  N         32.0210    9.5520   12.7520 N.3   103  ASP103     -0.1225
      2  CA        31.0330    8.9930   11.7850 C.3   103  ASP103      0.1805
      3  C         31.3970    9.4580   10.3690 C.2   103  ASP103      0.2598
      4  O         32.1470   10.4200   10.1980 O.2   103  ASP103     -0.2718
      5  CB        29.6200    9.4720   12.1540 C.3   103  ASP103      0.1424
      6  CG        28.5310    8.4770   11.7570 C.2   103  ASP103      0.3668
      7  OD1       28.4580    7.3920   12.3800 O.co2 103  ASP103     -0.2456
      8  OD2       27.7480    8.7790   10.8250 O.co2 103  ASP103     -0.2456
      9  N         30.8770    8.7650    9.3600 N.am  104  GLU104     -0.1965
     10  CA        31.1430    9.1120    7.9710 C.3   104  GLU104      0.1733
     11  C         29.8570    9.3220    7.2030 C.2   104  GLU104      0.2616
     12  O         29.0030    8.4360    7.1480 O.2   104  GLU104     -0.2715
     13  CB        31.9510    8.0180    7.2820 C.3   104  GLU104      0.0429
     14  CG        33.4280    8.0640    7.5800 C.3   104  GLU104      0.1163
     15  CD        34.2030    6.9950    6.8340 C.2   104  GLU104      0.3649
     16  OE1       35.4550    7.0120    6.9090 O.co2 104  GLU104     -0.2457
     17  OE2       33.5650    6.1360    6.1790 O.co2 104  GLU104     -0.2457
     18  N         29.7310   10.5060    6.6140 N.am  105  TYR105     -0.1960
     19  CA        28.5620   10.8770    5.8250 C.3   105  TYR105      0.1771
     20  C         28.6590   10.1870    4.4720 C.2   105  TYR105      0.2619
     21  O         27.6680   10.0810    3.7370 O.2   105  TYR105     -0.2715
     22  CB        28.5490   12.3890    5.6160 C.3   105  TYR105      0.0574
     23  CG        27.3560   12.9020    4.8490 C.ar  105  TYR105     -0.0200
     24  CD1       27.5270   13.7050    3.7180 C.ar  105  TYR105     -0.0043
     25  CD2       26.0560   12.6460    5.2910 C.ar  105  TYR105     -0.0043
     26  CE1       26.4300   14.2530    3.0430 C.ar  105  TYR105      0.0011
     27  CE2       24.9470   13.1880    4.6290 C.ar  105  TYR105      0.0011
     28  CZ        25.1390   13.9950    3.5070 C.ar  105  TYR105      0.0444
     29  C1        23.9090   14.6440    2.7900 C.3   105  TYR105      0.3249
     30  F1        22.7630   13.8340    2.8660 F     105  TYR105     -0.1920
     31  F2        24.1600   14.4390    1.4220 F     105  TYR105     -0.1920
     32  P         23.4080   16.2110    3.1580 P.3   105  TYR105      0.1831
     33  O1P       22.9980   16.1690    4.5780 O.3   105  TYR105     -0.3533
     34  O2P       24.5810   17.0860    2.9320 O.3   105  TYR105     -0.3533
     35  O3P       22.2400   16.5410    2.2680 O.2   105  TYR105     -0.4543
     36  N         29.8730    9.7280    4.1660 N.am  106  LEU106     -0.1963
     37  CA        30.2010    9.0520    2.9180 C.3   106  LEU106      0.1744
     38  C         30.2470   10.0510    1.7650 C.2   106  LEU106      0.2806
     39  O         29.3370   10.0220    0.9030 O.2   106  LEU106     -0.2698
     40  CB        29.2020    7.9320    2.6160 C.3   106  LEU106      0.0312
     41  CG        29.6060    7.0350    1.4430 C.3   106  LEU106      0.0022
     42  CD1       29.6320    5.5680    1.8770 C.3   106  LEU106      0.0001
     43  CD2       28.6390    7.2490    0.2820 C.3   106  LEU106      0.0001
     44  N         31.2010   10.8670    1.7530 N.am  107  NH2107     -0.0863
@<TRIPOS>BOND
     1    43    41    1
     2    39    38    2
     3    31    29    1
     4    41    42    1
     5    41    40    1
     6    44    38   am
     7    38    37    1
     8    35    32    2
     9    40    37    1
    10    29    30    1
    11    29    32    1
    12    29    28    1
    13    37    36    1
    14    34    32    1
    15    26    28   ar
    16    26    24   ar
    17    32    33    1
    18    28    27   ar
    19    24    23   ar
    20    21    20    2
    21    36    20   am
    22    20    19    1
    23    27    25   ar
    24    23    25   ar
    25    23    22    1
    26    22    19    1
    27    19    18    1
    28    17    15   ar
    29    18    11   am
    30    15    16   ar
    31    15    14    1
    32    12    11    2
    33    11    10    1
    34    13    14    1
    35    13    10    1
    36    10     9    1
    37     9     3   am
    38     4     3    2
    39     3     2    1
    40     8     6   ar
    41     6     5    1
    42     6     7   ar
    43     2     5    1
    44     2     1    1
