@<TRIPOS>MOLECULE
1xy0_HEM_A_1.pdb
 43 50 0 0 0
SMALL
GASTEIGER

@<TRIPOS>ATOM
      1 FE          8.2800   40.6150  -15.3540 Fe    142  HEM142      0.0000
      2  CHA        6.7260   43.3730  -16.6630 C.2   142  HEM142      0.0000
      3  CHB        6.1940   40.7840  -12.5940 C.2   142  HEM142      0.0000
      4  CHC       10.1780   38.2520  -13.6880 C.2   142  HEM142      0.0000
      5  CHD       10.9250   41.1340  -17.5680 C.2   142  HEM142      0.0000
      6  NA         6.7990   41.8380  -14.7430 N.2   142  HEM142      0.0000
      7  C1A        6.2800   42.9010  -15.4410 C.2   142  HEM142      0.0000
      8  C2A        5.1870   43.4660  -14.6910 C.2   142  HEM142      0.0000
      9  C3A        5.0250   42.7470  -13.5980 C.2   142  HEM142      0.0000
     10  C4A        6.0140   41.7060  -13.6000 C.2   142  HEM142      0.0000
     11  CMA        4.0070   42.8930  -12.4400 C.3   142  HEM142      0.0000
     12  CAA        4.3940   44.6700  -15.2520 C.3   142  HEM142      0.0000
     13  CBA        3.1800   44.2910  -16.1350 C.3   142  HEM142      0.0000
     14  CGA        2.2220   45.4520  -16.3140 C.2   142  HEM142      0.0000
     15  O1A        1.1230   45.3420  -15.7150 O.co2 142  HEM142      0.0000
     16  O2A        2.6140   46.4310  -17.0020 O.co2 142  HEM142      0.0000
     17  NB         8.1950   39.6910  -13.5220 N.ar  142  HEM142      0.0000
     18  C1B        7.2680   39.9160  -12.5170 C.ar  142  HEM142      0.0000
     19  C2B        7.5580   39.0540  -11.3880 C.ar  142  HEM142      0.0000
     20  C3B        8.6440   38.3340  -11.6860 C.ar  142  HEM142      0.0000
     21  C4B        9.0730   38.7440  -13.0150 C.ar  142  HEM142      0.0000
     22  CMB        6.6980   39.0290  -10.1070 C.3   142  HEM142      0.0000
     23  CAB        9.4280   37.3150  -10.8500 C.2   142  HEM142      0.0000
     24  CBB        8.8930   36.3000  -10.2430 C.2   142  HEM142      0.0000
     25  NC        10.1520   39.8430  -15.6070 N.2   142  HEM142      0.0000
     26  C1C       10.7490   38.8930  -14.7980 C.2   142  HEM142      0.0000
     27  C2C       12.0910   38.6680  -15.2490 C.2   142  HEM142      0.0000
     28  C3C       12.3040   39.4690  -16.2960 C.2   142  HEM142      0.0000
     29  C4C       11.0950   40.2110  -16.5430 C.2   142  HEM142      0.0000
     30  CMC       13.0210   37.6430  -14.5820 C.3   142  HEM142      0.0000
     31  CAC       13.5850   39.5960  -17.1490 C.2   142  HEM142      0.0000
     32  CBC       14.7890   39.5160  -16.5590 C.2   142  HEM142      0.0000
     33  ND         8.7430   41.9950  -16.7910 N.ar  142  HEM142      0.0000
     34  C1D        9.8430   41.9850  -17.6410 C.ar  142  HEM142      0.0000
     35  C2D        9.6880   43.0360  -18.6310 C.ar  142  HEM142      0.0000
     36  C3D        8.5220   43.6280  -18.3950 C.ar  142  HEM142      0.0000
     37  C4D        7.9350   43.0150  -17.2280 C.ar  142  HEM142      0.0000
     38  CMD       10.7220   43.3310  -19.7390 C.3   142  HEM142      0.0000
     39  CAD        7.8890   44.8390  -19.1270 C.3   142  HEM142      0.0000
     40  CBD        8.3420   46.1430  -18.4820 C.3   142  HEM142      0.0000
     41  CGD        7.8440   47.4000  -19.1050 C.2   142  HEM142      0.0000
     42  O1D        7.1690   48.1720  -18.3800 O.co2 142  HEM142      0.0000
     43  O2D        8.1770   47.5590  -20.3010 O.co2 142  HEM142      0.0000
@<TRIPOS>BOND
     1    43    41   ar
     2    38    35    1
     3    39    40    1
     4    39    36    1
     5    41    40    1
     6    41    42   ar
     7    35    36   ar
     8    35    34   ar
     9    36    37   ar
    10    34     5    2
    11    34    33   ar
    12     5    29    1
    13    37    33   ar
    14    37     2    2
    15    31    32    2
    16    31    28    1
    17    16    14   ar
    18    33     1    1
    19     2     7    1
    20    29    28    1
    21    29    25    2
    22    14    13    1
    23    14    15   ar
    24    28    27    2
    25    13    12    1
    26    25     1    1
    27    25    26    1
    28     7     6    2
    29     7     8    1
    30     1     6    1
    31     1    17    1
    32    12     8    1
    33    27    26    1
    34    27    30    1
    35    26     4    2
    36     6    10    1
    37     8     9    2
    38     4    21    1
    39    10     9    1
    40    10     3    2
    41     9    11    1
    42    17    21   ar
    43    17    18   ar
    44    21    20   ar
    45     3    18    1
    46    18    19   ar
    47    20    19   ar
    48    20    23    1
    49    19    22    1
    50    23    24    2
