@<TRIPOS>MOLECULE
1xy3_GUN_A_1.pdb
 11 12 0 0 0
SMALL
GASTEIGER

@<TRIPOS>ATOM
      1  N9         4.0710  -22.5300   72.3980 N.2   900  GUN900     -0.1802
      2  C8         5.2390  -22.8000   73.0790 C.3   900  GUN900      0.2633
      3  N7         6.1410  -23.4850   72.3810 N.2   900  GUN900     -0.2212
      4  C5         5.5070  -23.7050   71.1330 C.2   900  GUN900      0.2482
      5  C6         5.9600  -24.3910   69.9040 C.1   900  GUN900      0.2442
      6  O6         7.0340  -24.9540   69.6850 O.2   900  GUN900     -0.2063
      7  N1         4.9670  -24.3700   68.8860 N.2   900  GUN900     -0.2474
      8  C2         3.7190  -23.7720   69.0280 C.1   900  GUN900      0.2608
      9  N2         2.8890  -23.8370   67.9950 N.pl3 900  GUN900     -0.0220
     10  N3         3.3200  -23.1250   70.1510 N.2   900  GUN900     -0.2682
     11  C4         4.2420  -23.1290   71.1530 C.1   900  GUN900      0.1289
@<TRIPOS>BOND
     1     9     8    1
     2     7     8    2
     3     7     5    2
     4     8    10    2
     5     6     5    2
     6     5     4    1
     7    10    11    2
     8     4    11    1
     9     4     3    2
    10    11     1    2
    11     3     2    1
    12     1     2    1
