@<TRIPOS>MOLECULE
1xyb_GLO_A_1.pdb
 12 11 0 0 0
SMALL
GASTEIGER

@<TRIPOS>ATOM
      1  C1        15.6960    4.5530  -14.0710 C.2   950  GLO950      0.2427
      2  C2        15.7000    5.1760  -12.6820 C.3   950  GLO950      0.2486
      3  C3        17.1090    5.7460  -12.3070 C.3   950  GLO950      0.2225
      4  C4        16.9600    6.2730  -10.8460 C.3   950  GLO950      0.2179
      5  C5        18.3340    6.3820  -10.1640 C.3   950  GLO950      0.2175
      6  C6        18.2620    7.0680   -8.8050 C.3   950  GLO950      0.2175
      7  O1        14.6730    4.6150  -14.7410 O.2   950  GLO950     -0.2854
      8  O2        14.7310    6.2020  -12.5560 O.3   950  GLO950     -0.2118
      9  O3        17.6040    6.7370  -13.2140 O.3   950  GLO950     -0.2171
     10  O4        16.3100    7.5330  -10.7750 O.3   950  GLO950     -0.2175
     11  O5        18.8400    5.0800   -9.9750 O.3   950  GLO950     -0.2175
     12  O6        17.1310    6.6400   -8.0700 O.3   950  GLO950     -0.2175
@<TRIPOS>BOND
     1     7     1    2
     2     1     2    1
     3     9     3    1
     4     2     8    1
     5     2     3    1
     6     3     4    1
     7     4    10    1
     8     4     5    1
     9     5    11    1
    10     5     6    1
    11     6    12    1
