@<TRIPOS>MOLECULE
1xyc_3MF_A_1.pdb
 13 12 0 0 0
SMALL
GASTEIGER

@<TRIPOS>ATOM
      1  C1        15.7250    4.5250  -13.6300 C.3   950  3MF950      0.2485
      2  C2        15.9370    5.7480  -12.7780 C.2   950  3MF950      0.2132
      3  C3        17.3630    6.0380  -12.2450 C.3   950  3MF950      0.2076
      4  C4        17.2350    6.5580  -10.7870 C.3   950  3MF950      0.2188
      5  C5        18.5210    6.3710   -9.9840 C.3   950  3MF950      0.2177
      6  C6        18.5300    7.1340   -8.6710 C.3   950  3MF950      0.2175
      7  C7        19.1960    6.4830  -13.7590 C.3   950  3MF950      0.1747
      8  O1        14.7490    4.6990  -14.6110 O.3   950  3MF950     -0.2118
      9  O2        14.9760    6.4480  -12.5620 O.2   950  3MF950     -0.2907
     10  O3        18.0380    6.9690  -13.1020 O.3   950  3MF950     -0.3434
     11  O4        16.8050    7.9070  -10.7560 O.3   950  3MF950     -0.2172
     12  O5        18.7670    5.0320   -9.6470 O.3   950  3MF950     -0.2175
     13  O6        17.2280    7.2800   -8.1680 O.3   950  3MF950     -0.2175
@<TRIPOS>BOND
     1     8     1    1
     2     7    10    1
     3     1     2    1
     4    10     3    1
     5     2     9    2
     6     2     3    1
     7     3     4    1
     8     4    11    1
     9     4     5    1
    10     5    12    1
    11     5     6    1
    12     6    13    1
