@<TRIPOS>MOLECULE
1xye_HEM_A_1.pdb
 43 50 0 0 0
SMALL
GASTEIGER

@<TRIPOS>ATOM
      1 FE          8.0720   40.7320  -15.2460 Fe    142  HEM142      0.0000
      2  CHA        6.4430   43.4380  -16.4710 C.2   142  HEM142      0.0000
      3  CHB        5.9330   40.9610  -12.3970 C.2   142  HEM142      0.0000
      4  CHC       10.0880   38.7440  -13.4230 C.2   142  HEM142      0.0000
      5  CHD       10.7120   41.3700  -17.3370 C.2   142  HEM142      0.0000
      6  NA         6.5260   41.9490  -14.5280 N.2   142  HEM142      0.0000
      7  C1A        5.9830   42.9640  -15.2650 C.2   142  HEM142      0.0000
      8  C2A        4.8500   43.5160  -14.5820 C.2   142  HEM142      0.0000
      9  C3A        4.7040   42.8520  -13.4650 C.2   142  HEM142      0.0000
     10  C4A        5.7420   41.8630  -13.4020 C.2   142  HEM142      0.0000
     11  CMA        3.6180   43.1120  -12.3660 C.3   142  HEM142      0.0000
     12  CAA        4.0170   44.7330  -15.0500 C.3   142  HEM142      0.0000
     13  CBA        3.0900   44.4670  -16.2270 C.3   142  HEM142      0.0000
     14  CGA        2.0430   45.5600  -16.2160 C.2   142  HEM142      0.0000
     15  O1A        0.9600   45.2730  -15.6720 O.co2 142  HEM142      0.0000
     16  O2A        2.2760   46.7050  -16.6800 O.co2 142  HEM142      0.0000
     17  NB         8.0510   40.1180  -13.3170 N.ar  142  HEM142      0.0000
     18  C1B        7.0450   40.1550  -12.3610 C.ar  142  HEM142      0.0000
     19  C2B        7.3410   39.1580  -11.3550 C.ar  142  HEM142      0.0000
     20  C3B        8.4930   38.5790  -11.6470 C.ar  142  HEM142      0.0000
     21  C4B        8.9360   39.1490  -12.8630 C.ar  142  HEM142      0.0000
     22  CMB        6.4590   38.9240  -10.1420 C.3   142  HEM142      0.0000
     23  CAB        9.2810   37.4630  -10.9290 C.2   142  HEM142      0.0000
     24  CBB        9.3340   37.4320   -9.6130 C.2   142  HEM142      0.0000
     25  NC         9.9560   40.2520  -15.2940 N.2   142  HEM142      0.0000
     26  C1C       10.5840   39.2660  -14.5510 C.2   142  HEM142      0.0000
     27  C2C       11.9360   39.0550  -15.0190 C.2   142  HEM142      0.0000
     28  C3C       11.9640   39.5790  -16.2210 C.2   142  HEM142      0.0000
     29  C4C       10.8440   40.4620  -16.3420 C.2   142  HEM142      0.0000
     30  CMC       12.7930   37.8290  -14.6690 C.3   142  HEM142      0.0000
     31  CAC       13.1720   39.5010  -17.1600 C.2   142  HEM142      0.0000
     32  CBC       14.3890   39.8740  -16.6620 C.2   142  HEM142      0.0000
     33  ND         8.5600   42.2170  -16.5760 N.ar  142  HEM142      0.0000
     34  C1D        9.6590   42.1970  -17.4290 C.ar  142  HEM142      0.0000
     35  C2D        9.5320   43.1500  -18.4920 C.ar  142  HEM142      0.0000
     36  C3D        8.2060   43.7890  -18.2010 C.ar  142  HEM142      0.0000
     37  C4D        7.6680   43.1460  -17.0370 C.ar  142  HEM142      0.0000
     38  CMD       10.5500   43.4500  -19.6080 C.3   142  HEM142      0.0000
     39  CAD        7.5930   44.9200  -19.0270 C.3   142  HEM142      0.0000
     40  CBD        8.1800   46.1880  -18.4180 C.3   142  HEM142      0.0000
     41  CGD        7.7460   47.4090  -19.1980 C.2   142  HEM142      0.0000
     42  O1D        7.2220   48.3460  -18.5620 O.co2 142  HEM142      0.0000
     43  O2D        7.9490   47.4830  -20.4270 O.co2 142  HEM142      0.0000
@<TRIPOS>BOND
     1    43    41   ar
     2    38    35    1
     3    41    42   ar
     4    41    40    1
     5    39    40    1
     6    39    36    1
     7    35    36   ar
     8    35    34   ar
     9    36    37   ar
    10    34     5    2
    11    34    33   ar
    12     5    29    1
    13    31    32    2
    14    31    28    1
    15    37    33   ar
    16    37     2    2
    17    16    14   ar
    18    33     1    1
    19     2     7    1
    20    29    28    1
    21    29    25    2
    22    13    14    1
    23    13    12    1
    24    28    27    2
    25    14    15   ar
    26    25     1    1
    27    25    26    1
    28     7     8    1
    29     7     6    2
    30     1     6    1
    31     1    17    1
    32    12     8    1
    33    27    30    1
    34    27    26    1
    35     8     9    2
    36    26     4    2
    37     6    10    1
    38     9    10    1
    39     9    11    1
    40     4    21    1
    41    10     3    2
    42    17    21   ar
    43    17    18   ar
    44    21    20   ar
    45     3    18    1
    46    18    19   ar
    47    20    19   ar
    48    20    23    1
    49    19    22    1
    50    23    24    2
