@<TRIPOS>MOLECULE
1xym_GLO_A_1.pdb
 24 23 0 0 0
SMALL
GASTEIGER

@<TRIPOS>ATOM
      1  C1        16.0580    4.5920  -14.2350 C.2   950  GLO950      0.1512
      2  C2        15.9250    5.1570  -12.8190 C.3   950  GLO950      0.1381
      3  C3        17.2790    5.7850  -12.3180 C.3   950  GLO950      0.1159
      4  C4        17.0990    6.2340  -10.8540 C.3   950  GLO950      0.1118
      5  C5        18.2800    6.2260   -9.9210 C.3   950  GLO950      0.1065
      6  C6        17.8970    6.6890   -8.5060 C.3   950  GLO950      0.0727
      7  O1        15.1280    4.0510  -14.8290 O.2   950  GLO950     -0.2982
      8  O2        14.9310    6.1300  -12.8240 O.3   950  GLO950     -0.3819
      9  O3        17.6870    6.8980  -13.1280 O.3   950  GLO950     -0.3861
     10  O4        16.8040    7.5950  -10.8920 O.3   950  GLO950     -0.3865
     11  O5        18.7760    4.9210   -9.8580 O.3   950  GLO950     -0.3869
     12  O6        16.5880    6.3120   -8.1080 O.3   950  GLO950     -0.3924
     13  H1        17.0760    4.4810  -14.5810 H     950  GLO950      0.1055
     14  H2        15.5670    4.3890  -12.1500 H     950  GLO950      0.0697
     15  H3        18.0710    5.0230  -12.3590 H     950  GLO950      0.0650
     16  H4        16.3060    5.6200  -10.4110 H     950  GLO950      0.0647
     17  H5        19.0100    6.9320  -10.3330 H     950  GLO950      0.0643
     18  H61       17.9780    7.7800   -8.4630 H     950  GLO950      0.0584
     19  H62       18.6240    6.2790   -7.7870 H     950  GLO950      0.0584
     20  HO2       15.2930    6.8830  -13.2970 H     950  GLO950      0.2105
     21  HO3       18.3230    7.4380  -12.6490 H     950  GLO950      0.2100
     22  HO4       16.2300    7.7490  -11.6450 H     950  GLO950      0.2100
     23  HO5       19.0090    4.6170  -10.7370 H     950  GLO950      0.2100
     24  HO6       15.9690    6.9560   -8.4610 H     950  GLO950      0.2095
@<TRIPOS>BOND
     1     7     1    2
     2    13     1    1
     3     1     2    1
     4    20     8    1
     5     9    21    1
     6     9     3    1
     7     8     2    1
     8     2     3    1
     9     2    14    1
    10    15     3    1
    11     3     4    1
    12    22    10    1
    13    10     4    1
    14     4    16    1
    15     4     5    1
    16    23    11    1
    17    17     5    1
    18     5    11    1
    19     5     6    1
    20     6    18    1
    21     6    12    1
    22     6    19    1
    23    24    12    1
