@<TRIPOS>MOLECULE
1xyv_FMN_A_1.pdb
 31 33 0 0 0
SMALL
GASTEIGER

@<TRIPOS>ATOM
      1  N1       -13.4500   26.0380  -20.7020 N.2   149  FMN149     -0.2887
      2  C2       -14.1730   25.0950  -20.2520 C.1   149  FMN149      0.3669
      3  O2       -14.7490   25.1310  -19.1380 O.2   149  FMN149     -0.1744
      4  N3       -14.3690   23.9450  -21.0900 N.2   149  FMN149     -0.2300
      5  C4       -13.8770   23.7710  -22.3600 C.1   149  FMN149      0.2513
      6  O4       -14.1380   22.7830  -23.0350 O.2   149  FMN149     -0.2057
      7  C4A      -13.0810   24.8580  -22.8760 C.2   149  FMN149      0.2706
      8  N5       -12.6030   24.8220  -24.1100 N.2   149  FMN149     -0.3841
      9  C5A      -11.9460   25.9290  -24.5600 C.2   149  FMN149      0.1452
     10  C6       -11.5570   26.0140  -25.9420 C.2   149  FMN149      0.0252
     11  C7       -10.9990   27.1110  -26.4680 C.2   149  FMN149     -0.0375
     12  C7M      -10.6210   27.2140  -27.9910 C.3   149  FMN149      0.0268
     13  C8       -10.7090   28.2570  -25.6470 C.3   149  FMN149      0.0417
     14  C8M      -10.0900   29.4780  -26.2320 C.3   149  FMN149      0.0091
     15  C9       -11.0700   28.2010  -24.2640 C.2   149  FMN149     -0.0049
     16  C9A      -11.6810   27.1300  -23.7270 C.2   149  FMN149      0.0795
     17  N10      -12.1440   27.0300  -22.3990 N.pl3 149  FMN149     -0.2545
     18  C10      -12.8860   25.9960  -21.9510 C.2   149  FMN149      0.2449
     19  C1'      -11.9510   28.1780  -21.5540 C.3   149  FMN149      0.1336
     20  C2'      -10.6150   28.2000  -20.9670 C.3   149  FMN149      0.2048
     21  O2'      -10.5050   27.1150  -20.1110 O.3   149  FMN149     -0.2185
     22  C3'      -10.4770   29.5280  -20.1650 C.3   149  FMN149      0.2165
     23  O3'      -10.0560   30.5160  -21.1390 O.3   149  FMN149     -0.2175
     24  C4'       -9.4850   29.5350  -19.1090 C.3   149  FMN149      0.2147
     25  O4'       -9.5640   30.9070  -18.5260 O.3   149  FMN149     -0.2176
     26  C5'       -8.1050   29.3700  -19.5000 C.3   149  FMN149      0.1892
     27  O5'       -7.3060   29.2770  -18.3270 O.3   149  FMN149     -0.2674
     28  P         -5.7250   29.3000  -18.5400 P.3   149  FMN149      0.5327
     29  O1P       -5.0920   28.0120  -19.1600 O.2   149  FMN149     -0.2224
     30  O2P       -5.0690   30.5450  -18.4890 O.3   149  FMN149     -0.1145
     31  O3P       -5.3250   28.9090  -17.0880 O.3   149  FMN149     -0.1145
@<TRIPOS>BOND
     1    12    11    1
     2    11    10    2
     3    11    13    1
     4    14    13    1
     5    10     9    1
     6    13    15    1
     7     9     8    2
     8     9    16    1
     9    15    16    2
    10     8     7    2
    11    16    17    1
    12     6     5    2
    13     7     5    1
    14     7    18    1
    15    17    18    1
    16    17    19    1
    17     5     4    2
    18    18     1    2
    19    19    20    1
    20    23    22    1
    21     4     2    2
    22    20    22    1
    23    20    21    1
    24     1     2    2
    25     2     3    2
    26    22    24    1
    27    26    24    1
    28    26    27    1
    29    29    28    2
    30    24    25    1
    31    28    30    1
    32    28    27    1
    33    28    31    1
