@<TRIPOS>MOLECULE
1xyy_FMN_A_1.pdb
 31 33 0 0 0
SMALL
GASTEIGER

@<TRIPOS>ATOM
      1  N1        94.3450  -52.2150 -207.4500 N.2   149  FMN149     -0.2890
      2  C2        95.3680  -52.5290 -208.3700 C.1   149  FMN149      0.3669
      3  O2        96.1020  -53.4920 -208.2930 O.2   149  FMN149     -0.1744
      4  N3        95.5610  -51.6730 -209.5030 N.2   149  FMN149     -0.2300
      5  C4        94.8220  -50.5670 -209.7810 C.1   149  FMN149      0.2513
      6  O4        95.0180  -49.8840 -210.7810 O.2   149  FMN149     -0.2057
      7  C4A       93.7750  -50.2510 -208.8460 C.2   149  FMN149      0.2700
      8  N5        93.0420  -49.2120 -209.0790 N.2   149  FMN149     -0.3878
      9  C5A       92.0060  -48.9040 -208.2340 C.2   149  FMN149      0.1320
     10  C6        91.1310  -47.7360 -208.5320 C.2   149  FMN149      0.0250
     11  C7        90.0410  -47.3820 -207.7410 C.2   149  FMN149     -0.0238
     12  C7M       89.1360  -46.1750 -208.0670 C.3   149  FMN149      0.0308
     13  C8        89.7270  -48.2150 -206.5380 C.2   149  FMN149     -0.0280
     14  C8M       88.5800  -47.9220 -205.6240 C.3   149  FMN149      0.0304
     15  C9        90.5530  -49.2990 -206.2620 C.2   149  FMN149     -0.0041
     16  C9A       91.6860  -49.6750 -207.0640 C.3   149  FMN149      0.1497
     17  N10       92.5580  -50.8050 -206.7970 N.pl3 149  FMN149     -0.2691
     18  C10       93.5870  -51.1480 -207.6670 C.2   149  FMN149      0.2416
     19  C1'       92.3490  -51.6760 -205.6220 C.3   149  FMN149      0.1294
     20  C2'       93.0620  -51.1380 -204.2790 C.3   149  FMN149      0.2044
     21  O2'       94.5170  -50.8450 -204.4430 O.3   149  FMN149     -0.2185
     22  C3'       92.8050  -52.2370 -203.1950 C.3   149  FMN149      0.2164
     23  O3'       91.5060  -52.0170 -202.5660 O.3   149  FMN149     -0.2175
     24  C4'       93.8890  -52.2990 -202.0760 C.3   149  FMN149      0.2147
     25  O4'       93.5080  -53.3540 -201.1420 O.3   149  FMN149     -0.2176
     26  C5'       93.9900  -51.0370 -201.2770 C.3   149  FMN149      0.1892
     27  O5'       95.0450  -51.0830 -200.3290 O.3   149  FMN149     -0.2674
     28  P         94.8230  -49.9940 -199.1950 P.3   149  FMN149      0.5327
     29  O1P       95.4590  -48.6440 -199.3510 O.2   149  FMN149     -0.2224
     30  O2P       94.1810  -50.5370 -197.9500 O.3   149  FMN149     -0.1145
     31  O3P       96.2910  -50.4960 -198.6360 O.3   149  FMN149     -0.1145
@<TRIPOS>BOND
     1     6     5    2
     2     5     4    2
     3     5     7    1
     4     4     2    2
     5     8     7    2
     6     8     9    2
     7     7    18    1
     8    10     9    1
     9    10    11    2
    10     2     3    2
    11     2     1    2
    12     9    16    1
    13    12    11    1
    14    11    13    1
    15    18     1    2
    16    18    17    1
    17    16    17    1
    18    16    15    1
    19    17    19    1
    20    13    15    2
    21    13    14    1
    22    19    20    1
    23    21    20    1
    24    20    22    1
    25    22    23    1
    26    22    24    1
    27    24    26    1
    28    24    25    1
    29    26    27    1
    30    27    28    1
    31    29    28    2
    32    28    31    1
    33    28    30    1
