@<TRIPOS>MOLECULE
1xz0_FUC_A_1.pdb
 10 10 0 0 0
SMALL
GASTEIGER

@<TRIPOS>ATOM
      1  C1        38.6050    0.3150   87.3260 C.3   531  FUC531      0.1776
      2  C2        39.7270    0.9690   88.1140 C.3   531  FUC531      0.2141
      3  C3        40.1320    2.2920   87.4940 C.3   531  FUC531      0.2172
      4  C4        38.9020    3.1670   87.3510 C.3   531  FUC531      0.2116
      5  C5        37.8160    2.4380   86.5670 C.3   531  FUC531      0.1483
      6  C6        36.5780    3.3060   86.4530 C.3   531  FUC531      0.0349
      7  O2        40.8460    0.1340   88.0860 O.3   531  FUC531     -0.2176
      8  O3        41.0650    2.9260   88.3340 O.3   531  FUC531     -0.2175
      9  O4        38.3870    3.4400   88.6310 O.3   531  FUC531     -0.2177
     10  O5        37.5110    1.2320   87.2410 O.3   531  FUC531     -0.3508
@<TRIPOS>BOND
     1     6     5    1
     2     5    10    1
     3     5     4    1
     4    10     1    1
     5     1     2    1
     6     4     3    1
     7     4     9    1
     8     3     2    1
     9     3     8    1
    10     7     2    1
