@<TRIPOS>MOLECULE
1xz0_JH0_C_1.pdb
 41 41 0 0 0
SMALL
GASTEIGER

@<TRIPOS>ATOM
      1  O4        30.7910    9.2100   42.3830 O.2   602  JH0602     -0.5413
      2  C         30.9830    9.6330   43.5230 C.2   602  JH0602      0.0675
      3  C12       32.3690   10.1980   43.8580 C.3   602  JH0602      0.0495
      4  C13       33.2820   10.2620   42.6260 C.3   602  JH0602      0.0066
      5  C14       34.6860   10.7670   42.9660 C.3   602  JH0602      0.0004
      6  C15       35.7120   10.3320   41.9180 C.3   602  JH0602      0.0000
      7  C16       36.4740    9.0680   42.3100 C.3   602  JH0602      0.0000
      8  C17       37.2210    8.4550   41.1240 C.3   602  JH0602      0.0000
      9  C18       38.4580    7.6300   41.5210 C.3   602  JH0602      0.0000
     10  C19       38.2010    6.6570   42.6830 C.3   602  JH0602      0.0000
     11  C20       39.1400    5.4390   42.7040 C.3   602  JH0602      0.0000
     12  C21       38.4340    4.1490   42.2460 C.3   602  JH0602      0.0000
     13  C22       37.5230    3.5090   43.3130 C.3   602  JH0602      0.0000
     14  C23       36.5000    2.4910   42.7750 C.3   602  JH0602      0.0000
     15  C24       35.1370    2.6160   43.4690 C.3   602  JH0602      0.0000
     16  C25       34.0590    1.7460   42.8150 C.3   602  JH0602      0.0000
     17  C26       32.6220    2.0730   43.2370 C.3   602  JH0602      0.0000
     18  N         30.0060    9.6140   44.4840 N.am  602  JH0602     -0.2845
     19  ON1       28.7080    9.1980   44.1160 O.3   602  JH0602     -0.4197
     20  C1        30.1460    9.9840   45.8970 C.3   602  JH0602      0.0977
     21  C2        29.0510   11.0010   46.2640 C.3   602  JH0602      0.0221
     22  C3        28.8150   12.1770   45.2960 C.3   602  JH0602      0.0041
     23  C4        30.0760   12.9440   44.8350 C.3   602  JH0602      0.0332
     24  C5        30.0840   14.4840   44.9940 C.3   602  JH0602      0.1935
     25  N2        30.4140   14.8490   46.3790 N.am  602  JH0602     -0.1940
     26  C11       31.6430   15.2420   46.7600 C.2   602  JH0602      0.2681
     27  O3        32.5720   15.2070   45.9660 O.2   602  JH0602     -0.2711
     28  C39       31.9140   15.7420   48.1790 C.3   602  JH0602      0.2271
     29  N4        30.7920   16.2790   48.9710 N.2   602  JH0602     -0.2225
     30  C38       30.9700   17.4460   49.4240 C.2   602  JH0602      0.2758
     31  O6        32.2620   17.9400   48.9960 O.2   602  JH0602     -0.4546
     32  C37       32.8990   16.9380   48.2080 C.3   602  JH0602      0.2409
     33  C6        28.8210   15.1940   44.5330 C.2   602  JH0602      0.3369
     34  O         27.8750   14.6080   44.0260 O.2   602  JH0602     -0.2482
     35  O1        28.7120   16.6460   44.6340 O.3   602  JH0602     -0.4506
     36  C7        28.0600   17.2880   45.7510 C.3   602  JH0602      0.1782
     37  C9        29.0730   17.4800   46.8740 C.3   602  JH0602      0.0479
     38  C8        26.7920   16.6220   46.2980 C.3   602  JH0602      0.1320
     39  C10       26.1580   17.5380   47.3390 C.2   602  JH0602      0.2644
     40  O2        26.6000   17.6730   48.4650 O.2   602  JH0602     -0.2715
     41  N1        25.0910   18.2210   46.9720 N.am  602  JH0602     -0.0877
@<TRIPOS>BOND
     1     8     9    1
     2     8     7    1
     3     9    10    1
     4     6     7    1
     5     6     5    1
     6    12    11    1
     7    12    13    1
     8     1     2    2
     9     4     5    1
    10     4     3    1
    11    10    11    1
    12    14    13    1
    13    14    15    1
    14    16    17    1
    15    16    15    1
    16     2     3    1
    17     2    18   am
    18    34    33    2
    19    19    18    1
    20    18    20    1
    21    33    35    1
    22    33    24    1
    23    35    36    1
    24    23    24    1
    25    23    22    1
    26    24    25    1
    27    22    21    1
    28    36    38    1
    29    36    37    1
    30    20    21    1
    31    27    26    2
    32    38    39    1
    33    25    26   am
    34    26    28    1
    35    41    39   am
    36    39    40    2
    37    28    32    1
    38    28    29    1
    39    32    31    1
    40    29    30    2
    41    31    30    1
