@<TRIPOS>MOLECULE
1xz2_HEM_A_1.pdb
 43 50 0 0 0
SMALL
GASTEIGER

@<TRIPOS>ATOM
      1 FE          9.4070   58.5880   -3.2310 Fe    142  HEM142      0.0000
      2  CHA       10.0160   61.9280   -3.3930 C.2   142  HEM142      0.0000
      3  CHB       12.3550   58.0490   -5.0160 C.2   142  HEM142      0.0000
      4  CHC        8.4570   55.3880   -3.9970 C.2   142  HEM142      0.0000
      5  CHD        6.0730   59.2510   -2.4420 C.2   142  HEM142      0.0000
      6  NA        10.9230   59.7820   -4.0790 N.ar  142  HEM142      0.0000
      7  C1A       10.9630   61.1520   -4.0000 C.ar  142  HEM142      0.0000
      8  C2A       12.1830   61.6070   -4.6640 C.ar  142  HEM142      0.0000
      9  C3A       12.8250   60.5300   -5.1080 C.ar  142  HEM142      0.0000
     10  C4A       12.0410   59.3570   -4.7530 C.ar  142  HEM142      0.0000
     11  CMA       14.1620   60.4880   -5.8720 C.3   142  HEM142      0.0000
     12  CAA       12.6680   63.0670   -4.8200 C.3   142  HEM142      0.0000
     13  CBA       13.5070   63.4380   -3.6010 C.3   142  HEM142      0.0000
     14  CGA       14.1200   64.8090   -3.7850 C.2   142  HEM142      0.0000
     15  O1A       15.1430   65.1070   -3.1370 O.co2 142  HEM142      0.0000
     16  O2A       13.6040   65.6170   -4.5790 O.co2 142  HEM142      0.0000
     17  NB        10.2190   57.0690   -4.3410 N.2   142  HEM142      0.0000
     18  C1B       11.4900   56.9940   -4.8650 C.2   142  HEM142      0.0000
     19  C2B       11.7730   55.6230   -5.2080 C.2   142  HEM142      0.0000
     20  C3B       10.6790   54.8990   -4.9480 C.2   142  HEM142      0.0000
     21  C4B        9.7000   55.7900   -4.3840 C.2   142  HEM142      0.0000
     22  CMB       13.0960   55.1450   -5.8440 C.3   142  HEM142      0.0000
     23  CAB       10.4460   53.3820   -5.1280 C.2   142  HEM142      0.0000
     24  CBB       11.1170   52.6760   -6.0350 C.2   142  HEM142      0.0000
     25  NC         7.5910   57.5550   -3.2940 N.ar  142  HEM142      0.0000
     26  C1C        7.4800   56.1980   -3.5070 C.ar  142  HEM142      0.0000
     27  C2C        6.1380   55.7760   -3.1770 C.ar  142  HEM142      0.0000
     28  C3C        5.4850   56.8420   -2.7200 C.ar  142  HEM142      0.0000
     29  C4C        6.3750   57.9770   -2.8140 C.ar  142  HEM142      0.0000
     30  CMC        5.6440   54.3220   -3.2570 C.3   142  HEM142      0.0000
     31  CAC        4.0360   56.9180   -2.2070 C.2   142  HEM142      0.0000
     32  CBC        3.0400   56.5190   -3.0170 C.2   142  HEM142      0.0000
     33  ND         8.2360   60.2760   -2.9750 N.2   142  HEM142      0.0000
     34  C1D        6.9050   60.3210   -2.5740 C.2   142  HEM142      0.0000
     35  C2D        6.4970   61.6880   -2.3440 C.2   142  HEM142      0.0000
     36  C3D        7.7270   62.5130   -2.6270 C.2   142  HEM142      0.0000
     37  C4D        8.7450   61.5660   -3.0260 C.2   142  HEM142      0.0000
     38  CMD        5.1320   62.1950   -1.8910 C.3   142  HEM142      0.0000
     39  CAD        7.8150   64.0500   -2.5440 C.3   142  HEM142      0.0000
     40  CBD        7.3710   64.5870   -3.9030 C.3   142  HEM142      0.0000
     41  CGD        7.4670   66.1000   -3.9940 C.2   142  HEM142      0.0000
     42  O1D        8.1530   66.6020   -4.9130 O.co2 142  HEM142      0.0000
     43  O2D        6.8570   66.8030   -3.1750 O.co2 142  HEM142      0.0000
@<TRIPOS>BOND
     1    24    23    2
     2    11     9    1
     3    22    19    1
     4    19    20    2
     5    19    18    1
     6    23    20    1
     7     9    10   ar
     8     9     8   ar
     9     3    18    1
    10     3    10    2
    11    20    21    1
    12    42    41   ar
    13    18    17    2
    14    12     8    1
    15    12    13    1
    16    10     6   ar
    17     8     7   ar
    18    16    14   ar
    19    21    17    1
    20    21     4    2
    21    17     1    1
    22     6     7   ar
    23     6     1    1
    24     7     2    2
    25     4    26    1
    26    41    40    1
    27    41    43   ar
    28    40    39    1
    29    14    13    1
    30    14    15   ar
    31    26    25   ar
    32    26    27   ar
    33     2    37    1
    34    25     1    1
    35    25    29   ar
    36    30    27    1
    37     1    33    1
    38    27    28   ar
    39    37    33    2
    40    37    36    1
    41    32    31    2
    42    33    34    1
    43    29    28   ar
    44    29     5    1
    45    28    31    1
    46    36    39    1
    47    36    35    2
    48    34     5    2
    49    34    35    1
    50    35    38    1
