@<TRIPOS>MOLECULE
1xz3_ICF_A_1.pdb
 10 9 0 0 0
SMALL
GASTEIGER

@<TRIPOS>ATOM
      1  FAC       38.0010    0.3850   33.9420 F     201  ICF201     -0.1663
      2  CAJ       36.9030    0.9320   34.4410 C.3   201  ICF201      0.4372
      3  FAD       36.1460    1.3990   33.4450 F     201  ICF201     -0.1663
      4  FAE       37.2620    1.9100   35.2530 F     201  ICF201     -0.1663
      5  CAI       36.1430   -0.0950   35.2760 C.3   201  ICF201      0.2944
      6 CLAF       36.2860   -1.7210   34.5020 Cl    201  ICF201     -0.0734
      7  OAG       34.7610    0.2640   35.3740 O.3   201  ICF201     -0.2779
      8  CAH       34.4120    0.1270   36.7540 C.3   201  ICF201      0.4510
      9  FAB       34.8600    1.2090   37.4270 F     201  ICF201     -0.1663
     10  FAA       33.0720   -0.0060   36.8780 F     201  ICF201     -0.1663
@<TRIPOS>BOND
     1     3     2    1
     2     1     2    1
     3     2     4    1
     4     2     5    1
     5     6     5    1
     6     5     7    1
     7     7     8    1
     8     8    10    1
     9     8     9    1
