@<TRIPOS>MOLECULE
1xz4_HEM_A_1.pdb
 43 50 0 0 0
SMALL
GASTEIGER

@<TRIPOS>ATOM
      1 FE          9.7800   58.2670   -3.3360 Fe    142  HEM142      0.0000
      2  CHA       10.5290   61.5890   -3.4450 C.2   142  HEM142      0.0000
      3  CHB       12.6980   57.6520   -5.1350 C.2   142  HEM142      0.0000
      4  CHC        8.7870   55.1550   -4.0790 C.2   142  HEM142      0.0000
      5  CHD        6.5170   59.0540   -2.5230 C.2   142  HEM142      0.0000
      6  NA        11.3250   59.3890   -4.1800 N.ar  142  HEM142      0.0000
      7  C1A       11.4330   60.7670   -4.0590 C.ar  142  HEM142      0.0000
      8  C2A       12.6580   61.1780   -4.7070 C.ar  142  HEM142      0.0000
      9  C3A       13.2730   60.0970   -5.1820 C.ar  142  HEM142      0.0000
     10  C4A       12.4400   58.9510   -4.8520 C.ar  142  HEM142      0.0000
     11  CMA       14.6110   60.0840   -5.9590 C.3   142  HEM142      0.0000
     12  CAA       13.1610   62.6100   -4.8350 C.3   142  HEM142      0.0000
     13  CBA       13.9760   63.0060   -3.6080 C.3   142  HEM142      0.0000
     14  CGA       14.5240   64.3670   -3.9820 C.2   142  HEM142      0.0000
     15  O1A       15.5370   64.8550   -3.4240 O.co2 142  HEM142      0.0000
     16  O2A       13.9330   64.9520   -4.9130 O.co2 142  HEM142      0.0000
     17  NB        10.5530   56.7060   -4.4490 N.2   142  HEM142      0.0000
     18  C1B       11.8140   56.6060   -4.9810 C.2   142  HEM142      0.0000
     19  C2B       12.0780   55.2310   -5.3370 C.2   142  HEM142      0.0000
     20  C3B       10.9780   54.5340   -5.0640 C.2   142  HEM142      0.0000
     21  C4B       10.0220   55.4530   -4.4830 C.2   142  HEM142      0.0000
     22  CMB       13.3790   54.6790   -5.9800 C.3   142  HEM142      0.0000
     23  CAB       10.8080   52.9990   -5.2560 C.2   142  HEM142      0.0000
     24  CBB       11.0410   52.4490   -6.4440 C.2   142  HEM142      0.0000
     25  NC         8.0310   57.3750   -3.3940 N.ar  142  HEM142      0.0000
     26  C1C        7.8770   56.0170   -3.5950 C.ar  142  HEM142      0.0000
     27  C2C        6.4940   55.6310   -3.3470 C.ar  142  HEM142      0.0000
     28  C3C        5.8900   56.6610   -2.8120 C.ar  142  HEM142      0.0000
     29  C4C        6.8160   57.7830   -2.8810 C.ar  142  HEM142      0.0000
     30  CMC        5.9450   54.1940   -3.3200 C.3   142  HEM142      0.0000
     31  CAC        4.4390   56.6350   -2.2990 C.2   142  HEM142      0.0000
     32  CBC        3.4550   56.2530   -3.1280 C.2   142  HEM142      0.0000
     33  ND         8.6830   60.0200   -3.0230 N.2   142  HEM142      0.0000
     34  C1D        7.3600   60.1150   -2.6710 C.2   142  HEM142      0.0000
     35  C2D        6.9710   61.5060   -2.4700 C.2   142  HEM142      0.0000
     36  C3D        8.2230   62.2890   -2.7730 C.2   142  HEM142      0.0000
     37  C4D        9.2290   61.2900   -3.1150 C.2   142  HEM142      0.0000
     38  CMD        5.5780   62.0210   -2.0830 C.3   142  HEM142      0.0000
     39  CAD        8.4020   63.8120   -2.7440 C.3   142  HEM142      0.0000
     40  CBD        7.9480   64.3170   -4.1170 C.3   142  HEM142      0.0000
     41  CGD        7.9930   65.8410   -4.2090 C.2   142  HEM142      0.0000
     42  O1D        8.6560   66.3500   -5.1470 O.co2 142  HEM142      0.0000
     43  O2D        7.3410   66.5470   -3.4000 O.co2 142  HEM142      0.0000
@<TRIPOS>BOND
     1    24    23    2
     2    22    19    1
     3    11     9    1
     4    19    20    2
     5    19    18    1
     6    23    20    1
     7     9    10   ar
     8     9     8   ar
     9    42    41   ar
    10     3    18    1
    11     3    10    2
    12    20    21    1
    13    18    17    2
    14    16    14   ar
    15    10     6   ar
    16    12     8    1
    17    12    13    1
    18     8     7   ar
    19    21    17    1
    20    21     4    2
    21    17     1    1
    22    41    40    1
    23    41    43   ar
    24     6     7   ar
    25     6     1    1
    26    40    39    1
    27     4    26    1
    28     7     2    2
    29    14    13    1
    30    14    15   ar
    31    26    25   ar
    32    26    27   ar
    33     2    37    1
    34    25     1    1
    35    25    29   ar
    36    27    30    1
    37    27    28   ar
    38     1    33    1
    39    32    31    2
    40    37    33    2
    41    37    36    1
    42    33    34    1
    43    29    28   ar
    44    29     5    1
    45    28    31    1
    46    36    39    1
    47    36    35    2
    48    34     5    2
    49    34    35    1
    50    35    38    1
