@<TRIPOS>MOLECULE
1xz5_HEM_A_1.pdb
 43 50 0 0 0
SMALL
GASTEIGER

@<TRIPOS>ATOM
      1 FE          8.3400   40.3670  -15.3080 Fe    142  HEM142      0.0000
      2  CHA        6.7830   43.1100  -16.6500 C.2   142  HEM142      0.0000
      3  CHB        6.2640   40.5870  -12.5610 C.2   142  HEM142      0.0000
      4  CHC       10.2710   38.0780  -13.6080 C.2   142  HEM142      0.0000
      5  CHD       10.9960   40.9000  -17.5060 C.2   142  HEM142      0.0000
      6  NA         6.8500   41.6090  -14.7090 N.2   142  HEM142      0.0000
      7  C1A        6.3330   42.6660  -15.4250 C.2   142  HEM142      0.0000
      8  C2A        5.2210   43.2370  -14.7040 C.2   142  HEM142      0.0000
      9  C3A        5.0600   42.5340  -13.5890 C.2   142  HEM142      0.0000
     10  C4A        6.0750   41.5000  -13.5730 C.2   142  HEM142      0.0000
     11  CMA        4.0350   42.7270  -12.4480 C.3   142  HEM142      0.0000
     12  CAA        4.4250   44.4370  -15.2550 C.3   142  HEM142      0.0000
     13  CBA        3.1940   44.0910  -16.1140 C.3   142  HEM142      0.0000
     14  CGA        2.2960   45.2760  -16.3850 C.2   142  HEM142      0.0000
     15  O1A        1.1830   45.2740  -15.7990 O.co2 142  HEM142      0.0000
     16  O2A        2.7480   46.1730  -17.1480 O.co2 142  HEM142      0.0000
     17  NB         8.2770   39.5120  -13.4530 N.ar  142  HEM142      0.0000
     18  C1B        7.3410   39.7440  -12.4620 C.ar  142  HEM142      0.0000
     19  C2B        7.6450   38.9080  -11.3130 C.ar  142  HEM142      0.0000
     20  C3B        8.7440   38.2020  -11.5980 C.ar  142  HEM142      0.0000
     21  C4B        9.1620   38.5780  -12.9370 C.ar  142  HEM142      0.0000
     22  CMB        6.7770   38.9050  -10.0390 C.3   142  HEM142      0.0000
     23  CAB        9.5310   37.1990  -10.7460 C.2   142  HEM142      0.0000
     24  CBB        8.9750   36.1990  -10.1020 C.2   142  HEM142      0.0000
     25  NC        10.2390   39.6320  -15.5310 N.2   142  HEM142      0.0000
     26  C1C       10.8590   38.6930  -14.7140 C.2   142  HEM142      0.0000
     27  C2C       12.2130   38.4870  -15.1570 C.2   142  HEM142      0.0000
     28  C3C       12.4180   39.2840  -16.2120 C.2   142  HEM142      0.0000
     29  C4C       11.1840   40.0030  -16.4660 C.2   142  HEM142      0.0000
     30  CMC       13.2000   37.5230  -14.4730 C.3   142  HEM142      0.0000
     31  CAC       13.6950   39.4430  -17.0660 C.2   142  HEM142      0.0000
     32  CBC       14.9200   39.4700  -16.5230 C.2   142  HEM142      0.0000
     33  ND         8.8040   41.7360  -16.7630 N.ar  142  HEM142      0.0000
     34  C1D        9.9090   41.7320  -17.6010 C.ar  142  HEM142      0.0000
     35  C2D        9.7510   42.7720  -18.6040 C.ar  142  HEM142      0.0000
     36  C3D        8.5840   43.3760  -18.3720 C.ar  142  HEM142      0.0000
     37  C4D        7.9880   42.7470  -17.2120 C.ar  142  HEM142      0.0000
     38  CMD       10.7920   43.0630  -19.7100 C.3   142  HEM142      0.0000
     39  CAD        7.9300   44.5750  -19.1130 C.3   142  HEM142      0.0000
     40  CBD        8.3260   45.9320  -18.5410 C.3   142  HEM142      0.0000
     41  CGD        7.8560   47.1710  -19.2270 C.2   142  HEM142      0.0000
     42  O1D        7.1960   48.0060  -18.5460 O.co2 142  HEM142      0.0000
     43  O2D        8.1840   47.3050  -20.4360 O.co2 142  HEM142      0.0000
@<TRIPOS>BOND
     1    43    41   ar
     2    38    35    1
     3    41    42   ar
     4    41    40    1
     5    39    40    1
     6    39    36    1
     7    35    36   ar
     8    35    34   ar
     9    36    37   ar
    10    34     5    2
    11    34    33   ar
    12     5    29    1
    13    37    33   ar
    14    37     2    2
    15    16    14   ar
    16    31    32    2
    17    31    28    1
    18    33     1    1
    19     2     7    1
    20    29    28    1
    21    29    25    2
    22    14    13    1
    23    14    15   ar
    24    28    27    2
    25    13    12    1
    26    25     1    1
    27    25    26    1
    28     7     6    2
    29     7     8    1
    30     1     6    1
    31     1    17    1
    32    12     8    1
    33    27    26    1
    34    27    30    1
    35    26     4    2
    36     6    10    1
    37     8     9    2
    38     4    21    1
    39     9    10    1
    40     9    11    1
    41    10     3    2
    42    17    21   ar
    43    17    18   ar
    44    21    20   ar
    45     3    18    1
    46    18    19   ar
    47    20    19   ar
    48    20    23    1
    49    19    22    1
    50    23    24    2
