@<TRIPOS>MOLECULE
1xz7_HEM_A_1.pdb
 43 50 0 0 0
SMALL
GASTEIGER

@<TRIPOS>ATOM
      1 FE          8.2390   40.2930  -15.2650 Fe    142  HEM142      0.0000
      2  CHA        6.5490   42.9380  -16.6790 C.2   142  HEM142      0.0000
      3  CHB        6.1300   40.5600  -12.5030 C.2   142  HEM142      0.0000
      4  CHC       10.3310   38.2900  -13.3530 C.2   142  HEM142      0.0000
      5  CHD       10.9690   40.9260  -17.3850 C.2   142  HEM142      0.0000
      6  NA         6.6360   41.5470  -14.6900 N.2   142  HEM142      0.0000
      7  C1A        6.0820   42.5350  -15.4530 C.2   142  HEM142      0.0000
      8  C2A        4.9410   43.0900  -14.7380 C.2   142  HEM142      0.0000
      9  C3A        4.8290   42.4470  -13.5690 C.2   142  HEM142      0.0000
     10  C4A        5.8910   41.4520  -13.5120 C.2   142  HEM142      0.0000
     11  CMA        3.7380   42.7310  -12.5000 C.3   142  HEM142      0.0000
     12  CAA        4.0510   44.2640  -15.2140 C.3   142  HEM142      0.0000
     13  CBA        3.0070   43.8840  -16.2420 C.3   142  HEM142      0.0000
     14  CGA        2.0000   45.0240  -16.2710 C.2   142  HEM142      0.0000
     15  O1A        0.7700   44.7620  -16.1480 O.co2 142  HEM142      0.0000
     16  O2A        2.4330   46.2020  -16.3520 O.co2 142  HEM142      0.0000
     17  NB         8.3020   39.6460  -13.2890 N.ar  142  HEM142      0.0000
     18  C1B        7.2220   39.7160  -12.4140 C.ar  142  HEM142      0.0000
     19  C2B        7.4020   38.7130  -11.3800 C.ar  142  HEM142      0.0000
     20  C3B        8.5720   38.1250  -11.5780 C.ar  142  HEM142      0.0000
     21  C4B        9.1330   38.6620  -12.8030 C.ar  142  HEM142      0.0000
     22  CMB        6.4600   38.5110  -10.1890 C.3   142  HEM142      0.0000
     23  CAB        9.1830   37.0100  -10.7300 C.2   142  HEM142      0.0000
     24  CBB        9.4370   37.1900   -9.4420 C.2   142  HEM142      0.0000
     25  NC        10.2880   39.7480  -15.3400 N.2   142  HEM142      0.0000
     26  C1C       10.8750   38.8250  -14.4990 C.2   142  HEM142      0.0000
     27  C2C       12.1870   38.5470  -14.9970 C.2   142  HEM142      0.0000
     28  C3C       12.3290   39.2210  -16.1480 C.2   142  HEM142      0.0000
     29  C4C       11.1610   40.0380  -16.3500 C.2   142  HEM142      0.0000
     30  CMC       13.1220   37.4930  -14.4310 C.3   142  HEM142      0.0000
     31  CAC       13.5370   39.2350  -17.0640 C.2   142  HEM142      0.0000
     32  CBC       14.7480   39.4900  -16.5320 C.2   142  HEM142      0.0000
     33  ND         8.7150   41.7090  -16.7440 N.ar  142  HEM142      0.0000
     34  C1D        9.8660   41.7230  -17.5390 C.ar  142  HEM142      0.0000
     35  C2D        9.7230   42.7150  -18.5970 C.ar  142  HEM142      0.0000
     36  C3D        8.3490   43.3200  -18.3780 C.ar  142  HEM142      0.0000
     37  C4D        7.8060   42.6670  -17.2030 C.ar  142  HEM142      0.0000
     38  CMD       10.7400   43.0650  -19.6850 C.3   142  HEM142      0.0000
     39  CAD        7.7130   44.4500  -19.2030 C.3   142  HEM142      0.0000
     40  CBD        8.3020   45.7500  -18.6700 C.3   142  HEM142      0.0000
     41  CGD        7.8080   46.9880  -19.4000 C.2   142  HEM142      0.0000
     42  O1D        7.3640   47.9500  -18.7360 O.co2 142  HEM142      0.0000
     43  O2D        7.8710   47.0210  -20.6290 O.co2 142  HEM142      0.0000
@<TRIPOS>BOND
     1    43    41   ar
     2    38    35    1
     3    41    42   ar
     4    41    40    1
     5    39    40    1
     6    39    36    1
     7    35    36   ar
     8    35    34   ar
     9    36    37   ar
    10    34     5    2
    11    34    33   ar
    12     5    29    1
    13    37    33   ar
    14    37     2    2
    15    31    32    2
    16    31    28    1
    17    33     1    1
    18     2     7    1
    19    16    14   ar
    20    29    28    1
    21    29    25    2
    22    14    13    1
    23    14    15   ar
    24    13    12    1
    25    28    27    2
    26     7     8    1
    27     7     6    2
    28    25     1    1
    29    25    26    1
    30     1     6    1
    31     1    17    1
    32    12     8    1
    33    27    26    1
    34    27    30    1
    35     8     9    2
    36     6    10    1
    37    26     4    2
    38     9    10    1
    39     9    11    1
    40    10     3    2
    41     4    21    1
    42    17    21   ar
    43    17    18   ar
    44    21    20   ar
    45     3    18    1
    46    18    19   ar
    47    20    19   ar
    48    20    23    1
    49    19    22    1
    50    23    24    2
