@<TRIPOS>MOLECULE
1xz8_U5P_B_1.pdb
 21 22 0 0 0
SMALL
GASTEIGER

@<TRIPOS>ATOM
      1  N1        20.2550   29.7180    5.1360 N.am  400  U5P400     -0.1766
      2  C2        20.5420   31.1140    5.0590 C.1   400  U5P400      0.2845
      3  N3        20.5350   31.7640    6.2920 N.2   400  U5P400     -0.2452
      4  C4        20.2810   31.2020    7.5790 C.1   400  U5P400      0.2182
      5  C5        20.0010   29.7970    7.5790 C.2   400  U5P400      0.1242
      6  C6        19.9950   29.1330    6.4380 C.2   400  U5P400      0.0929
      7  O2        20.7700   31.6660    3.9970 O.2   400  U5P400     -0.1918
      8  O4        20.3180   31.9360    8.5410 O.2   400  U5P400     -0.2085
      9  C1'       20.2220   28.8470    3.8570 C.3   400  U5P400      0.2401
     10  C2'       21.6140   28.8270    3.1740 C.3   400  U5P400      0.2319
     11  O2'       21.5620   28.9050    1.7000 O.3   400  U5P400     -0.2157
     12  C3'       22.2540   27.5830    3.7400 C.3   400  U5P400      0.2158
     13  C4'       21.0370   26.6320    3.9030 C.3   400  U5P400      0.1801
     14  O3'       23.3160   27.0880    2.8630 O.3   400  U5P400     -0.2175
     15  O4'       19.9250   27.5330    4.2310 O.3   400  U5P400     -0.3320
     16  C5'       21.1190   25.7250    5.1260 C.3   400  U5P400      0.1859
     17  O5'       20.2800   24.5580    5.0170 O.3   400  U5P400     -0.2675
     18  P         19.7570   23.7550    6.3050 P.3   400  U5P400      0.5327
     19  O1P       20.7760   23.1940    7.2430 O.3   400  U5P400     -0.1145
     20  O2P       18.9330   22.5900    5.8960 O.2   400  U5P400     -0.2224
     21  O3P       18.6340   24.8250    6.9180 O.3   400  U5P400     -0.1145
@<TRIPOS>BOND
     1    11    10    1
     2    14    12    1
     3    10    12    1
     4    10     9    1
     5    12    13    1
     6     9    15    1
     7     9     1    1
     8    13    15    1
     9    13    16    1
    10     7     2    2
    11    17    16    1
    12    17    18    1
    13     2     1   am
    14     2     3    2
    15     1     6    1
    16    20    18    2
    17     3     4    2
    18    18    21    1
    19    18    19    1
    20     6     5    2
    21     5     4    1
    22     4     8    2
