@<TRIPOS>MOLECULE
1xz8_3GP_A_1.pdb
 24 26 0 0 0
SMALL
GASTEIGER

@<TRIPOS>ATOM
      1  P         23.3300   -5.4370   15.1550 P.3   300  3GP300      0.5327
      2  O1P       23.8070   -3.8650   15.6800 O.3   300  3GP300     -0.1145
      3  O2P       22.2590   -6.0790   15.5700 O.3   300  3GP300     -0.1145
      4  O3P       23.3090   -5.0460   13.5990 O.2   300  3GP300     -0.2224
      5  O5'       25.9530  -10.7640   16.1930 O.3   300  3GP300     -0.2176
      6  C5'       25.1840   -9.7600   15.5380 C.3   300  3GP300      0.2141
      7  C4'       25.9980   -8.5180   15.1780 C.3   300  3GP300      0.1802
      8  O4'       27.2580   -8.5700   14.4690 O.3   300  3GP300     -0.3326
      9  C3'       25.2040   -7.3810   14.4430 C.3   300  3GP300      0.1903
     10  O3'       24.6560   -6.3830   15.3670 O.3   300  3GP300     -0.2674
     11  C2'       26.1910   -6.7520   13.4570 C.3   300  3GP300      0.2283
     12  O2'       26.1020   -5.3870   13.6310 O.3   300  3GP300     -0.2159
     13  C1'       27.5200   -7.2700   13.9030 C.3   300  3GP300      0.2292
     14  N9        28.4550   -7.2120   12.7310 N.pl3 300  3GP300     -0.2354
     15  C8        28.7390   -6.2110   11.8270 C.3   300  3GP300      0.2246
     16  N7        29.6440   -6.5010   10.9220 N.2   300  3GP300     -0.2322
     17  C5        29.9800   -7.7770   11.2510 C.2   300  3GP300      0.2182
     18  C6        30.9380   -8.6520   10.6380 C.1   300  3GP300      0.2372
     19  O6        31.6570   -8.4360    9.6890 O.2   300  3GP300     -0.2069
     20  N1        30.9850   -9.8770   11.2750 N.2   300  3GP300     -0.2485
     21  C2        30.2100  -10.2350   12.3720 C.1   300  3GP300      0.2531
     22  N2        30.4330  -11.5060   12.8250 N.pl3 300  3GP300     -0.0226
     23  N3        29.3300   -9.4530   12.9580 N.2   300  3GP300     -0.3074
     24  C4        29.2550   -8.2410   12.3610 C.2   300  3GP300      0.2300
@<TRIPOS>BOND
     1    19    18    2
     2    18    17    1
     3    18    20    2
     4    16    17    2
     5    16    15    1
     6    17    24    1
     7    20    21    2
     8    15    14    1
     9    24    14    1
    10    24    23    2
    11    21    22    1
    12    21    23    2
    13    14    13    1
    14    11    12    1
    15    11    13    1
    16    11     9    1
    17     4     1    2
    18    13     8    1
    19     9     7    1
    20     9    10    1
    21     8     7    1
    22     1    10    1
    23     1     3    1
    24     1     2    1
    25     7     6    1
    26     6     5    1
