@<TRIPOS>MOLECULE
1xz8_5GP_A_1.pdb
 24 26 0 0 0
SMALL
GASTEIGER

@<TRIPOS>ATOM
      1  P         27.2360    1.7090    9.9370 P.3   200  5GP200      0.5327
      2  O1P       26.4230    2.4430    8.9610 O.2   200  5GP200     -0.2224
      3  O2P       28.6680    1.4950    9.5360 O.3   200  5GP200     -0.1145
      4  O3P       27.1460    2.3610   11.3530 O.3   200  5GP200     -0.1145
      5  O5'       26.7010    0.2850   10.0970 O.3   200  5GP200     -0.2675
      6  C5'       25.4670    0.0260   10.7080 C.3   200  5GP200      0.1859
      7  C4'       25.2510   -1.4350   10.6700 C.3   200  5GP200      0.1801
      8  O4'       26.6370   -1.9160   10.5400 O.3   200  5GP200     -0.3326
      9  C3'       24.7460   -2.0890   11.9000 C.3   200  5GP200      0.2158
     10  O3'       23.3300   -2.2460   11.8950 O.3   200  5GP200     -0.2175
     11  C2'       25.4720   -3.4120   11.9070 C.3   200  5GP200      0.2310
     12  O2'       24.7580   -4.4260   11.1460 O.3   200  5GP200     -0.2158
     13  C1'       26.8050   -3.0920   11.2770 C.3   200  5GP200      0.2293
     14  N9        28.0450   -2.8650   12.1240 N.pl3 200  5GP200     -0.2354
     15  C8        29.2650   -2.4000   11.6980 C.3   200  5GP200      0.2246
     16  N7        30.2000   -2.3080   12.6020 N.2   200  5GP200     -0.2322
     17  C5        29.5420   -2.7600   13.7560 C.2   200  5GP200      0.2182
     18  C6        30.0800   -2.8990   15.0760 C.1   200  5GP200      0.2372
     19  O6        31.2060   -2.6590   15.4560 O.2   200  5GP200     -0.2069
     20  N1        29.1200   -3.3880   15.9900 N.2   200  5GP200     -0.2485
     21  C2        27.8160   -3.6940   15.6520 C.1   200  5GP200      0.2531
     22  N2        27.0760   -4.1460   16.6960 N.pl3 200  5GP200     -0.0226
     23  N3        27.2960   -3.5690   14.4040 N.2   200  5GP200     -0.3074
     24  C4        28.2220   -3.0960   13.4980 C.2   200  5GP200      0.2300
@<TRIPOS>BOND
     1     2     1    2
     2     3     1    1
     3     1     5    1
     4     1     4    1
     5     5     6    1
     6     8     7    1
     7     8    13    1
     8     7     6    1
     9     7     9    1
    10    12    11    1
    11    13    11    1
    12    13    14    1
    13    15    14    1
    14    15    16    1
    15    10     9    1
    16     9    11    1
    17    14    24    1
    18    16    17    2
    19    24    17    1
    20    24    23    2
    21    17    18    1
    22    23    21    2
    23    18    19    2
    24    18    20    2
    25    21    20    2
    26    21    22    1
