@<TRIPOS>MOLECULE
1xzc_PMB_A_1.pdb
 11 11 0 0 0
SMALL
GASTEIGER

@<TRIPOS>ATOM
      1  C1        -6.4070   40.8340   26.6420 C.ar  801  PMB801      0.0000
      2  C2        -5.1440   41.3950   26.6400 C.ar  801  PMB801      0.0000
      3  C3        -4.9710   42.7450   26.4280 C.ar  801  PMB801      0.0000
      4  C4        -6.0750   43.5370   26.2020 C.ar  801  PMB801      0.0000
      5  C5        -7.3470   42.9900   26.2140 C.ar  801  PMB801      0.0000
      6  C6        -7.5160   41.6310   26.4290 C.ar  801  PMB801      0.0000
      7  S1        -6.5920   39.0840   26.9200 S.3   801  PMB801      0.0000
      8  O1        -7.0440   38.9450   28.3000 O.3   801  PMB801      0.0000
      9  O2        -5.2790   38.4860   26.6700 O.3   801  PMB801      0.0000
     10  O3        -7.5860   38.6310   25.9530 O.3   801  PMB801      0.0000
     11 HG         -5.6370   45.3050   25.9130 Hg    801  PMB801      0.0000
@<TRIPOS>BOND
     1    11     4    1
     2    10     7    1
     3     4     5   ar
     4     4     3   ar
     5     5     6   ar
     6     3     2   ar
     7     6     1   ar
     8     2     1   ar
     9     1     7    1
    10     9     7    1
    11     7     8    1
