@<TRIPOS>MOLECULE
1xzk_DFP_A_1.pdb
 10 9 0 0 0
SMALL
GASTEIGER

@<TRIPOS>ATOM
      1  C1         4.6780    8.8960   16.0820 C.3   401  DFP401      0.1236
      2  C2         5.2710   10.2360   15.6440 C.3   401  DFP401      0.0325
      3  C3         4.3770    8.0290   14.8530 C.3   401  DFP401      0.0325
      4  C1'        0.8810    6.3440   17.5730 C.3   401  DFP401      0.1236
      5  C2'        1.3250    4.9660   17.0480 C.3   401  DFP401      0.0325
      6  C3'       -0.4470    6.7530   16.9490 C.3   401  DFP401      0.0325
      7  P          2.5720    8.4700   17.9870 P.3   401  DFP401      0.3659
      8  O1P        3.5130    9.1630   16.8320 O.3   401  DFP401     -0.2993
      9  O2P        1.8340    7.2590   17.1430 O.3   401  DFP401     -0.2993
     10  O3P        3.5360    7.8280   19.0250 O.3   401  DFP401     -0.1446
@<TRIPOS>BOND
     1     3     1    1
     2     2     1    1
     3     1     8    1
     4     8     7    1
     5     6     4    1
     6     5     4    1
     7     9     4    1
     8     9     7    1
     9     7    10    1
