@<TRIPOS>MOLECULE
1xzl_HEE_A_1.pdb
 11 10 0 0 0
SMALL
GASTEIGER

@<TRIPOS>ATOM
      1  C1        10.0030   54.9560   16.7080 C.3   901  HEE901      0.0809
      2  C2         9.8360   54.3630   15.3290 C.3   901  HEE901      0.0095
      3  C3         9.7620   52.8570   15.3980 C.3   901  HEE901      0.0005
      4  C4        10.5930   52.2150   14.3150 C.3   901  HEE901      0.0000
      5  C5        12.0500   52.1130   14.7190 C.3   901  HEE901      0.0000
      6  C6        12.5020   50.6840   14.6760 C.3   901  HEE901      0.0000
      7  P          8.7530   55.0240   17.7210 P.3   901  HEE901      0.2200
      8  O1P        8.5300   53.5520   18.3000 O.3   901  HEE901     -0.1774
      9  O2P        9.1530   56.1150   18.8530 O.3   901  HEE901     -0.3173
     10  C1'        9.9580   57.2720   18.5780 C.3   901  HEE901      0.1487
     11  C2'       10.6950   57.6890   19.8300 C.3   901  HEE901      0.0351
@<TRIPOS>BOND
     1     4     5    1
     2     4     3    1
     3     6     5    1
     4     2     3    1
     5     2     1    1
     6     1     7    1
     7     7     8    1
     8     7     9    1
     9    10     9    1
    10    10    11    1
