@<TRIPOS>MOLECULE
1xzm_DPE_A_1.pdb
 15 14 0 0 0
SMALL
GASTEIGER

@<TRIPOS>ATOM
      1  C1         9.9200   54.5560   16.4580 C.3   901  DPE901      0.0809
      2  C2         9.7520   53.1860   15.8170 C.3   901  DPE901      0.0095
      3  C3        10.6190   53.0140   14.5820 C.3   901  DPE901      0.0005
      4  C4        11.9530   52.3630   14.9200 C.3   901  DPE901      0.0000
      5  C5        11.8740   50.8520   14.8360 C.3   901  DPE901      0.0000
      6  C6        13.2310   50.2410   14.5300 C.3   901  DPE901      0.0000
      7  C7        13.7220   49.3730   15.6760 C.3   901  DPE901      0.0000
      8  C8        15.0700   48.7350   15.3590 C.3   901  DPE901      0.0000
      9  C9        16.1610   49.7840   15.1760 C.3   901  DPE901      0.0000
     10  C10       17.5050   49.1400   14.8690 C.3   901  DPE901      0.0000
     11  C11       17.9430   49.4830   13.4590 C.3   901  DPE901      0.0000
     12  P          8.8030   54.9570   17.5700 P.3   901  DPE901      0.2201
     13  O1P        8.4900   53.6020   18.3320 O.3   901  DPE901     -0.1774
     14  O2P        9.3260   56.0680   18.6330 O.3   901  DPE901     -0.3146
     15  CM         9.5610   57.4270   18.2820 C.3   901  DPE901      0.1810
@<TRIPOS>BOND
     1    11    10    1
     2     6     5    1
     3     6     7    1
     4     3     4    1
     5     3     2    1
     6     5     4    1
     7    10     9    1
     8     9     8    1
     9     8     7    1
    10     2     1    1
    11     1    12    1
    12    12    13    1
    13    12    14    1
    14    15    14    1
