@<TRIPOS>MOLECULE
1xzu_HEM_A_1.pdb
 43 50 0 0 0
SMALL
GASTEIGER

@<TRIPOS>ATOM
      1 FE          8.2970   40.9320  -15.0700 Fe    142  HEM142      0.0000
      2  CHA        6.6770   43.6180  -16.4030 C.2   142  HEM142      0.0000
      3  CHB        6.1710   40.9680  -12.3810 C.2   142  HEM142      0.0000
      4  CHC       10.1140   38.4300  -13.5840 C.2   142  HEM142      0.0000
      5  CHD       10.8500   41.3640  -17.3980 C.2   142  HEM142      0.0000
      6  NA         6.7420   42.0770  -14.5100 N.2   142  HEM142      0.0000
      7  C1A        6.2090   43.1410  -15.1970 C.2   142  HEM142      0.0000
      8  C2A        5.0830   43.6580  -14.4630 C.2   142  HEM142      0.0000
      9  C3A        4.9270   42.9210  -13.3690 C.2   142  HEM142      0.0000
     10  C4A        5.9560   41.9180  -13.3660 C.2   142  HEM142      0.0000
     11  CMA        3.9070   43.0660  -12.2170 C.3   142  HEM142      0.0000
     12  CAA        4.2690   44.8510  -14.9960 C.3   142  HEM142      0.0000
     13  CBA        3.1010   44.4620  -15.9480 C.3   142  HEM142      0.0000
     14  CGA        2.0790   45.5930  -16.0350 C.2   142  HEM142      0.0000
     15  O1A        1.0040   45.4240  -15.4010 O.co2 142  HEM142      0.0000
     16  O2A        2.4330   46.5970  -16.7070 O.co2 142  HEM142      0.0000
     17  NB         8.1370   39.8720  -13.3460 N.ar  142  HEM142      0.0000
     18  C1B        7.2310   40.0850  -12.3150 C.ar  142  HEM142      0.0000
     19  C2B        7.5430   39.1940  -11.2140 C.ar  142  HEM142      0.0000
     20  C3B        8.6210   38.4810  -11.5440 C.ar  142  HEM142      0.0000
     21  C4B        9.0190   38.9080  -12.8740 C.ar  142  HEM142      0.0000
     22  CMB        6.7120   39.1720   -9.9270 C.3   142  HEM142      0.0000
     23  CAB        9.4420   37.4440  -10.7880 C.2   142  HEM142      0.0000
     24  CBB        9.0990   36.6930   -9.7970 C.2   142  HEM142      0.0000
     25  NC        10.0930   40.0340  -15.4540 N.2   142  HEM142      0.0000
     26  C1C       10.7100   39.0640  -14.6790 C.2   142  HEM142      0.0000
     27  C2C       12.0510   38.8480  -15.1480 C.2   142  HEM142      0.0000
     28  C3C       12.2570   39.6650  -16.1740 C.2   142  HEM142      0.0000
     29  C4C       11.0430   40.4230  -16.3930 C.2   142  HEM142      0.0000
     30  CMC       13.0050   37.8280  -14.5080 C.3   142  HEM142      0.0000
     31  CAC       13.5290   39.8330  -17.0310 C.2   142  HEM142      0.0000
     32  CBC       14.7460   39.6470  -16.5050 C.2   142  HEM142      0.0000
     33  ND         8.6970   42.2370  -16.5840 N.ar  142  HEM142      0.0000
     34  C1D        9.7710   42.2130  -17.4670 C.ar  142  HEM142      0.0000
     35  C2D        9.5870   43.2510  -18.4650 C.ar  142  HEM142      0.0000
     36  C3D        8.4320   43.8600  -18.1880 C.ar  142  HEM142      0.0000
     37  C4D        7.8790   43.2580  -17.0040 C.ar  142  HEM142      0.0000
     38  CMD       10.5780   43.5320  -19.6130 C.3   142  HEM142      0.0000
     39  CAD        7.7470   45.0410  -18.9310 C.3   142  HEM142      0.0000
     40  CBD        8.3510   46.3650  -18.5500 C.3   142  HEM142      0.0000
     41  CGD        7.8040   47.6220  -19.1190 C.2   142  HEM142      0.0000
     42  O1D        7.1710   48.3550  -18.3200 O.co2 142  HEM142      0.0000
     43  O2D        8.0660   47.8570  -20.3230 O.co2 142  HEM142      0.0000
@<TRIPOS>BOND
     1    43    41   ar
     2    38    35    1
     3    41    40    1
     4    41    42   ar
     5    39    40    1
     6    39    36    1
     7    35    36   ar
     8    35    34   ar
     9    36    37   ar
    10    34     5    2
    11    34    33   ar
    12     5    29    1
    13    31    32    2
    14    31    28    1
    15    37    33   ar
    16    37     2    2
    17    16    14   ar
    18    33     1    1
    19     2     7    1
    20    29    28    1
    21    29    25    2
    22    28    27    2
    23    14    13    1
    24    14    15   ar
    25    13    12    1
    26    25     1    1
    27    25    26    1
    28     7     6    2
    29     7     8    1
    30    27    26    1
    31    27    30    1
    32     1     6    1
    33     1    17    1
    34    12     8    1
    35    26     4    2
    36     6    10    1
    37     8     9    2
    38     4    21    1
    39     9    10    1
    40     9    11    1
    41    10     3    2
    42    17    21   ar
    43    17    18   ar
    44    21    20   ar
    45     3    18    1
    46    18    19   ar
    47    20    19   ar
    48    20    23    1
    49    19    22    1
    50    23    24    2
