@<TRIPOS>MOLECULE
1xzv_HEM_A_1.pdb
 43 50 0 0 0
SMALL
GASTEIGER

@<TRIPOS>ATOM
      1 FE          8.3670   40.5540  -15.3150 Fe    142  HEM142      0.0000
      2  CHA        6.8140   43.3120  -16.6630 C.2   142  HEM142      0.0000
      3  CHB        6.2550   40.7220  -12.6060 C.2   142  HEM142      0.0000
      4  CHC       10.2430   38.1740  -13.6710 C.2   142  HEM142      0.0000
      5  CHD       11.0360   41.0670  -17.5430 C.2   142  HEM142      0.0000
      6  NA         6.8800   41.7910  -14.7310 N.2   142  HEM142      0.0000
      7  C1A        6.3490   42.8360  -15.4480 C.2   142  HEM142      0.0000
      8  C2A        5.2400   43.3960  -14.7190 C.2   142  HEM142      0.0000
      9  C3A        5.0730   42.6770  -13.6190 C.2   142  HEM142      0.0000
     10  C4A        6.0820   41.6460  -13.6100 C.2   142  HEM142      0.0000
     11  CMA        4.0560   42.8260  -12.4560 C.3   142  HEM142      0.0000
     12  CAA        4.4560   44.6040  -15.2700 C.3   142  HEM142      0.0000
     13  CBA        3.2560   44.2430  -16.1790 C.3   142  HEM142      0.0000
     14  CGA        2.2690   45.3870  -16.3170 C.2   142  HEM142      0.0000
     15  O1A        1.2230   45.3000  -15.6190 O.co2 142  HEM142      0.0000
     16  O2A        2.5860   46.3290  -17.0910 O.co2 142  HEM142      0.0000
     17  NB         8.2740   39.6410  -13.4970 N.ar  142  HEM142      0.0000
     18  C1B        7.3230   39.8590  -12.5060 C.ar  142  HEM142      0.0000
     19  C2B        7.5890   38.9860  -11.3820 C.ar  142  HEM142      0.0000
     20  C3B        8.6840   38.2620  -11.6730 C.ar  142  HEM142      0.0000
     21  C4B        9.1340   38.6740  -12.9990 C.ar  142  HEM142      0.0000
     22  CMB        6.7030   38.9670  -10.1110 C.3   142  HEM142      0.0000
     23  CAB        9.4560   37.2360  -10.8570 C.2   142  HEM142      0.0000
     24  CBB        8.9820   36.2990  -10.1000 C.2   142  HEM142      0.0000
     25  NC        10.2420   39.7590  -15.5860 N.2   142  HEM142      0.0000
     26  C1C       10.8380   38.7890  -14.7860 C.2   142  HEM142      0.0000
     27  C2C       12.1770   38.5560  -15.2350 C.2   142  HEM142      0.0000
     28  C3C       12.4000   39.3720  -16.2730 C.2   142  HEM142      0.0000
     29  C4C       11.1900   40.1350  -16.5190 C.2   142  HEM142      0.0000
     30  CMC       13.1290   37.5330  -14.5800 C.3   142  HEM142      0.0000
     31  CAC       13.6820   39.5200  -17.1320 C.2   142  HEM142      0.0000
     32  CBC       14.9010   39.4810  -16.5760 C.2   142  HEM142      0.0000
     33  ND         8.8390   41.9130  -16.7850 N.ar  142  HEM142      0.0000
     34  C1D        9.9400   41.8990  -17.6330 C.ar  142  HEM142      0.0000
     35  C2D        9.7950   42.9600  -18.6140 C.ar  142  HEM142      0.0000
     36  C3D        8.6270   43.5600  -18.3720 C.ar  142  HEM142      0.0000
     37  C4D        8.0290   42.9320  -17.2120 C.ar  142  HEM142      0.0000
     38  CMD       10.8160   43.2750  -19.7330 C.3   142  HEM142      0.0000
     39  CAD        7.9620   44.7680  -19.0900 C.3   142  HEM142      0.0000
     40  CBD        8.2310   46.0960  -18.4160 C.3   142  HEM142      0.0000
     41  CGD        7.8520   47.3380  -19.1530 C.2   142  HEM142      0.0000
     42  O1D        7.2300   48.2160  -18.5050 O.co2 142  HEM142      0.0000
     43  O2D        8.2030   47.4160  -20.3520 O.co2 142  HEM142      0.0000
@<TRIPOS>BOND
     1    43    41   ar
     2    38    35    1
     3    41    42   ar
     4    41    40    1
     5    39    40    1
     6    39    36    1
     7    35    36   ar
     8    35    34   ar
     9    36    37   ar
    10    34     5    2
    11    34    33   ar
    12     5    29    1
    13    37    33   ar
    14    37     2    2
    15    31    32    2
    16    31    28    1
    17    16    14   ar
    18    33     1    1
    19     2     7    1
    20    29    28    1
    21    29    25    2
    22    14    13    1
    23    14    15   ar
    24    28    27    2
    25    13    12    1
    26    25     1    1
    27    25    26    1
    28     7     6    2
    29     7     8    1
    30     1     6    1
    31     1    17    1
    32    12     8    1
    33    27    26    1
    34    27    30    1
    35    26     4    2
    36     6    10    1
    37     8     9    2
    38     4    21    1
    39     9    10    1
    40     9    11    1
    41    10     3    2
    42    17    21   ar
    43    17    18   ar
    44    21    20   ar
    45     3    18    1
    46    18    19   ar
    47    20    19   ar
    48    20    23    1
    49    19    22    1
    50    23    24    2
