@<TRIPOS>MOLECULE
1xzx_T3_X_1.pdb
 23 24 0 0 0
SMALL
GASTEIGER

@<TRIPOS>ATOM
      1  C1         6.7300   20.8490   92.9310 C.ar  500  T3500      -0.0191
      2  C2         3.4730   18.2180   95.5170 C.ar  500  T3500       0.1460
      3  C3         6.9610   20.5530   94.2780 C.ar  500  T3500       0.0047
      4  C4         3.1800   17.3620   96.5190 C.ar  500  T3500       0.0465
      5  C5         6.2560   19.5770   94.9000 C.ar  500  T3500       0.0647
      6  C6         2.0150   17.5480   97.2700 C.ar  500  T3500       0.0720
      7  C7         5.2220   18.9150   94.1360 C.ar  500  T3500       0.1558
      8  C8         1.1460   18.6720   97.0820 C.ar  500  T3500       0.2012
      9  C9         4.9250   19.2600   92.7670 C.ar  500  T3500       0.0647
     10  C10        1.5120   19.5430   96.1290 C.ar  500  T3500       0.0456
     11  C11        5.7310   20.2430   92.2170 C.ar  500  T3500       0.0047
     12  C12        2.6570   19.3270   95.3460 C.ar  500  T3500       0.0408
     13  C13        7.5580   21.9760   92.3010 C.3   500  T3500       0.0570
     14  C15        8.2250   21.6560   91.0010 C.3   500  T3500       0.1986
     15  C17        9.2030   22.7600   90.7150 C.2   500  T3500       0.3822
     16  I1         6.6790   18.9080   96.8980 I     500  T3500      -0.0393
     17  I2         1.4370   16.2310   98.8510 I     500  T3500      -0.0391
     18  I3         3.5130   18.1420   91.6440 I     500  T3500      -0.0393
     19  N1         8.7620   20.3200   90.9670 N.3   500  T3500      -0.1205
     20  O1         0.0960   18.7990   97.8550 O.3   500  T3500      -0.2861
     21  O2         4.5780   17.9420   94.7110 O.3   500  T3500      -0.4526
     22  O3        10.2920   22.4520   90.0490 O.co2 500  T3500      -0.2440
     23  O4         8.9880   23.9600   91.0200 O.co2 500  T3500      -0.2440
@<TRIPOS>BOND
     1    22    15   ar
     2    15    14    1
     3    15    23   ar
     4    19    14    1
     5    14    13    1
     6    18     9    1
     7    11     9   ar
     8    11     1   ar
     9    13     1    1
    10     9     7   ar
    11     1     3   ar
    12     7    21    1
    13     7     5   ar
    14     3     5   ar
    15    21     2    1
    16     5    16    1
    17    12     2   ar
    18    12    10   ar
    19     2     4   ar
    20    10     8   ar
    21     4     6   ar
    22     8     6   ar
    23     8    20    1
    24     6    17    1
