@<TRIPOS>MOLECULE
1y01_HEM_B_1.pdb
 43 50 0 0 0
SMALL
GASTEIGER

@<TRIPOS>ATOM
      1 FE         28.6340   10.8470   13.0290 Fe    142  HEM142      0.0000
      2  CHA       30.5170   13.2020   14.5290 C.2   142  HEM142      0.0000
      3  CHB       31.3790    9.8530   11.2690 C.2   142  HEM142      0.0000
      4  CHC       26.8870    8.5340   11.3610 C.2   142  HEM142      0.0000
      5  CHD       25.9110   11.8770   14.6680 C.2   142  HEM142      0.0000
      6  NA        30.5500   11.3810   12.9150 N.ar  142  HEM142      0.0000
      7  C1A       31.1200   12.4190   13.6250 C.ar  142  HEM142      0.0000
      8  C2A       32.4940   12.5630   13.1500 C.ar  142  HEM142      0.0000
      9  C3A       32.6980   11.5950   12.2470 C.ar  142  HEM142      0.0000
     10  C4A       31.5120   10.8710   12.1220 C.ar  142  HEM142      0.0000
     11  CMA       33.9480   11.3050   11.4750 C.3   142  HEM142      0.0000
     12  CAA       33.5180   13.6330   13.5420 C.3   142  HEM142      0.0000
     13  CBA       33.0970   14.7520   12.6200 C.3   142  HEM142      0.0000
     14  CGA       33.6950   16.1090   12.3830 C.2   142  HEM142      0.0000
     15  O1A       34.3120   16.1310   11.2810 O.co2 142  HEM142      0.0000
     16  O2A       33.4800   17.1320   13.1010 O.co2 142  HEM142      0.0000
     17  NB        29.0930    9.4310   11.5960 N.2   142  HEM142      0.0000
     18  C1B       30.2950    9.1840   11.0150 C.2   142  HEM142      0.0000
     19  C2B       30.2480    8.1110   10.0620 C.2   142  HEM142      0.0000
     20  C3B       28.9230    7.7310   10.0870 C.2   142  HEM142      0.0000
     21  C4B       28.2400    8.5850   11.0420 C.2   142  HEM142      0.0000
     22  CMB       31.4290    7.6000    9.2430 C.3   142  HEM142      0.0000
     23  CAB       28.2280    6.6960    9.3220 C.2   142  HEM142      0.0000
     24  CBB       28.6380    5.4760    9.0160 C.2   142  HEM142      0.0000
     25  NC        26.7010   10.2950   13.0140 N.ar  142  HEM142      0.0000
     26  C1C       26.1760    9.3210   12.2500 C.ar  142  HEM142      0.0000
     27  C2C       24.7520    9.2290   12.5230 C.ar  142  HEM142      0.0000
     28  C3C       24.4810   10.1840   13.4670 C.ar  142  HEM142      0.0000
     29  C4C       25.7310   10.8420   13.7620 C.ar  142  HEM142      0.0000
     30  CMC       23.8210    8.2500   11.8590 C.3   142  HEM142      0.0000
     31  CAC       23.2040   10.5280   14.1020 C.2   142  HEM142      0.0000
     32  CBC       22.1120   10.9490   13.4920 C.2   142  HEM142      0.0000
     33  ND        28.2780   12.3110   14.4220 N.2   142  HEM142      0.0000
     34  C1D       27.0770   12.5550   14.9680 C.2   142  HEM142      0.0000
     35  C2D       27.1670   13.6360   15.9110 C.2   142  HEM142      0.0000
     36  C3D       28.4940   14.0680   15.9210 C.2   142  HEM142      0.0000
     37  C4D       29.1860   13.1890   14.9360 C.2   142  HEM142      0.0000
     38  CMD       26.0040   14.1860   16.7120 C.3   142  HEM142      0.0000
     39  CAD       29.0220   15.2270   16.7810 C.3   142  HEM142      0.0000
     40  CBD       30.2790   15.9590   16.2430 C.3   142  HEM142      0.0000
     41  CGD       30.6790   17.1860   17.0990 C.2   142  HEM142      0.0000
     42  O1D       31.4860   18.0480   16.5880 O.co2 142  HEM142      0.0000
     43  O2D       30.1310   17.3190   18.2240 O.co2 142  HEM142      0.0000
@<TRIPOS>BOND
     1    24    23    2
     2    22    19    1
     3    23    20    1
     4    19    20    2
     5    19    18    1
     6    20    21    1
     7    18     3    1
     8    18    17    2
     9    21     4    2
    10    21    17    1
    11     3    10    2
    12    15    14   ar
    13     4    26    1
    14    11     9    1
    15    17     1    1
    16    30    27    1
    17    10     9   ar
    18    10     6   ar
    19     9     8   ar
    20    26    27   ar
    21    26    25   ar
    22    14    13    1
    23    14    16   ar
    24    27    28   ar
    25    13    12    1
    26     6     1    1
    27     6     7   ar
    28    25     1    1
    29    25    29   ar
    30     1    33    1
    31     8    12    1
    32     8     7   ar
    33    28    29   ar
    34    28    31    1
    35    32    31    2
    36     7     2    2
    37    29     5    1
    38    33    37    2
    39    33    34    1
    40     2    37    1
    41     5    34    2
    42    37    36    1
    43    34    35    1
    44    35    36    2
    45    35    38    1
    46    36    39    1
    47    40    39    1
    48    40    41    1
    49    42    41   ar
    50    41    43   ar
