@<TRIPOS>MOLECULE
1y01_CHK_B_1.pdb
 24 24 0 0 0
SMALL
GASTEIGER

@<TRIPOS>ATOM
      1  OX1       26.1670   16.7970   14.2230 O.2   144  CHK144     -0.2749
      2  CX1       26.7110   16.8300   13.1790 C.2   144  CHK144      0.2258
      3  CX2       26.0040   16.2820   11.9370 C.3   144  CHK144      0.0853
      4  CX3       24.5270   15.8660   12.1750 C.3   144  CHK144      0.0091
      5  CX4       24.0410   15.0830   10.9350 C.3   144  CHK144      0.0005
      6  CX5       22.5630   14.6060   11.0310 C.3   144  CHK144      0.0000
      7  CX6       22.2050   14.0250   12.4190 C.3   144  CHK144      0.0000
      8  CX7       22.6000   14.9470   13.5550 C.3   144  CHK144      0.0000
      9  CX8       24.1510   15.1360   13.5320 C.3   144  CHK144      0.0005
     10  NX1       27.9460   17.3720   13.1320 N.am  144  CHK144     -0.2741
     11  CX9       28.6470   17.9210   14.3560 C.3   144  CHK144      0.1290
     12  CXA       29.9610   18.7650   14.0110 C.3   144  CHK144      0.2035
     13  OX2       29.7430   20.1900   14.1590 O.3   144  CHK144     -0.2185
     14  CXB       28.6180   17.6000   11.9090 C.3   144  CHK144      0.1290
     15  CXC       29.8870   17.1100   11.2980 C.3   144  CHK144      0.2044
     16  OX3       29.7770   15.7810   10.8760 O.3   144  CHK144     -0.2185
     17  CXD       29.8110   18.1810   10.2390 C.3   144  CHK144      0.2166
     18  OX4       29.8770   19.4410   10.9430 O.3   144  CHK144     -0.2175
     19  CXE       30.8770   18.4600    9.2220 C.3   144  CHK144      0.2175
     20  OX5       31.2390   17.3800    8.3720 O.3   144  CHK144     -0.2175
     21  CXF       30.2100   19.6810    8.4020 C.3   144  CHK144      0.2175
     22  OX6       29.7060   20.8380    9.1360 O.3   144  CHK144     -0.2175
     23  CXG       31.0720   20.2660    7.3170 C.3   144  CHK144      0.2175
     24  OX7       30.3020   21.3510    6.7630 O.3   144  CHK144     -0.2175
@<TRIPOS>BOND
     1    24    23    1
     2    23    21    1
     3    20    19    1
     4    21    22    1
     5    21    19    1
     6    19    17    1
     7    17    18    1
     8    17    15    1
     9    16    15    1
    10     5     6    1
    11     5     4    1
    12     6     7    1
    13    15    14    1
    14    14    10    1
    15     3     4    1
    16     3     2    1
    17     4     9    1
    18     7     8    1
    19    10     2   am
    20    10    11    1
    21     2     1    2
    22     9     8    1
    23    12    13    1
    24    12    11    1
