@<TRIPOS>MOLECULE
1y09_HEM_A_1.pdb
 43 50 0 0 0
SMALL
GASTEIGER

@<TRIPOS>ATOM
      1 FE          8.0870   40.5340  -15.4120 Fe    142  HEM142      0.0000
      2  CHA        6.5640   43.1540  -16.7960 C.2   142  HEM142      0.0000
      3  CHB        6.0520   40.7160  -12.6880 C.2   142  HEM142      0.0000
      4  CHC       10.1960   38.3340  -13.5150 C.2   142  HEM142      0.0000
      5  CHD       10.8770   41.0470  -17.4770 C.2   142  HEM142      0.0000
      6  NA         6.6180   41.7300  -14.8520 N.2   142  HEM142      0.0000
      7  C1A        6.0840   42.7220  -15.6040 C.2   142  HEM142      0.0000
      8  C2A        4.9370   43.2510  -14.9140 C.2   142  HEM142      0.0000
      9  C3A        4.8170   42.6160  -13.7570 C.2   142  HEM142      0.0000
     10  C4A        5.8430   41.6260  -13.6960 C.2   142  HEM142      0.0000
     11  CMA        3.6910   42.9190  -12.7180 C.3   142  HEM142      0.0000
     12  CAA        4.0560   44.4460  -15.3410 C.3   142  HEM142      0.0000
     13  CBA        3.0650   44.1390  -16.4470 C.3   142  HEM142      0.0000
     14  CGA        2.0580   45.2830  -16.4910 C.2   142  HEM142      0.0000
     15  O1A        0.9700   45.1890  -15.8540 O.co2 142  HEM142      0.0000
     16  O2A        2.3630   46.3100  -17.1210 O.co2 142  HEM142      0.0000
     17  NB         8.1810   39.7310  -13.4640 N.ar  142  HEM142      0.0000
     18  C1B        7.1320   39.8370  -12.5900 C.ar  142  HEM142      0.0000
     19  C2B        7.3490   38.8340  -11.5620 C.ar  142  HEM142      0.0000
     20  C3B        8.4980   38.2150  -11.7660 C.ar  142  HEM142      0.0000
     21  C4B        9.0260   38.7400  -12.9740 C.ar  142  HEM142      0.0000
     22  CMB        6.4850   38.6480  -10.3540 C.3   142  HEM142      0.0000
     23  CAB        9.1610   37.0860  -10.9670 C.2   142  HEM142      0.0000
     24  CBB        9.5360   37.2230   -9.7010 C.2   142  HEM142      0.0000
     25  NC        10.1080   39.8900  -15.4140 N.2   142  HEM142      0.0000
     26  C1C       10.6990   38.9000  -14.6630 C.2   142  HEM142      0.0000
     27  C2C       12.0450   38.7200  -15.1110 C.2   142  HEM142      0.0000
     28  C3C       12.1220   39.3040  -16.2820 C.2   142  HEM142      0.0000
     29  C4C       10.9980   40.1600  -16.4380 C.2   142  HEM142      0.0000
     30  CMC       12.9120   37.5160  -14.7180 C.3   142  HEM142      0.0000
     31  CAC       13.3420   39.2180  -17.1970 C.2   142  HEM142      0.0000
     32  CBC       14.5620   39.1840  -16.6440 C.2   142  HEM142      0.0000
     33  ND         8.6860   41.9190  -16.8750 N.ar  142  HEM142      0.0000
     34  C1D        9.8170   41.8960  -17.6780 C.ar  142  HEM142      0.0000
     35  C2D        9.6990   42.8930  -18.7350 C.ar  142  HEM142      0.0000
     36  C3D        8.3630   43.5270  -18.5090 C.ar  142  HEM142      0.0000
     37  C4D        7.8030   42.8810  -17.3290 C.ar  142  HEM142      0.0000
     38  CMD       10.6770   43.2490  -19.8280 C.3   142  HEM142      0.0000
     39  CAD        7.7580   44.6840  -19.3330 C.3   142  HEM142      0.0000
     40  CBD        8.4900   45.9180  -18.8290 C.3   142  HEM142      0.0000
     41  CGD        7.8670   47.1460  -19.4200 C.2   142  HEM142      0.0000
     42  O1D        7.1640   47.8940  -18.6730 O.co2 142  HEM142      0.0000
     43  O2D        8.0500   47.3060  -20.6480 O.co2 142  HEM142      0.0000
@<TRIPOS>BOND
     1    43    41   ar
     2    38    35    1
     3    41    40    1
     4    41    42   ar
     5    39    40    1
     6    39    36    1
     7    35    36   ar
     8    35    34   ar
     9    36    37   ar
    10    34     5    2
    11    34    33   ar
    12     5    29    1
    13    37    33   ar
    14    37     2    2
    15    31    32    2
    16    31    28    1
    17    16    14   ar
    18    33     1    1
    19     2     7    1
    20    14    13    1
    21    14    15   ar
    22    13    12    1
    23    29    28    1
    24    29    25    2
    25    28    27    2
    26     7     8    1
    27     7     6    2
    28    25     1    1
    29    25    26    1
    30     1     6    1
    31     1    17    1
    32    12     8    1
    33    27    30    1
    34    27    26    1
    35     8     9    2
    36     6    10    1
    37    26     4    2
    38     9    10    1
    39     9    11    1
    40    10     3    2
    41     4    21    1
    42    17    21   ar
    43    17    18   ar
    44    21    20   ar
    45     3    18    1
    46    18    19   ar
    47    20    19   ar
    48    20    23    1
    49    19    22    1
    50    23    24    2
