@<TRIPOS>MOLECULE
1y0a_HEM_A_1.pdb
 43 50 0 0 0
SMALL
GASTEIGER

@<TRIPOS>ATOM
      1 FE          8.3080   40.6290  -15.2670 Fe    142  HEM142      0.0000
      2  CHA        6.7840   43.3910  -16.5650 C.2   142  HEM142      0.0000
      3  CHB        6.2490   40.8200  -12.4990 C.2   142  HEM142      0.0000
      4  CHC       10.2560   38.3320  -13.6080 C.2   142  HEM142      0.0000
      5  CHD       10.9520   41.0970  -17.5750 C.2   142  HEM142      0.0000
      6  NA         6.8480   41.8990  -14.6270 N.2   142  HEM142      0.0000
      7  C1A        6.3110   42.9480  -15.3390 C.2   142  HEM142      0.0000
      8  C2A        5.1680   43.4530  -14.6330 C.2   142  HEM142      0.0000
      9  C3A        5.0210   42.7440  -13.5230 C.2   142  HEM142      0.0000
     10  C4A        6.0550   41.7420  -13.5100 C.2   142  HEM142      0.0000
     11  CMA        3.9710   42.9190  -12.3990 C.3   142  HEM142      0.0000
     12  CAA        4.3100   44.6330  -15.1440 C.3   142  HEM142      0.0000
     13  CBA        3.0750   44.2400  -15.9780 C.3   142  HEM142      0.0000
     14  CGA        2.1780   45.4280  -16.2790 C.2   142  HEM142      0.0000
     15  O1A        1.0670   45.4400  -15.6870 O.co2 142  HEM142      0.0000
     16  O2A        2.6310   46.3080  -17.0610 O.co2 142  HEM142      0.0000
     17  NB         8.2730   39.7770  -13.4090 N.ar  142  HEM142      0.0000
     18  C1B        7.3200   39.9650  -12.4200 C.ar  142  HEM142      0.0000
     19  C2B        7.6140   39.1040  -11.2860 C.ar  142  HEM142      0.0000
     20  C3B        8.7200   38.4070  -11.5770 C.ar  142  HEM142      0.0000
     21  C4B        9.1450   38.8180  -12.9120 C.ar  142  HEM142      0.0000
     22  CMB        6.7360   39.1010  -10.0120 C.3   142  HEM142      0.0000
     23  CAB        9.5300   37.4130  -10.7560 C.2   142  HEM142      0.0000
     24  CBB        9.2100   36.2420  -10.2970 C.2   142  HEM142      0.0000
     25  NC        10.1930   39.8440  -15.5590 N.2   142  HEM142      0.0000
     26  C1C       10.8250   38.9090  -14.7470 C.2   142  HEM142      0.0000
     27  C2C       12.1530   38.6680  -15.2390 C.2   142  HEM142      0.0000
     28  C3C       12.3350   39.4430  -16.3120 C.2   142  HEM142      0.0000
     29  C4C       11.1140   40.1950  -16.5310 C.2   142  HEM142      0.0000
     30  CMC       13.1440   37.6740  -14.6110 C.3   142  HEM142      0.0000
     31  CAC       13.5900   39.5800  -17.2160 C.2   142  HEM142      0.0000
     32  CBC       14.8140   39.3480  -16.7010 C.2   142  HEM142      0.0000
     33  ND         8.7770   41.9670  -16.7410 N.ar  142  HEM142      0.0000
     34  C1D        9.8570   41.9280  -17.6220 C.ar  142  HEM142      0.0000
     35  C2D        9.7040   42.9790  -18.6070 C.ar  142  HEM142      0.0000
     36  C3D        8.5580   43.6150  -18.3290 C.ar  142  HEM142      0.0000
     37  C4D        7.9780   43.0100  -17.1570 C.ar  142  HEM142      0.0000
     38  CMD       10.7390   43.2780  -19.7150 C.3   142  HEM142      0.0000
     39  CAD        7.9250   44.8420  -19.0350 C.3   142  HEM142      0.0000
     40  CBD        8.3290   46.1500  -18.3480 C.3   142  HEM142      0.0000
     41  CGD        7.9190   47.4240  -19.0140 C.2   142  HEM142      0.0000
     42  O1D        7.3210   48.2640  -18.2930 O.co2 142  HEM142      0.0000
     43  O2D        8.2120   47.5700  -20.2260 O.co2 142  HEM142      0.0000
@<TRIPOS>BOND
     1    43    41   ar
     2    38    35    1
     3    39    40    1
     4    39    36    1
     5    41    40    1
     6    41    42   ar
     7    35    36   ar
     8    35    34   ar
     9    36    37   ar
    10    34     5    2
    11    34    33   ar
    12     5    29    1
    13    31    32    2
    14    31    28    1
    15    37    33   ar
    16    37     2    2
    17    16    14   ar
    18    33     1    1
    19     2     7    1
    20    29    28    1
    21    29    25    2
    22    28    27    2
    23    14    13    1
    24    14    15   ar
    25    13    12    1
    26    25     1    1
    27    25    26    1
    28     7     8    1
    29     7     6    2
    30     1     6    1
    31     1    17    1
    32    27    26    1
    33    27    30    1
    34    12     8    1
    35    26     4    2
    36     8     9    2
    37     6    10    1
    38     4    21    1
    39     9    10    1
    40     9    11    1
    41    10     3    2
    42    17    21   ar
    43    17    18   ar
    44    21    20   ar
    45     3    18    1
    46    18    19   ar
    47    20    19   ar
    48    20    23    1
    49    19    22    1
    50    23    24    2
