@<TRIPOS>MOLECULE
1y0b_G4P_A_1.pdb
 28 30 0 0 0
SMALL
GASTEIGER

@<TRIPOS>ATOM
      1  O5'        4.0550   37.6920   41.6440 O.3   888  G4P888     -0.2176
      2  C5'        4.7820   38.8640   41.9440 C.3   888  G4P888      0.2141
      3  C4'        4.8020   39.7860   40.7250 C.3   888  G4P888      0.1800
      4  O4'        5.3970   39.1790   39.6220 O.3   888  G4P888     -0.3326
      5  C3'        3.4040   40.2290   40.3120 C.3   888  G4P888      0.1858
      6  O3'        3.4360   41.6040   40.0080 O.3   888  G4P888     -0.3109
      7  C2'        3.1690   39.3830   39.0660 C.3   888  G4P888      0.2282
      8  O2'        2.3360   40.0140   38.1420 O.3   888  G4P888     -0.2159
      9  C1'        4.5760   39.3710   38.5110 C.3   888  G4P888      0.2292
     10  N9         4.9620   38.3990   37.4980 N.pl3 888  G4P888     -0.2354
     11  C8         4.9020   37.0800   37.5810 C.3   888  G4P888      0.2246
     12  N7         5.3810   36.5250   36.4830 N.2   888  G4P888     -0.2322
     13  C5         5.7620   37.5080   35.6950 C.2   888  G4P888      0.2182
     14  C6         6.3300   37.5360   34.4350 C.1   888  G4P888      0.2372
     15  O6         6.5830   36.5050   33.8360 O.2   888  G4P888     -0.2069
     16  N1         6.6080   38.7780   33.8690 N.2   888  G4P888     -0.2485
     17  C2         6.3380   39.9690   34.5220 C.1   888  G4P888      0.2531
     18  N2         6.5940   41.0440   34.0010 N.pl3 888  G4P888     -0.0226
     19  N3         5.7850   39.9220   35.7680 N.2   888  G4P888     -0.3074
     20  C4         5.5100   38.7050   36.3500 C.2   888  G4P888      0.2300
     21  PC         2.3190   42.6180   40.4110 P.3   888  G4P888      0.2231
     22  O1C        1.9090   42.2790   41.8650 O.3   888  G4P888     -0.4370
     23  O2C        1.2490   42.6300   39.4800 O.2   888  G4P888     -0.5169
     24  O3C        3.0810   43.9520   40.4890 O.3   888  G4P888     -0.2261
     25  PD         2.8310   45.3050   39.7580 P.3   888  G4P888      0.5373
     26  O1D        3.3260   45.1700   38.3210 O.2   888  G4P888     -0.2221
     27  O2D        1.3390   45.6660   39.7280 O.3   888  G4P888     -0.1143
     28  O3D        3.5620   46.3280   40.4440 O.3   888  G4P888     -0.1143
@<TRIPOS>BOND
     1    15    14    2
     2    16    14    2
     3    16    17    2
     4    18    17    1
     5    14    13    1
     6    17    19    2
     7    13    20    1
     8    13    12    2
     9    19    20    2
    10    20    10    1
    11    12    11    1
    12    10    11    1
    13    10     9    1
    14     8     7    1
    15    26    25    2
    16     9     7    1
    17     9     4    1
    18     7     5    1
    19    23    21    2
    20     4     3    1
    21    27    25    1
    22    25    28    1
    23    25    24    1
    24     6     5    1
    25     6    21    1
    26     5     3    1
    27    21    24    1
    28    21    22    1
    29     3     2    1
    30     1     2    1
