@<TRIPOS>MOLECULE
1y0c_HEM_A_1.pdb
 43 50 0 0 0
SMALL
GASTEIGER

@<TRIPOS>ATOM
      1 FE          8.3350   40.6210  -15.3170 Fe    142  HEM142      0.0000
      2  CHA        6.8240   43.3980  -16.6120 C.2   142  HEM142      0.0000
      3  CHB        6.2880   40.8370  -12.5470 C.2   142  HEM142      0.0000
      4  CHC       10.2790   38.3250  -13.6570 C.2   142  HEM142      0.0000
      5  CHD       11.0180   41.1570  -17.5520 C.2   142  HEM142      0.0000
      6  NA         6.8880   41.8970  -14.6830 N.2   142  HEM142      0.0000
      7  C1A        6.3570   42.9410  -15.3940 C.2   142  HEM142      0.0000
      8  C2A        5.2290   43.4870  -14.6840 C.2   142  HEM142      0.0000
      9  C3A        5.0660   42.7730  -13.5860 C.2   142  HEM142      0.0000
     10  C4A        6.1000   41.7580  -13.5540 C.2   142  HEM142      0.0000
     11  CMA        4.0430   42.9230  -12.4350 C.3   142  HEM142      0.0000
     12  CAA        4.4340   44.6800  -15.2360 C.3   142  HEM142      0.0000
     13  CBA        3.2450   44.3250  -16.1640 C.3   142  HEM142      0.0000
     14  CGA        2.3000   45.4900  -16.3730 C.2   142  HEM142      0.0000
     15  O1A        1.2270   45.4530  -15.7160 O.co2 142  HEM142      0.0000
     16  O2A        2.6630   46.4120  -17.1550 O.co2 142  HEM142      0.0000
     17  NB         8.2900   39.7700  -13.4580 N.ar  142  HEM142      0.0000
     18  C1B        7.3590   39.9670  -12.4690 C.ar  142  HEM142      0.0000
     19  C2B        7.6540   39.0940  -11.3440 C.ar  142  HEM142      0.0000
     20  C3B        8.7580   38.4050  -11.6360 C.ar  142  HEM142      0.0000
     21  C4B        9.1790   38.8180  -12.9570 C.ar  142  HEM142      0.0000
     22  CMB        6.8030   39.0680  -10.0580 C.3   142  HEM142      0.0000
     23  CAB        9.5460   37.3820  -10.8200 C.2   142  HEM142      0.0000
     24  CBB        9.0720   36.4980   -9.9930 C.2   142  HEM142      0.0000
     25  NC        10.2410   39.8690  -15.5800 N.2   142  HEM142      0.0000
     26  C1C       10.8740   38.9370  -14.7690 C.2   142  HEM142      0.0000
     27  C2C       12.2080   38.7070  -15.2450 C.2   142  HEM142      0.0000
     28  C3C       12.4110   39.5040  -16.2990 C.2   142  HEM142      0.0000
     29  C4C       11.1780   40.2390  -16.5310 C.2   142  HEM142      0.0000
     30  CMC       13.1940   37.7330  -14.5930 C.3   142  HEM142      0.0000
     31  CAC       13.6700   39.6710  -17.1820 C.2   142  HEM142      0.0000
     32  CBC       14.8980   39.8850  -16.7310 C.2   142  HEM142      0.0000
     33  ND         8.8390   42.0170  -16.7370 N.ar  142  HEM142      0.0000
     34  C1D        9.9250   41.9900  -17.6070 C.ar  142  HEM142      0.0000
     35  C2D        9.7620   43.0290  -18.6030 C.ar  142  HEM142      0.0000
     36  C3D        8.5960   43.6290  -18.3590 C.ar  142  HEM142      0.0000
     37  C4D        8.0220   43.0260  -17.1830 C.ar  142  HEM142      0.0000
     38  CMD       10.7820   43.3140  -19.7280 C.3   142  HEM142      0.0000
     39  CAD        7.9420   44.8330  -19.0940 C.3   142  HEM142      0.0000
     40  CBD        8.4740   46.1500  -18.5660 C.3   142  HEM142      0.0000
     41  CGD        7.9750   47.4180  -19.1250 C.2   142  HEM142      0.0000
     42  O1D        7.3610   48.1940  -18.3440 O.co2 142  HEM142      0.0000
     43  O2D        8.2280   47.6380  -20.3350 O.co2 142  HEM142      0.0000
@<TRIPOS>BOND
     1    43    41   ar
     2    38    35    1
     3    41    40    1
     4    41    42   ar
     5    39    40    1
     6    39    36    1
     7    35    36   ar
     8    35    34   ar
     9    36    37   ar
    10    34     5    2
    11    34    33   ar
    12     5    29    1
    13    37    33   ar
    14    37     2    2
    15    31    32    2
    16    31    28    1
    17    16    14   ar
    18    33     1    1
    19     2     7    1
    20    29    28    1
    21    29    25    2
    22    14    13    1
    23    14    15   ar
    24    28    27    2
    25    13    12    1
    26    25     1    1
    27    25    26    1
    28     7     8    1
    29     7     6    2
    30     1     6    1
    31     1    17    1
    32    27    26    1
    33    27    30    1
    34    12     8    1
    35    26     4    2
    36     8     9    2
    37     6    10    1
    38     4    21    1
    39     9    10    1
    40     9    11    1
    41    10     3    2
    42    17    21   ar
    43    17    18   ar
    44    21    20   ar
    45     3    18    1
    46    18    19   ar
    47    20    19   ar
    48    20    23    1
    49    19    22    1
    50    23    24    2
