@<TRIPOS>MOLECULE
1y0d_HEM_A_1.pdb
 43 50 0 0 0
SMALL
GASTEIGER

@<TRIPOS>ATOM
      1 FE          8.2980   40.3680  -15.3370 Fe    142  HEM142      0.0000
      2  CHA        6.7660   43.1370  -16.6380 C.2   142  HEM142      0.0000
      3  CHB        6.2530   40.5860  -12.5400 C.2   142  HEM142      0.0000
      4  CHC       10.2800   38.1310  -13.6080 C.2   142  HEM142      0.0000
      5  CHD       10.9670   40.9100  -17.5870 C.2   142  HEM142      0.0000
      6  NA         6.8520   41.6290  -14.7020 N.2   142  HEM142      0.0000
      7  C1A        6.3140   42.6790  -15.4070 C.2   142  HEM142      0.0000
      8  C2A        5.2000   43.2180  -14.6800 C.2   142  HEM142      0.0000
      9  C3A        5.0540   42.5180  -13.5670 C.2   142  HEM142      0.0000
     10  C4A        6.0700   41.4950  -13.5610 C.2   142  HEM142      0.0000
     11  CMA        4.0440   42.7020  -12.4020 C.3   142  HEM142      0.0000
     12  CAA        4.3800   44.4200  -15.2040 C.3   142  HEM142      0.0000
     13  CBA        3.1560   44.0400  -16.0600 C.3   142  HEM142      0.0000
     14  CGA        2.1690   45.1700  -16.2500 C.2   142  HEM142      0.0000
     15  O1A        1.0850   45.0710  -15.6150 O.co2 142  HEM142      0.0000
     16  O2A        2.4910   46.1260  -16.9920 O.co2 142  HEM142      0.0000
     17  NB         8.2760   39.5320  -13.4530 N.ar  142  HEM142      0.0000
     18  C1B        7.3430   39.7440  -12.4520 C.ar  142  HEM142      0.0000
     19  C2B        7.6620   38.9150  -11.3050 C.ar  142  HEM142      0.0000
     20  C3B        8.7700   38.2250  -11.5880 C.ar  142  HEM142      0.0000
     21  C4B        9.1740   38.6150  -12.9340 C.ar  142  HEM142      0.0000
     22  CMB        6.8090   38.8860  -10.0220 C.3   142  HEM142      0.0000
     23  CAB        9.5790   37.2520  -10.7260 C.2   142  HEM142      0.0000
     24  CBB        9.1770   36.1020  -10.2590 C.2   142  HEM142      0.0000
     25  NC        10.1970   39.6620  -15.5700 N.2   142  HEM142      0.0000
     26  C1C       10.8320   38.7380  -14.7440 C.2   142  HEM142      0.0000
     27  C2C       12.1620   38.4990  -15.2220 C.2   142  HEM142      0.0000
     28  C3C       12.3580   39.2850  -16.2800 C.2   142  HEM142      0.0000
     29  C4C       11.1340   40.0220  -16.5230 C.2   142  HEM142      0.0000
     30  CMC       13.1460   37.5220  -14.5400 C.3   142  HEM142      0.0000
     31  CAC       13.6270   39.4230  -17.1700 C.2   142  HEM142      0.0000
     32  CBC       14.8520   39.3380  -16.6350 C.2   142  HEM142      0.0000
     33  ND         8.7690   41.7430  -16.7940 N.ar  142  HEM142      0.0000
     34  C1D        9.8620   41.7240  -17.6630 C.ar  142  HEM142      0.0000
     35  C2D        9.7170   42.7910  -18.6360 C.ar  142  HEM142      0.0000
     36  C3D        8.5530   43.3870  -18.3780 C.ar  142  HEM142      0.0000
     37  C4D        7.9670   42.7710  -17.2090 C.ar  142  HEM142      0.0000
     38  CMD       10.7310   43.1080  -19.7660 C.3   142  HEM142      0.0000
     39  CAD        7.9150   44.5890  -19.0980 C.3   142  HEM142      0.0000
     40  CBD        8.4340   45.9020  -18.5510 C.3   142  HEM142      0.0000
     41  CGD        7.9330   47.1620  -19.1880 C.2   142  HEM142      0.0000
     42  O1D        7.2910   47.9300  -18.4360 O.co2 142  HEM142      0.0000
     43  O2D        8.2390   47.3220  -20.3840 O.co2 142  HEM142      0.0000
@<TRIPOS>BOND
     1    43    41   ar
     2    38    35    1
     3    41    40    1
     4    41    42   ar
     5    39    40    1
     6    39    36    1
     7    35    36   ar
     8    35    34   ar
     9    36    37   ar
    10    34     5    2
    11    34    33   ar
    12     5    29    1
    13    37    33   ar
    14    37     2    2
    15    31    32    2
    16    31    28    1
    17    16    14   ar
    18    33     1    1
    19     2     7    1
    20    29    28    1
    21    29    25    2
    22    28    27    2
    23    14    13    1
    24    14    15   ar
    25    13    12    1
    26    25     1    1
    27    25    26    1
    28     7     6    2
    29     7     8    1
    30     1     6    1
    31     1    17    1
    32    27    26    1
    33    27    30    1
    34    12     8    1
    35    26     4    2
    36     6    10    1
    37     8     9    2
    38     4    21    1
    39     9    10    1
    40     9    11    1
    41    10     3    2
    42    17    21   ar
    43    17    18   ar
    44    21    20   ar
    45     3    18    1
    46    18    19   ar
    47    20    19   ar
    48    20    23    1
    49    19    22    1
    50    23    24    2
