@<TRIPOS>MOLECULE
1y0g_8PP_A_1.pdb
 47 47 0 0 0
SMALL
GASTEIGER

@<TRIPOS>ATOM
      1  C1        -8.9480   19.0820   31.1660 C.2   320  8PP320      0.1911
      2  C2        -7.9820   19.2520   30.1090 C.2   320  8PP320      0.0128
      3  C3        -7.1900   20.3420   30.1210 C.2   320  8PP320     -0.0225
      4  C4        -7.2820   21.3490   31.1730 C.3   320  8PP320      0.0519
      5  O         -9.6630   18.0720   31.1300 O.2   320  8PP320     -0.2869
      6  C5        -8.2490   21.2050   32.2610 C.2   320  8PP320     -0.0182
      7  C6        -9.0710   20.0840   32.2520 C.2   320  8PP320      0.0375
      8  C7        -7.9480   18.2750   28.9270 C.3   320  8PP320      0.0293
      9  C8        -9.2750   18.3240   28.1800 C.3   320  8PP320      0.0048
     10  C9        -9.8590   17.0200   27.6400 C.3   320  8PP320      0.0003
     11  C10       -9.8520   15.5790   28.1370 C.3   320  8PP320      0.0000
     12  C11      -10.8490   17.2470   26.4670 C.3   320  8PP320      0.0003
     13  C12      -10.8060   18.5810   25.7540 C.3   320  8PP320      0.0043
     14  C13      -11.4480   18.4490   24.3690 C.3   320  8PP320      0.0217
     15  C14      -11.1330   18.9430   23.1910 C.2   320  8PP320     -0.0478
     16  C15       -9.7290   18.6590   22.6390 C.3   320  8PP320      0.0260
     17  C16      -12.3130   19.7100   22.5900 C.2   320  8PP320     -0.0299
     18  C17      -12.3400   20.3500   21.1770 C.3   320  8PP320      0.0507
     19  C18      -13.5720   20.2200   20.3070 C.2   320  8PP320     -0.0299
     20  C19      -13.4600   20.0550   18.9500 C.2   320  8PP320     -0.0478
     21  C20      -12.0740   19.7820   18.3430 C.3   320  8PP320      0.0260
     22  C21      -14.6420   20.1330   18.0100 C.3   320  8PP320      0.0217
     23  C22      -14.6040   21.4230   17.2530 C.3   320  8PP320      0.0043
     24  C23      -15.4560   21.2540   16.0030 C.3   320  8PP320      0.0003
     25  C24      -16.2380   22.3400   15.6170 C.3   320  8PP320      0.0003
     26  C25      -15.6660   23.7600   15.7670 C.3   320  8PP320      0.0000
     27  C26      -17.6470   22.2990   15.0530 C.3   320  8PP320      0.0046
     28  C27      -17.6590   22.1100   13.5180 C.3   320  8PP320      0.0254
     29  C28      -19.0960   22.0760   12.9560 C.2   320  8PP320     -0.0346
     30  C29      -19.5360   21.2090   12.0400 C.2   320  8PP320     -0.0478
     31  C30      -18.6950   20.0490   11.4880 C.3   320  8PP320      0.0260
     32  C31      -20.9820   21.2110   11.5200 C.3   320  8PP320      0.0263
     33  C32      -21.9080   22.2230   12.0720 C.3   320  8PP320      0.0297
     34  C33      -23.2950   22.0830   11.4640 C.2   320  8PP320     -0.0342
     35  C34      -24.2220   22.9630   11.9100 C.2   320  8PP320     -0.0478
     36  C35      -24.0100   24.0080   12.9040 C.3   320  8PP320      0.0260
     37  C36      -25.5840   22.7270   11.2460 C.3   320  8PP320      0.0263
     38  C37      -25.7210   21.5690   10.2280 C.3   320  8PP320      0.0297
     39  C38      -27.0310   21.6800    9.4540 C.2   320  8PP320     -0.0343
     40  C39      -28.0700   20.8610    9.7760 C.2   320  8PP320     -0.0482
     41  C40      -29.4860   21.1650    9.2750 C.3   320  8PP320      0.0217
     42  C41      -28.1860   19.5760   10.6150 C.3   320  8PP320      0.0260
     43  C42      -29.8940   20.2550    8.1230 C.3   320  8PP320      0.0043
     44  C43      -29.3400   20.7740    6.9040 C.3   320  8PP320      0.0003
     45  C44      -29.7420   20.4800    5.6350 C.3   320  8PP320      0.0000
     46  C45      -28.6460   20.2710    4.5800 C.3   320  8PP320      0.0000
     47  C46      -31.2190   20.3450    5.1750 C.3   320  8PP320      0.0000
@<TRIPOS>BOND
     1    46    45    1
     2    47    45    1
     3    45    44    1
     4    44    43    1
     5    43    41    1
     6    41    40    1
     7    39    40    2
     8    39    38    1
     9    40    42    1
    10    38    37    1
    11    37    35    1
    12    34    35    2
    13    34    33    1
    14    31    30    1
    15    32    30    1
    16    32    33    1
    17    35    36    1
    18    30    29    2
    19    29    28    1
    20    28    27    1
    21    27    25    1
    22    25    26    1
    23    25    24    1
    24    24    23    1
    25    23    22    1
    26    22    20    1
    27    21    20    1
    28    20    19    2
    29    19    18    1
    30    18    17    1
    31    17    15    2
    32    16    15    1
    33    15    14    1
    34    14    13    1
    35    13    12    1
    36    12    10    1
    37    10    11    1
    38    10     9    1
    39     9     8    1
    40     8     2    1
    41     2     3    2
    42     2     1    1
    43     3     4    1
    44     5     1    2
    45     1     7    1
    46     4     6    1
    47     7     6    2
