@<TRIPOS>MOLECULE
1y0l_HAN_A_1.pdb
 19 20 0 0 0
SMALL
GASTEIGER

@<TRIPOS>ATOM
      1  N1         4.6890  130.1450    2.5740 N.pl3 601  HAN601     -0.2462
      2  C2         5.8510  130.1610    1.7020 C.cat 601  HAN601      0.2815
      3  N3         6.9520  129.7410    2.2210 N.2   601  HAN601     -0.3732
      4  C4         7.4760  128.8560    4.5680 C.3   601  HAN601      0.0821
      5  C5         6.9020  128.5710    5.8460 C.2   601  HAN601     -0.0408
      6  C6         5.4860  128.8250    6.0820 C.2   601  HAN601     -0.0280
      7  C7         4.6690  129.3520    5.0470 C.2   601  HAN601      0.0123
      8  C9         6.6390  129.3900    3.5270 C.2   601  HAN601      0.1297
      9  C8         5.2580  129.6320    3.7610 C.2   601  HAN601      0.0802
     10  C10        7.8450  127.9910    6.9310 C.3   601  HAN601      0.0265
     11  C11        4.8020  128.5460    7.4270 C.3   601  HAN601      0.0304
     12  N12        5.8000  130.6100    0.3560 N.pl3 601  HAN601     -0.0777
     13  C13        3.2980  130.5480    2.2950 C.3   601  HAN601      0.0993
     14  C14        2.4600  129.3520    1.8160 C.3   601  HAN601      0.0225
     15  C15        0.9560  129.6300    1.8810 C.3   601  HAN601      0.0136
     16  C16        0.3730  130.0010    0.5110 C.3   601  HAN601      0.1141
     17  C17       -0.9500  130.7620    0.6200 C.2   601  HAN601      0.3649
     18  O18       -0.9300  132.0150    0.6180 O.co2 601  HAN601     -0.2457
     19  O19       -2.0200  130.1160    0.7060 O.co2 601  HAN601     -0.2457
@<TRIPOS>BOND
     1    12     2    1
     2    16    17    1
     3    16    15    1
     4    18    17   ar
     5    17    19   ar
     6     2     3    2
     7     2     1    1
     8    14    15    1
     9    14    13    1
    10     3     8    2
    11    13     1    1
    12     1     9    1
    13     8     9    1
    14     8     4    1
    15     9     7    2
    16     4     5    1
    17     7     6    1
    18     5     6    2
    19     5    10    1
    20     6    11    1
