@<TRIPOS>MOLECULE
1y0p_HEM_A_1.pdb
 43 50 0 0 0
SMALL
GASTEIGER

@<TRIPOS>ATOM
      1 FE         30.0350   58.4950   43.2160 Fe    801  HEM801      0.0000
      2  CHA       28.1450   55.6780   43.5480 C.2   801  HEM801      0.0000
      3  CHB       28.5370   59.1900   40.2330 C.2   801  HEM801      0.0000
      4  CHC       31.5190   61.5940   43.2050 C.2   801  HEM801      0.0000
      5  CHD       31.9870   57.5670   45.8440 C.2   801  HEM801      0.0000
      6  NA        28.6600   57.5970   42.1390 N.ar  801  HEM801      0.0000
      7  C1A       27.9380   56.4620   42.4210 C.ar  801  HEM801      0.0000
      8  C2A       26.9790   56.1880   41.3720 C.ar  801  HEM801      0.0000
      9  C3A       27.0920   57.1690   40.4670 C.ar  801  HEM801      0.0000
     10  C4A       28.1240   58.0630   40.9340 C.ar  801  HEM801      0.0000
     11  CMA       26.3140   57.3730   39.1320 C.3   801  HEM801      0.0000
     12  CAA       26.0120   54.9950   41.3160 C.3   801  HEM801      0.0000
     13  CBA       26.6170   53.9700   40.3880 C.3   801  HEM801      0.0000
     14  CGA       25.7810   52.7060   40.3070 C.2   801  HEM801      0.0000
     15  O1A       26.1730   51.8110   39.4930 O.co2 801  HEM801      0.0000
     16  O2A       24.7520   52.6030   41.0340 O.co2 801  HEM801      0.0000
     17  NB        30.0300   60.0800   41.9600 N.2   801  HEM801      0.0000
     18  C1B       29.3760   60.1420   40.7370 C.2   801  HEM801      0.0000
     19  C2B       29.7720   61.3910   40.1130 C.2   801  HEM801      0.0000
     20  C3B       30.5780   62.0500   40.9450 C.2   801  HEM801      0.0000
     21  C4B       30.7520   61.2460   42.1300 C.2   801  HEM801      0.0000
     22  CMB       29.3070   61.8430   38.7230 C.3   801  HEM801      0.0000
     23  CAB       31.2330   63.4330   40.8030 C.3   801  HEM801      0.0000
     24  CBB       30.3500   64.4480   40.6190 C.3   801  HEM801      0.0000
     25  NC        31.4520   59.4140   44.2980 N.ar  801  HEM801      0.0000
     26  C1C       31.9390   60.6990   44.1630 C.ar  801  HEM801      0.0000
     27  C2C       32.9050   60.9580   45.1860 C.ar  801  HEM801      0.0000
     28  C3C       33.0380   59.8390   45.9270 C.ar  801  HEM801      0.0000
     29  C4C       32.1210   58.8650   45.3690 C.ar  801  HEM801      0.0000
     30  CMC       33.6570   62.2950   45.3550 C.3   801  HEM801      0.0000
     31  CAC       33.9510   59.5690   47.1490 C.2   801  HEM801      0.0000
     32  CBC       33.9440   60.4590   48.1810 C.2   801  HEM801      0.0000
     33  ND        30.0960   56.8950   44.4600 N.2   801  HEM801      0.0000
     34  C1D       30.9890   56.7310   45.5100 C.2   801  HEM801      0.0000
     35  C2D       30.6640   55.5240   46.2050 C.2   801  HEM801      0.0000
     36  C3D       29.4710   54.9600   45.5170 C.2   801  HEM801      0.0000
     37  C4D       29.1570   55.8670   44.4310 C.2   801  HEM801      0.0000
     38  CMD       31.3700   54.9510   47.4370 C.3   801  HEM801      0.0000
     39  CAD       28.6980   53.7200   45.9460 C.3   801  HEM801      0.0000
     40  CBD       27.3630   54.2120   46.4960 C.3   801  HEM801      0.0000
     41  CGD       27.4640   55.2390   47.5950 C.2   801  HEM801      0.0000
     42  O1D       26.7290   56.2560   47.5480 O.co2 801  HEM801      0.0000
     43  O2D       28.2380   55.0220   48.5620 O.co2 801  HEM801      0.0000
@<TRIPOS>BOND
     1    22    19    1
     2    11     9    1
     3    15    14   ar
     4    19    18    1
     5    19    20    2
     6     3    18    1
     7     3    10    2
     8    14    13    1
     9    14    16   ar
    10    13    12    1
    11     9    10   ar
    12     9     8   ar
    13    24    23    1
    14    18    17    2
    15    23    20    1
    16    10     6   ar
    17    20    21    1
    18    12     8    1
    19     8     7   ar
    20    17    21    1
    21    17     1    1
    22    21     4    2
    23     6     7   ar
    24     6     1    1
    25     7     2    2
    26     4    26    1
    27     1    25    1
    28     1    33    1
    29     2    37    1
    30    26    25   ar
    31    26    27   ar
    32    25    29   ar
    33    37    33    2
    34    37    36    1
    35    33    34    1
    36    27    30    1
    37    27    28   ar
    38    29     5    1
    39    29    28   ar
    40    34     5    2
    41    34    35    1
    42    36    39    1
    43    36    35    2
    44    28    31    1
    45    39    40    1
    46    35    38    1
    47    40    41    1
    48    31    32    2
    49    42    41   ar
    50    41    43   ar
