@<TRIPOS>MOLECULE
1y0s_B7G_A_1.pdb
 19 19 0 0 0
SMALL
GASTEIGER

@<TRIPOS>ATOM
      1  C5        34.8330   26.5040   70.7340 C.3   483  B7G483      0.2154
      2  O5        34.6760   25.7650   69.5300 O.3   483  B7G483     -0.3163
      3  C1        35.3570   24.5250   69.5910 C.3   483  B7G483      0.3040
      4  C2        36.8410   24.7980   69.5900 C.2   483  B7G483      0.2707
      5  C3        37.3490   26.1000   70.3000 C.2   483  B7G483      0.2718
      6  C4        36.2500   27.0740   70.7420 C.2   483  B7G483      0.2442
      7  C6        33.7700   27.6130   70.8010 C.3   483  B7G483      0.2196
      8  O1        34.9810   23.7240   68.4720 O.3   483  B7G483     -0.3246
      9  C7        33.6300   23.2170   68.6220 C.3   483  B7G483      0.1452
     10  C8        33.3340   22.1360   67.5550 C.3   483  B7G483      0.0322
     11  C9        32.0340   21.3540   67.8770 C.3   483  B7G483      0.0026
     12  C10       30.7850   22.2030   67.6980 C.3   483  B7G483      0.0001
     13  C11       29.5080   21.3650   67.8780 C.3   483  B7G483      0.0000
     14  C12       28.2100   22.2100   67.6770 C.3   483  B7G483      0.0000
     15  O2        37.6140   24.0110   69.0510 O.2   483  B7G483     -0.2825
     16  O3        38.5400   26.3590   70.5160 O.2   483  B7G483     -0.2801
     17  O4        36.4770   28.2300   71.0980 O.2   483  B7G483     -0.2852
     18  O6        33.6710   28.3590   69.7330 O.3   483  B7G483     -0.2172
     19  C13       27.9140   22.6640   66.2370 C.3   483  B7G483      0.0000
@<TRIPOS>BOND
     1    19    14    1
     2    10    11    1
     3    10     9    1
     4    14    13    1
     5    12    11    1
     6    12    13    1
     7     8     9    1
     8     8     3    1
     9    15     4    2
    10     2     3    1
    11     2     1    1
    12     4     3    1
    13     4     5    1
    14    18     7    1
    15     5    16    2
    16     5     6    1
    17     1     6    1
    18     1     7    1
    19     6    17    2
