@<TRIPOS>MOLECULE
1y0t_HEM_A_1.pdb
 43 50 0 0 0
SMALL
GASTEIGER

@<TRIPOS>ATOM
      1 FE          8.2050   40.5220  -15.3160 Fe    142  HEM142      0.0000
      2  CHA        6.6680   43.3170  -16.5790 C.2   142  HEM142      0.0000
      3  CHB        6.1190   40.6870  -12.5400 C.2   142  HEM142      0.0000
      4  CHC       10.1490   38.1890  -13.6440 C.2   142  HEM142      0.0000
      5  CHD       10.8730   41.0880  -17.4880 C.2   142  HEM142      0.0000
      6  NA         6.7140   41.7530  -14.6780 N.2   142  HEM142      0.0000
      7  C1A        6.2110   42.8240  -15.3690 C.2   142  HEM142      0.0000
      8  C2A        5.1110   43.3790  -14.6300 C.2   142  HEM142      0.0000
      9  C3A        4.9280   42.6470  -13.5370 C.2   142  HEM142      0.0000
     10  C4A        5.9360   41.6280  -13.5310 C.2   142  HEM142      0.0000
     11  CMA        3.8870   42.8470  -12.4000 C.3   142  HEM142      0.0000
     12  CAA        4.3340   44.5990  -15.1800 C.3   142  HEM142      0.0000
     13  CBA        3.1820   44.2400  -16.1370 C.3   142  HEM142      0.0000
     14  CGA        2.2490   45.4230  -16.3400 C.2   142  HEM142      0.0000
     15  O1A        1.2510   45.4580  -15.5750 O.co2 142  HEM142      0.0000
     16  O2A        2.5880   46.2610  -17.2150 O.co2 142  HEM142      0.0000
     17  NB         8.1580   39.6300  -13.4630 N.ar  142  HEM142      0.0000
     18  C1B        7.2270   39.8500  -12.4690 C.ar  142  HEM142      0.0000
     19  C2B        7.5280   38.9880  -11.3400 C.ar  142  HEM142      0.0000
     20  C3B        8.6230   38.2860  -11.6410 C.ar  142  HEM142      0.0000
     21  C4B        9.0390   38.6900  -12.9760 C.ar  142  HEM142      0.0000
     22  CMB        6.6540   38.9700  -10.0670 C.3   142  HEM142      0.0000
     23  CAB        9.4370   37.2720  -10.8240 C.2   142  HEM142      0.0000
     24  CBB        8.9480   36.4980   -9.8830 C.2   142  HEM142      0.0000
     25  NC        10.1050   39.7680  -15.5520 N.2   142  HEM142      0.0000
     26  C1C       10.7200   38.8110  -14.7540 C.2   142  HEM142      0.0000
     27  C2C       12.0720   38.6010  -15.2130 C.2   142  HEM142      0.0000
     28  C3C       12.2820   39.4120  -16.2500 C.2   142  HEM142      0.0000
     29  C4C       11.0530   40.1590  -16.4780 C.2   142  HEM142      0.0000
     30  CMC       13.0240   37.5880  -14.5430 C.3   142  HEM142      0.0000
     31  CAC       13.5390   39.5980  -17.1230 C.2   142  HEM142      0.0000
     32  CBC       14.7730   39.5550  -16.6090 C.2   142  HEM142      0.0000
     33  ND         8.7020   41.9470  -16.7030 N.ar  142  HEM142      0.0000
     34  C1D        9.7890   41.9310  -17.5710 C.ar  142  HEM142      0.0000
     35  C2D        9.6210   42.9640  -18.5800 C.ar  142  HEM142      0.0000
     36  C3D        8.4630   43.5690  -18.3280 C.ar  142  HEM142      0.0000
     37  C4D        7.8810   42.9600  -17.1510 C.ar  142  HEM142      0.0000
     38  CMD       10.6530   43.2590  -19.6920 C.3   142  HEM142      0.0000
     39  CAD        7.7950   44.7690  -19.0620 C.3   142  HEM142      0.0000
     40  CBD        8.1570   46.1060  -18.4330 C.3   142  HEM142      0.0000
     41  CGD        7.7160   47.3660  -19.1060 C.2   142  HEM142      0.0000
     42  O1D        7.1970   48.2600  -18.3850 O.co2 142  HEM142      0.0000
     43  O2D        7.9090   47.4490  -20.3400 O.co2 142  HEM142      0.0000
@<TRIPOS>BOND
     1    43    41   ar
     2    38    35    1
     3    41    40    1
     4    41    42   ar
     5    39    40    1
     6    39    36    1
     7    35    36   ar
     8    35    34   ar
     9    36    37   ar
    10    34     5    2
    11    34    33   ar
    12     5    29    1
    13    16    14   ar
    14    37    33   ar
    15    37     2    2
    16    31    32    2
    17    31    28    1
    18    33     1    1
    19     2     7    1
    20    29    28    1
    21    29    25    2
    22    14    13    1
    23    14    15   ar
    24    28    27    2
    25    13    12    1
    26    25     1    1
    27    25    26    1
    28     7     6    2
    29     7     8    1
    30     1     6    1
    31     1    17    1
    32    27    26    1
    33    27    30    1
    34    12     8    1
    35    26     4    2
    36     6    10    1
    37     8     9    2
    38     4    21    1
    39     9    10    1
    40     9    11    1
    41    10     3    2
    42    17    21   ar
    43    17    18   ar
    44    21    20   ar
    45     3    18    1
    46    18    19   ar
    47    20    19   ar
    48    20    23    1
    49    19    22    1
    50    23    24    2
