@<TRIPOS>MOLECULE
1y0w_HEM_A_1.pdb
 43 50 0 0 0
SMALL
GASTEIGER

@<TRIPOS>ATOM
      1 FE          8.1920   40.5420  -15.3320 Fe    142  HEM142      0.0000
      2  CHA        6.5440   43.2680  -16.6370 C.2   142  HEM142      0.0000
      3  CHB        6.0760   40.7500  -12.5190 C.2   142  HEM142      0.0000
      4  CHC       10.2280   38.4240  -13.4910 C.2   142  HEM142      0.0000
      5  CHD       10.8220   41.0940  -17.4840 C.2   142  HEM142      0.0000
      6  NA         6.6030   41.7800  -14.6890 N.2   142  HEM142      0.0000
      7  C1A        6.0800   42.8120  -15.4150 C.2   142  HEM142      0.0000
      8  C2A        4.9590   43.3380  -14.6940 C.2   142  HEM142      0.0000
      9  C3A        4.8240   42.6720  -13.5590 C.2   142  HEM142      0.0000
     10  C4A        5.8590   41.6650  -13.5230 C.2   142  HEM142      0.0000
     11  CMA        3.7500   42.9470  -12.4660 C.3   142  HEM142      0.0000
     12  CAA        4.0980   44.5430  -15.1480 C.3   142  HEM142      0.0000
     13  CBA        3.1030   44.1620  -16.2300 C.3   142  HEM142      0.0000
     14  CGA        2.0180   45.2230  -16.2750 C.2   142  HEM142      0.0000
     15  O1A        0.9090   44.9430  -15.7670 O.co2 142  HEM142      0.0000
     16  O2A        2.2420   46.3440  -16.7830 O.co2 142  HEM142      0.0000
     17  NB         8.1860   39.7570  -13.3360 N.ar  142  HEM142      0.0000
     18  C1B        7.1570   39.8720  -12.4350 C.ar  142  HEM142      0.0000
     19  C2B        7.3610   38.8470  -11.4340 C.ar  142  HEM142      0.0000
     20  C3B        8.5220   38.2350  -11.6790 C.ar  142  HEM142      0.0000
     21  C4B        9.0330   38.7740  -12.9090 C.ar  142  HEM142      0.0000
     22  CMB        6.4730   38.6860  -10.2060 C.3   142  HEM142      0.0000
     23  CAB        9.2110   37.1030  -10.9080 C.2   142  HEM142      0.0000
     24  CBB        9.4870   37.2260   -9.6180 C.2   142  HEM142      0.0000
     25  NC        10.1790   39.9270  -15.4280 N.2   142  HEM142      0.0000
     26  C1C       10.7680   38.9770  -14.6340 C.2   142  HEM142      0.0000
     27  C2C       12.0740   38.7020  -15.1760 C.2   142  HEM142      0.0000
     28  C3C       12.2040   39.3990  -16.2940 C.2   142  HEM142      0.0000
     29  C4C       11.0300   40.2120  -16.4620 C.2   142  HEM142      0.0000
     30  CMC       13.0280   37.6300  -14.6530 C.3   142  HEM142      0.0000
     31  CAC       13.4030   39.3870  -17.2340 C.2   142  HEM142      0.0000
     32  CBC       14.6260   39.5650  -16.7010 C.2   142  HEM142      0.0000
     33  ND         8.6520   41.9880  -16.7930 N.ar  142  HEM142      0.0000
     34  C1D        9.7720   41.9580  -17.6170 C.ar  142  HEM142      0.0000
     35  C2D        9.6640   42.9790  -18.6430 C.ar  142  HEM142      0.0000
     36  C3D        8.3360   43.6490  -18.3720 C.ar  142  HEM142      0.0000
     37  C4D        7.7640   42.9760  -17.2130 C.ar  142  HEM142      0.0000
     38  CMD       10.6440   43.3620  -19.7550 C.3   142  HEM142      0.0000
     39  CAD        7.7750   44.8250  -19.1750 C.3   142  HEM142      0.0000
     40  CBD        8.4270   46.0790  -18.5950 C.3   142  HEM142      0.0000
     41  CGD        7.8350   47.2950  -19.2900 C.2   142  HEM142      0.0000
     42  O1D        7.2190   48.1420  -18.6140 O.co2 142  HEM142      0.0000
     43  O2D        7.9610   47.3540  -20.5200 O.co2 142  HEM142      0.0000
@<TRIPOS>BOND
     1    43    41   ar
     2    38    35    1
     3    41    42   ar
     4    41    40    1
     5    39    40    1
     6    39    36    1
     7    35    36   ar
     8    35    34   ar
     9    36    37   ar
    10    34     5    2
    11    34    33   ar
    12     5    29    1
    13    31    32    2
    14    31    28    1
    15    37    33   ar
    16    37     2    2
    17    33     1    1
    18    16    14   ar
    19     2     7    1
    20    29    28    1
    21    29    25    2
    22    28    27    2
    23    14    13    1
    24    14    15   ar
    25    13    12    1
    26    25     1    1
    27    25    26    1
    28     7     8    1
    29     7     6    2
    30     1     6    1
    31     1    17    1
    32    27    30    1
    33    27    26    1
    34    12     8    1
    35     8     9    2
    36     6    10    1
    37    26     4    2
    38     9    10    1
    39     9    11    1
    40    10     3    2
    41     4    21    1
    42    17    21   ar
    43    17    18   ar
    44    21    20   ar
    45     3    18    1
    46    18    19   ar
    47    20    19   ar
    48    20    23    1
    49    19    22    1
    50    23    24    2
