@<TRIPOS>MOLECULE
1y0x_T44_X_1.pdb
 24 25 0 0 0
SMALL
GASTEIGER

@<TRIPOS>ATOM
      1  C1        27.7140   38.6950   92.6870 C.ar  500  T44500     -0.0191
      2  C2        28.7500   39.3010   91.9840 C.ar  500  T44500      0.0047
      3  C3        29.5620   40.2880   92.5300 C.ar  500  T44500      0.0647
      4  C4        29.2880   40.7450   93.8780 C.ar  500  T44500      0.1558
      5  C5        28.2040   40.0940   94.6350 C.ar  500  T44500      0.0647
      6  C6        27.4940   39.0850   94.0110 C.ar  500  T44500      0.0047
      7  C7        26.8310   37.5580   92.1120 C.3   500  T44500      0.0570
      8  C8        26.1690   37.7340   90.7230 C.3   500  T44500      0.1986
      9  C9        25.1590   36.6510   90.4880 C.2   500  T44500      0.3822
     10  C1'       31.0610   41.2960   95.2340 C.ar  500  T44500      0.1464
     11  C2'       31.4830   42.2130   96.1320 C.ar  500  T44500      0.0465
     12  C3'       32.5130   41.9480   97.0040 C.ar  500  T44500      0.0724
     13  C4'       33.2220   40.7340   97.0790 C.ar  500  T44500      0.2064
     14  C5'       32.7390   39.7500   96.1110 C.ar  500  T44500      0.0724
     15  C6'       31.6840   40.0560   95.2310 C.ar  500  T44500      0.0465
     16  N8        25.5750   39.0350   90.4710 N.3   500  T44500     -0.1205
     17  O4        30.0460   41.7120   94.4220 O.3   500  T44500     -0.4526
     18  O4'       34.1340   40.7580   98.0320 O.3   500  T44500     -0.2857
     19  O9        25.3840   35.4320   90.7890 O.co2 500  T44500     -0.2440
     20  O10       24.1440   37.0300   89.8770 O.co2 500  T44500     -0.2440
     21  I3        31.0050   41.2660   91.4000 I     500  T44500     -0.0393
     22  I3'       33.0810   43.3760   98.3360 I     500  T44500     -0.0391
     23  I5        27.7300   40.6430   96.5950 I     500  T44500     -0.0393
     24  I5'       33.5010   37.8300   95.8510 I     500  T44500     -0.0391
@<TRIPOS>BOND
     1    20     9   ar
     2    16     8    1
     3     9     8    1
     4     9    19   ar
     5     8     7    1
     6    21     3    1
     7     2     3   ar
     8     2     1   ar
     9     7     1    1
    10     3     4   ar
    11     1     6   ar
    12     4    17    1
    13     4     5   ar
    14     6     5   ar
    15    17    10    1
    16     5    23    1
    17    15    10   ar
    18    15    14   ar
    19    10    11   ar
    20    24    14    1
    21    14    13   ar
    22    11    12   ar
    23    12    13   ar
    24    12    22    1
    25    13    18    1
