@<TRIPOS>MOLECULE
1y0y_III_B_1.pdb
 33 32 0 0 0
SMALL
GASTEIGER

@<TRIPOS>ATOM
      1  N         -8.0240   19.4620   32.7530 N.3     1  L2O1       -0.1297
      2  C1        -8.2590   18.6950   31.5310 C.3     1  L2O1        0.1311
      3  C2        -7.7960   19.5310   30.2940 C.3     1  L2O1        0.0222
      4  C3        -6.2790   19.8920   30.2680 C.3     1  L2O1        0.0015
      5  C4        -5.4720   18.9650   29.3260 C.3     1  L2O1        0.0000
      6  C5        -6.0560   21.3720   29.8430 C.3     1  L2O1        0.0000
      7  C6        -9.7990   18.3710   31.4840 C.3     1  L2O1        0.2463
      8  O1       -10.1190   17.6160   32.6590 O.3     1  L2O1       -0.2116
      9  C        -10.2180   17.5350   30.2660 C.2     1  L2O1        0.2737
     10  O         -9.6650   16.4540   30.0910 O.2     1  L2O1       -0.2705
     11  N        -11.2070   18.0200   29.4300 N.am    2  VAL2       -0.1956
     12  CA       -11.7050   17.2900   28.2180 C.3     2  VAL2        0.1727
     13  C        -10.5300   17.0660   27.2410 C.2     2  VAL2        0.2616
     14  O         -9.8650   18.0590   26.9470 O.2     2  VAL2       -0.2715
     15  CB       -12.8620   18.1090   27.5100 C.3     2  VAL2        0.0290
     16  CG1      -13.2890   17.5650   26.1090 C.3     2  VAL2        0.0023
     17  CG2      -14.1360   18.1600   28.4150 C.3     2  VAL2        0.0023
     18  N        -10.4910   15.9180   26.4920 N.am    3  VAL3       -0.1963
     19  CA        -9.4770   15.7320   25.4300 C.3     3  VAL3        0.1727
     20  C         -8.3120   14.9410   25.9950 C.2     3  VAL3        0.2617
     21  O         -8.3140   13.7200   25.8510 O.2     3  VAL3       -0.2715
     22  CB       -10.0150   15.1430   24.0600 C.3     3  VAL3        0.0290
     23  CG1      -11.2070   15.9850   23.5410 C.3     3  VAL3        0.0023
     24  CG2       -8.8990   15.0870   22.9580 C.3     3  VAL3        0.0023
     25  N         -7.3120   15.6230   26.6190 N.am    4  ASP4       -0.1936
     26  CA        -6.1180   14.9490   27.1740 C.3     4  ASP4        0.2090
     27  C         -6.2420   14.7250   28.6810 C.2     4  ASP4        0.3848
     28  O         -6.9220   15.4610   29.3840 O.co2   4  ASP4       -0.2437
     29  CB        -4.9000   15.8510   26.7900 C.3     4  ASP4        0.1472
     30  CG        -3.5600   15.3230   27.2530 C.2     4  ASP4        0.3672
     31  OD1       -2.7240   14.9690   26.3720 O.co2   4  ASP4       -0.2456
     32  OD2       -3.3130   15.2970   28.4840 O.co2   4  ASP4       -0.2456
     33  OXT       -5.5500   13.6830   29.1780 O.co2   4  ASP4       -0.2437
@<TRIPOS>BOND
     1    24    22    1
     2    23    22    1
     3    22    19    1
     4    19    20    1
     5    19    18    1
     6    21    20    2
     7    20    25   am
     8    16    15    1
     9    31    30   ar
    10    18    13   am
    11    25    26    1
    12    29    26    1
    13    29    30    1
    14    14    13    2
    15    26    27    1
    16    13    12    1
    17    30    32   ar
    18    15    12    1
    19    15    17    1
    20    12    11    1
    21    27    33   ar
    22    27    28   ar
    23     5     4    1
    24    11     9   am
    25     6     4    1
    26    10     9    2
    27     9     7    1
    28     4     3    1
    29     3     2    1
    30     7     2    1
    31     7     8    1
    32     2     1    1
