@<TRIPOS>MOLECULE
1y13_BIO_A_1.pdb
 15 15 0 0 0
SMALL
GASTEIGER

@<TRIPOS>ATOM
      1  N1        73.5450    1.1160   21.9240 N.pl3 175  BIO175      0.0405
      2  N2        74.2310    2.1580   19.9610 N.pl3 175  BIO175      0.1452
      3  C2        73.5190    2.1980   21.1220 C.cat 175  BIO175      0.5792
      4  N3        72.7940    3.2710   21.5070 N.pl3 175  BIO175      0.1452
      5  C4A       72.0330    2.2310   23.5660 C.3   175  BIO175      0.2479
      6  C8A       72.8410    1.0870   23.0960 C.2   175  BIO175      0.3783
      7  N8        72.8690   -0.0270   23.8760 N.2   175  BIO175     -0.0555
      8  C7        72.1990   -0.1150   25.0470 C.3   175  BIO175      0.3064
      9  C6        71.4570    0.9510   25.5100 C.2   175  BIO175      0.1180
     10  N5        71.3920    2.0800   24.7510 N.2   175  BIO175     -0.2589
     11  C9        70.7020    0.8650   26.8210 C.3   175  BIO175      0.2215
     12  O9        69.5010    1.7260   26.8430 O.3   175  BIO175     -0.2141
     13  C10       71.5840    1.1510   28.0850 C.3   175  BIO175      0.1878
     14  O10       71.5020    2.5380   28.4680 O.3   175  BIO175     -0.2200
     15  C11       73.0710    0.7640   27.9920 C.3   175  BIO175      0.0387
@<TRIPOS>BOND
     1     2     3    1
     2     3     4    1
     3     3     1    2
     4     1     6    1
     5     6     5    1
     6     6     7    2
     7     5    10    1
     8     7     8    1
     9    10     9    2
    10     8     9    1
    11     9    11    1
    12    11    12    1
    13    11    13    1
    14    15    13    1
    15    13    14    1
