@<TRIPOS>MOLECULE
1y18_HAN_B_1.pdb
 19 20 0 0 0
SMALL
GASTEIGER

@<TRIPOS>ATOM
      1  N1         5.2210  128.4290    2.3670 N.pl3 601  HAN601     -0.2462
      2  C2         6.4390  128.4320    1.5780 C.cat 601  HAN601      0.2815
      3  N3         7.4960  128.0070    2.1520 N.2   601  HAN601     -0.3732
      4  C4         7.9120  127.0880    4.5200 C.3   601  HAN601      0.0821
      5  C5         7.2660  126.7890    5.7910 C.2   601  HAN601     -0.0408
      6  C6         5.8170  127.0450    5.9550 C.2   601  HAN601     -0.0280
      7  C7         5.0530  127.6030    4.8590 C.2   601  HAN601      0.0123
      8  C9         7.1200  127.6530    3.4320 C.2   601  HAN601      0.1297
      9  C8         5.7170  127.8830    3.5870 C.2   601  HAN601      0.0802
     10  C10        8.1470  126.1980    6.9080 C.3   601  HAN601      0.0265
     11  C11        5.0390  126.7630    7.2580 C.3   601  HAN601      0.0304
     12  N12        6.4910  128.8770    0.2520 N.pl3 601  HAN601     -0.0777
     13  C13        3.8490  128.8440    1.9910 C.3   601  HAN601      0.0993
     14  C14        3.0250  127.6890    1.4260 C.3   601  HAN601      0.0225
     15  C15        1.5370  127.8160    1.7350 C.3   601  HAN601      0.0136
     16  C16        0.6490  127.6710    0.4700 C.3   601  HAN601      0.1141
     17  C17       -0.5410  128.6730    0.4540 C.2   601  HAN601      0.3649
     18  O18       -0.2710  129.9070    0.1890 O.co2 601  HAN601     -0.2457
     19  O19       -1.7510  128.2350    0.7220 O.co2 601  HAN601     -0.2457
@<TRIPOS>BOND
     1    18    17   ar
     2    12     2    1
     3    17    16    1
     4    17    19   ar
     5    16    15    1
     6    14    15    1
     7    14    13    1
     8     2     3    2
     9     2     1    1
    10    13     1    1
    11     3     8    2
    12     1     9    1
    13     8     9    1
    14     8     4    1
    15     9     7    2
    16     4     5    1
    17     7     6    1
    18     5     6    2
    19     5    10    1
    20     6    11    1
