@<TRIPOS>MOLECULE
1y1a_GSH_B_1.pdb
 20 19 0 0 0
SMALL
GASTEIGER

@<TRIPOS>ATOM
      1  N1         7.2020   74.2730  121.6840 N.3   601  GSH601     -0.1208
      2  CA1        6.1410   75.2090  122.1410 C.3   601  GSH601      0.1948
      3  C1         5.9050   75.0150  123.6110 C.2   601  GSH601      0.3819
      4  O11        6.3700   73.9750  124.1720 O.co2 601  GSH601     -0.2441
      5  O12        5.2530   75.9140  124.2240 O.co2 601  GSH601     -0.2441
      6  CB1        4.8480   75.0020  121.3290 C.3   601  GSH601      0.0402
      7  CG1        4.9960   75.3120  119.8290 C.3   601  GSH601      0.0889
      8  CD1        5.1310   74.0620  118.9820 C.2   601  GSH601      0.2418
      9  OE1        6.2730   73.5550  118.8320 O.2   601  GSH601     -0.2733
     10  N2         4.0060   73.5600  118.4210 N.am  601  GSH601     -0.1968
     11  CA2        3.9660   72.3700  117.5970 C.3   601  GSH601      0.1843
     12  C2         4.4440   72.5030  116.1670 C.2   601  GSH601      0.2627
     13  O2         4.6510   73.6290  115.7280 O.2   601  GSH601     -0.2714
     14  CB2        2.5200   71.8440  117.6140 C.3   601  GSH601      0.0997
     15  SG2        2.3420   70.1720  117.1760 S.3   601  GSH601     -0.0797
     16  N3         4.6170   71.3990  115.4470 N.am  601  GSH601     -0.1917
     17  CA3        5.0700   71.3320  114.0600 C.3   601  GSH601      0.2285
     18  C3         3.8500   71.2130  113.0860 C.2   601  GSH601      0.3865
     19  O31        4.1000   70.9610  111.8980 O.co2 601  GSH601     -0.2437
     20  O32        2.6910   71.3800  113.5390 O.co2 601  GSH601     -0.2437
@<TRIPOS>BOND
     1    19    18   ar
     2    18    20   ar
     3    18    17    1
     4    17    16    1
     5    16    12   am
     6    13    12    2
     7    12    11    1
     8    15    14    1
     9    11    14    1
    10    11    10    1
    11    10     8   am
    12     9     8    2
    13     8     7    1
    14     7     6    1
    15     6     2    1
    16     1     2    1
    17     2     3    1
    18     3     4   ar
    19     3     5   ar
