@<TRIPOS>MOLECULE
1y1d_FHI_A_1.pdb
 19 20 0 0 0
SMALL
GASTEIGER

@<TRIPOS>ATOM
      1  FAT       -0.0640    2.5910    8.8900 F     2000  FHI2000    -0.2041
      2  CAN        0.0850    1.3150    9.2870 C.ar  2000  FHI2000     0.1423
      3  CAM       -0.1960    0.9740   10.5990 C.ar  2000  FHI2000     0.0592
      4  CAF       -0.0490   -0.3370   11.0180 C.ar  2000  FHI2000     0.1424
      5  FAE       -0.3230   -0.6530   12.2950 F     2000  FHI2000    -0.2041
      6  CAG        0.3790   -1.3120   10.1240 C.ar  2000  FHI2000     0.0298
      7  CAH        0.6610   -0.9700    8.8050 C.ar  2000  FHI2000     0.0045
      8  CAO        0.5030    0.3470    8.3890 C.ar  2000  FHI2000     0.0276
      9  CAP        0.7920    0.7240    7.0900 C.ar  2000  FHI2000     0.0030
     10  CAI        0.2320    0.0860    5.9910 C.ar  2000  FHI2000     0.0099
     11  CAJ        0.5700    0.5190    4.7100 C.ar  2000  FHI2000     0.1190
     12  CAC       -0.0140   -0.1410    3.4960 C.2   2000  FHI2000     0.3909
     13  OAD        0.3460    0.2700    2.3720 O.co2 2000  FHI2000    -0.2404
     14  OAB       -0.8380   -1.0740    3.6240 O.co2 2000  FHI2000    -0.2404
     15  CAQ        1.6780    1.7790    6.9080 C.ar  2000  FHI2000     0.0091
     16  CAR        2.0090    2.2060    5.6330 C.ar  2000  FHI2000     0.0691
     17  IAS        3.3420    3.7990    5.3820 I     2000  FHI2000    -0.0392
     18  CAK        1.4540    1.5740    4.5360 C.ar  2000  FHI2000     0.2073
     19  OAL        1.7690    1.9830    3.3120 O.3   2000  FHI2000    -0.2859
@<TRIPOS>BOND
     1    13    12   ar
     2    19    18    1
     3    12    14   ar
     4    12    11    1
     5    18    11   ar
     6    18    16   ar
     7    11    10   ar
     8    17    16    1
     9    16    15   ar
    10    10     9   ar
    11    15     9   ar
    12     9     8    1
    13     8     7   ar
    14     8     2   ar
    15     7     6   ar
    16     1     2    1
    17     2     3   ar
    18     6     4   ar
    19     3     4   ar
    20     4     5    1
