@<TRIPOS>MOLECULE
1y1p_NMN_A_1.pdb
 22 23 0 0 0
SMALL
GASTEIGER

@<TRIPOS>ATOM
      1  O3P       -3.4970  -16.8800  -18.4820 O.3   1001  NMN1001    -0.1145
      2  P         -2.0010  -16.7330  -18.5990 P.3   1001  NMN1001     0.5327
      3  O1P       -1.1260  -17.7220  -17.9230 O.3   1001  NMN1001    -0.1145
      4  O2P       -1.8780  -16.5700  -20.0790 O.2   1001  NMN1001    -0.2224
      5  O5R       -1.6620  -15.3000  -17.9830 O.3   1001  NMN1001    -0.2675
      6  C5R       -0.5040  -15.0870  -17.1770 C.3   1001  NMN1001     0.1859
      7  C4R        0.2080  -13.8240  -17.6080 C.3   1001  NMN1001     0.1801
      8  O4R        0.9030  -14.0730  -18.8610 O.3   1001  NMN1001    -0.3327
      9  C3R       -0.6670  -12.5880  -17.8410 C.3   1001  NMN1001     0.2158
     10  O3R       -0.0680  -11.4380  -17.2450 O.3   1001  NMN1001    -0.2175
     11  C2R       -0.6770  -12.4520  -19.3630 C.3   1001  NMN1001     0.2309
     12  O2R       -0.8480  -11.1180  -19.8010 O.3   1001  NMN1001    -0.2158
     13  C1R        0.7200  -12.9590  -19.7040 C.3   1001  NMN1001     0.2263
     14  N1         0.9530  -13.3640  -21.1020 N.pl3 1001  NMN1001    -0.2787
     15  C2         0.5070  -14.6420  -21.5450 C.3   1001  NMN1001     0.1244
     16  C3         0.7410  -15.0160  -22.8120 C.2   1001  NMN1001     0.0544
     17  C7         0.3060  -16.3210  -23.3040 C.2   1001  NMN1001     0.2818
     18  O7         0.5510  -16.6230  -24.4740 O.2   1001  NMN1001    -0.2670
     19  N7        -0.3400  -17.1440  -22.4820 N.am  1001  NMN1001    -0.0839
     20  C4         1.4210  -14.1230  -23.6770 C.2   1001  NMN1001     0.0033
     21  C5         1.8570  -12.8440  -23.2330 C.2   1001  NMN1001     0.0157
     22  C6         1.6100  -12.5100  -21.9540 C.2   1001  NMN1001     0.0633
@<TRIPOS>BOND
     1    18    17    2
     2    20    21    1
     3    20    16    2
     4    17    16    1
     5    17    19   am
     6    21    22    2
     7    16    15    1
     8    22    14    1
     9    15    14    1
    10    14    13    1
    11     4     2    2
    12    12    11    1
    13    13    11    1
    14    13     8    1
    15    11     9    1
    16     8     7    1
    17     2     1    1
    18     2     5    1
    19     2     3    1
    20     5     6    1
    21     9     7    1
    22     9    10    1
    23     7     6    1
