@<TRIPOS>MOLECULE
1y1p_AMP_A_1.pdb
 22 24 0 0 0
SMALL
GASTEIGER

@<TRIPOS>ATOM
      1  P         -4.1540  -17.7680  -17.4430 P.3   1002  AMP1002     0.3942
      2  O1P       -3.7430  -19.1880  -17.5640 O.3   1002  AMP1002    -0.1425
      3  O2P       -5.5730  -17.3990  -17.6820 O.3   1002  AMP1002    -0.1425
      4  O5'       -3.7550  -17.2740  -15.9780 O.3   1002  AMP1002    -0.2926
      5  C5'       -3.9880  -15.9310  -15.5670 C.3   1002  AMP1002     0.1831
      6  C4'       -3.7060  -15.7760  -14.0900 C.3   1002  AMP1002     0.1822
      7  O4'       -4.0270  -14.4310  -13.6390 O.3   1002  AMP1002    -0.3135
      8  C3'       -4.4240  -16.7330  -13.1400 C.3   1002  AMP1002     0.2184
      9  O3'       -3.5180  -17.2440  -12.1660 O.3   1002  AMP1002    -0.2174
     10  C2'       -5.5230  -15.8570  -12.5540 C.3   1002  AMP1002     0.2570
     11  O2'       -6.0340  -16.2400  -11.2930 O.3   1002  AMP1002    -0.2130
     12  C1'       -4.8070  -14.5130  -12.4650 C.3   1002  AMP1002     0.3186
     13  N9        -5.7090  -13.3660  -12.4300 N.pl3 1002  AMP1002    -0.1439
     14  C8        -6.5690  -12.9260  -13.4070 C.3   1002  AMP1002     0.3377
     15  N7        -7.3090  -11.9100  -13.0390 N.2   1002  AMP1002    -0.2095
     16  C5        -6.9100  -11.6640  -11.7310 C.2   1002  AMP1002     0.2526
     17  C6        -7.3150  -10.7090  -10.7830 C.2   1002  AMP1002     0.4393
     18  N6        -8.2490   -9.7860  -11.0170 N.pl3 1002  AMP1002     0.2180
     19  N1        -6.7180  -10.7350   -9.5710 N.2   1002  AMP1002     0.0021
     20  C2        -5.7810  -11.6610   -9.3390 C.3   1002  AMP1002     0.5254
     21  N3        -5.3150  -12.6090  -10.1480 N.2   1002  AMP1002    -0.0055
     22  C4        -5.9270  -12.5540  -11.3440 C.2   1002  AMP1002     0.3518
@<TRIPOS>BOND
     1     3     1    1
     2     2     1    1
     3     1     4    1
     4     4     5    1
     5     5     6    1
     6     6     7    1
     7     6     8    1
     8     7    12    1
     9    14    15    1
    10    14    13    1
    11     8    10    1
    12     8     9    1
    13    15    16    2
    14    10    12    1
    15    10    11    1
    16    12    13    1
    17    13    22    1
    18    16    22    1
    19    16    17    1
    20    22    21    2
    21    18    17    1
    22    17    19    2
    23    21    20    1
    24    19    20    1
