@<TRIPOS>MOLECULE
1y1q_U_C_1.pdb
 21 22 0 0 0
SMALL
GASTEIGER

@<TRIPOS>ATOM
      1  OP3       -2.6250   44.3660   92.6700 O.3   8003  U8003      -0.1145
      2  P         -2.2060   44.5830   91.2220 P.3   8003  U8003       0.5327
      3  OP1       -1.2290   43.5180   90.7390 O.2   8003  U8003      -0.2224
      4  OP2       -1.7240   46.0100   90.9690 O.3   8003  U8003      -0.1145
      5  O5'       -3.5630   44.3730   90.3380 O.3   8003  U8003      -0.2675
      6  C5'       -3.6150   44.7240   88.9380 C.3   8003  U8003       0.1859
      7  C4'       -3.8860   46.2050   88.7750 C.3   8003  U8003       0.1801
      8  O4'       -4.5860   46.4170   87.5160 O.3   8003  U8003      -0.3320
      9  C3'       -4.8140   46.8340   89.8080 C.3   8003  U8003       0.2158
     10  O3'       -4.1130   47.1960   90.9980 O.3   8003  U8003      -0.2175
     11  C2'       -5.3290   48.0630   89.0660 C.3   8003  U8003       0.2319
     12  O2'       -4.4070   49.1370   89.0640 O.3   8003  U8003      -0.2157
     13  C1'       -5.4850   47.5120   87.6470 C.3   8003  U8003       0.2401
     14  N1        -6.8510   47.0490   87.3480 N.am  8003  U8003      -0.1766
     15  C2        -7.8370   48.0180   87.2070 C.1   8003  U8003       0.2845
     16  O2        -7.6070   49.2150   87.3170 O.2   8003  U8003      -0.1918
     17  N3        -9.0980   47.5330   86.9340 N.2   8003  U8003      -0.2452
     18  C4        -9.4660   46.2050   86.7870 C.1   8003  U8003       0.2182
     19  O4       -10.6460   45.9210   86.5430 O.2   8003  U8003      -0.2085
     20  C5        -8.3910   45.2690   86.9440 C.2   8003  U8003       0.1242
     21  C6        -7.1530   45.7100   87.2140 C.2   8003  U8003       0.0929
@<TRIPOS>BOND
     1    19    18    2
     2    18    17    2
     3    18    20    1
     4    17    15    2
     5    20    21    2
     6    15    16    2
     7    15    14   am
     8    21    14    1
     9    14    13    1
    10     8    13    1
    11     8     7    1
    12    13    11    1
    13     7     6    1
    14     7     9    1
    15     6     5    1
    16    12    11    1
    17    11     9    1
    18     9    10    1
    19     5     2    1
    20     3     2    2
    21     4     2    1
    22     2     1    1
