@<TRIPOS>MOLECULE
1y1r_ANU_B_1.pdb
 16 18 0 0 0
SMALL
GASTEIGER

@<TRIPOS>ATOM
      1  O3'        8.2430   61.4180   92.9690 O.3   707  ANU707     -0.2164
      2  C3'        9.3960   60.5920   92.7800 C.3   707  ANU707      0.2255
      3  C2'       10.5620   61.3570   92.1650 C.3   707  ANU707      0.2492
      4  O2        10.5240   62.2970   91.0870 O.2   707  ANU707     -0.4366
      5  C2        11.7770   62.7960   91.2760 C.2   707  ANU707      0.3591
      6  N3        12.8350   63.0720   90.3930 N.2   707  ANU707     -0.2807
      7  C4        14.0770   63.4520   90.9050 C.1   707  ANU707      0.2105
      8  O4        15.0350   63.6060   90.1210 O.2   707  ANU707     -0.2091
      9  C5        14.2930   63.5890   92.2630 C.2   707  ANU707      0.1230
     10  C6        13.2480   63.3270   93.1520 C.2   707  ANU707      0.0859
     11  N1        12.0040   62.9240   92.6560 N.pl3 707  ANU707     -0.2037
     12  C1'       10.8000   62.3380   93.2870 C.3   707  ANU707      0.2442
     13  O4'       10.9820   61.4140   94.3720 O.3   707  ANU707     -0.3314
     14  C4'       10.0600   60.3250   94.1380 C.3   707  ANU707      0.1840
     15  C5'       10.9200   59.0610   94.0500 C.3   707  ANU707      0.2142
     16  O5'       11.9910   59.2790   93.1260 O.3   707  ANU707     -0.2176
@<TRIPOS>BOND
     1     8     7    2
     2     6     7    2
     3     6     5    2
     4     7     9    1
     5     4     5    1
     6     4     3    1
     7     5    11    1
     8     3     2    1
     9     3    12    1
    10     9    10    2
    11    11    10    1
    12    11    12    1
    13     2     1    1
    14     2    14    1
    15    16    15    1
    16    12    13    1
    17    15    14    1
    18    14    13    1
