@<TRIPOS>MOLECULE
1y21_HEM_A_1.pdb
 43 50 0 0 0
SMALL
GASTEIGER

@<TRIPOS>ATOM
      1  CHA        7.9720   20.7630    3.1040 C.2   300  HEM300      0.0000
      2  CHB        7.8830   16.6770    5.7130 C.2   300  HEM300      0.0000
      3  CHC       12.7300   16.6160    5.4180 C.2   300  HEM300      0.0000
      4  CHD       12.8390   21.1220    3.5260 C.2   300  HEM300      0.0000
      5  C1A        7.5150   19.6690    3.7580 C.2   300  HEM300      0.0000
      6  C2A        6.1530   19.2090    3.8590 C.2   300  HEM300      0.0000
      7  C3A        6.1350   18.0820    4.6050 C.2   300  HEM300      0.0000
      8  C4A        7.4920   17.7770    4.9620 C.2   300  HEM300      0.0000
      9  CMA        4.9320   17.2220    5.0800 C.3   300  HEM300      0.0000
     10  CAA        4.9120   19.8940    3.2450 C.3   300  HEM300      0.0000
     11  CBA        4.3470   18.9080    2.2050 C.3   300  HEM300      0.0000
     12  CGA        3.1840   19.5600    1.4830 C.2   300  HEM300      0.0000
     13  O1A        3.4300   20.7200    0.9820 O.co2 300  HEM300      0.0000
     14  O2A        2.0640   18.9600    1.4980 O.co2 300  HEM300      0.0000
     15  C1B        9.1860   16.2470    5.8330 C.ar  300  HEM300      0.0000
     16  C2B        9.6490   15.0300    6.4750 C.ar  300  HEM300      0.0000
     17  C3B       11.0030   15.0390    6.3930 C.ar  300  HEM300      0.0000
     18  C4B       11.4360   16.2340    5.7030 C.ar  300  HEM300      0.0000
     19  CMB        8.7230   13.9690    7.1140 C.3   300  HEM300      0.0000
     20  CAB       11.9720   13.9670    6.9090 C.2   300  HEM300      0.0000
     21  CBB       11.7910   12.6840    6.5450 C.2   300  HEM300      0.0000
     22  C1C       13.1620   17.8070    4.8910 C.2   300  HEM300      0.0000
     23  C2C       14.5520   18.1710    4.6170 C.2   300  HEM300      0.0000
     24  C3C       14.5610   19.4050    4.0920 C.2   300  HEM300      0.0000
     25  C4C       13.2010   19.8750    4.0030 C.2   300  HEM300      0.0000
     26  CMC       15.8130   17.2860    4.8970 C.3   300  HEM300      0.0000
     27  CAC       15.7790   20.2580    3.6440 C.2   300  HEM300      0.0000
     28  CBC       16.9400   20.2590    4.3290 C.2   300  HEM300      0.0000
     29  C1D       11.5640   21.4460    3.1790 C.ar  300  HEM300      0.0000
     30  C2D       11.1070   22.6340    2.5020 C.ar  300  HEM300      0.0000
     31  C3D        9.5920   22.4980    2.3950 C.ar  300  HEM300      0.0000
     32  C4D        9.2590   21.2470    3.0390 C.ar  300  HEM300      0.0000
     33  CMD       11.9290   23.8100    1.9560 C.3   300  HEM300      0.0000
     34  CAD        8.6080   23.4940    1.7220 C.3   300  HEM300      0.0000
     35  CBD        8.8430   23.5960    0.2200 C.3   300  HEM300      0.0000
     36  CGD        7.8200   24.5330   -0.4070 C.2   300  HEM300      0.0000
     37  O1D        8.0930   24.9960   -1.5630 O.co2 300  HEM300      0.0000
     38  O2D        6.7690   24.8050    0.2570 O.co2 300  HEM300      0.0000
     39  NA         8.3170   18.7700    4.4360 N.2   300  HEM300      0.0000
     40  NB        10.2880   16.9340    5.4140 N.ar  300  HEM300      0.0000
     41  NC        12.3670   18.8760    4.4990 N.2   300  HEM300      0.0000
     42  ND        10.4580   20.6880    3.5010 N.ar  300  HEM300      0.0000
     43 FE         10.3310   18.8450    4.6290 Fe    300  HEM300      0.0000
@<TRIPOS>BOND
     1    37    36   ar
     2    36    35    1
     3    36    38   ar
     4    35    34    1
     5    13    12   ar
     6    12    14   ar
     7    12    11    1
     8    34    31    1
     9    33    30    1
    10    11    10    1
    11    31    30   ar
    12    31    32   ar
    13    30    29   ar
    14    32     1    2
    15    32    42   ar
    16     1     5    1
    17    29    42   ar
    18    29     4    2
    19    10     6    1
    20    42    43    1
    21     4    25    1
    22    27    24    1
    23    27    28    2
    24     5     6    1
    25     5    39    2
    26     6     7    2
    27    25    24    1
    28    25    41    2
    29    24    23    2
    30    39    43    1
    31    39     8    1
    32    41    43    1
    33    41    22    1
    34     7     8    1
    35     7     9    1
    36    23    22    1
    37    23    26    1
    38    43    40    1
    39    22     3    2
    40     8     2    2
    41    40    18   ar
    42    40    15   ar
    43     3    18    1
    44    18    17   ar
    45     2    15    1
    46    15    16   ar
    47    17    16   ar
    48    17    20    1
    49    16    19    1
    50    21    20    2
