@<TRIPOS>MOLECULE
1y22_HEM_A_1.pdb
 43 50 0 0 0
SMALL
GASTEIGER

@<TRIPOS>ATOM
      1 FE          8.2280   40.3840  -15.3460 Fe    142  HEM142      0.0000
      2  CHA        6.7070   43.1700  -16.6170 C.2   142  HEM142      0.0000
      3  CHB        6.1510   40.5630  -12.5700 C.2   142  HEM142      0.0000
      4  CHC       10.2090   38.0960  -13.6270 C.2   142  HEM142      0.0000
      5  CHD       10.9170   40.9580  -17.5170 C.2   142  HEM142      0.0000
      6  NA         6.7520   41.6100  -14.7140 N.2   142  HEM142      0.0000
      7  C1A        6.2440   42.6750  -15.4150 C.2   142  HEM142      0.0000
      8  C2A        5.1430   43.2420  -14.6780 C.2   142  HEM142      0.0000
      9  C3A        4.9700   42.5250  -13.5790 C.2   142  HEM142      0.0000
     10  C4A        5.9730   41.4970  -13.5700 C.2   142  HEM142      0.0000
     11  CMA        3.9360   42.7130  -12.4410 C.3   142  HEM142      0.0000
     12  CAA        4.3850   44.4590  -15.2490 C.3   142  HEM142      0.0000
     13  CBA        3.1620   44.1220  -16.1130 C.3   142  HEM142      0.0000
     14  CGA        2.2980   45.3350  -16.3910 C.2   142  HEM142      0.0000
     15  O1A        1.2770   45.4480  -15.6700 O.co2 142  HEM142      0.0000
     16  O2A        2.6890   46.1240  -17.2870 O.co2 142  HEM142      0.0000
     17  NB         8.2030   39.5230  -13.4720 N.ar  142  HEM142      0.0000
     18  C1B        7.2660   39.7410  -12.4830 C.ar  142  HEM142      0.0000
     19  C2B        7.5730   38.9010  -11.3440 C.ar  142  HEM142      0.0000
     20  C3B        8.6750   38.2120  -11.6320 C.ar  142  HEM142      0.0000
     21  C4B        9.1000   38.6110  -12.9610 C.ar  142  HEM142      0.0000
     22  CMB        6.6950   38.8860  -10.0740 C.3   142  HEM142      0.0000
     23  CAB        9.4800   37.2070  -10.7840 C.2   142  HEM142      0.0000
     24  CBB        8.9290   36.4630   -9.8520 C.2   142  HEM142      0.0000
     25  NC        10.1370   39.6620  -15.5550 N.2   142  HEM142      0.0000
     26  C1C       10.7510   38.7100  -14.7530 C.2   142  HEM142      0.0000
     27  C2C       12.1030   38.4910  -15.2150 C.2   142  HEM142      0.0000
     28  C3C       12.3100   39.3030  -16.2500 C.2   142  HEM142      0.0000
     29  C4C       11.0810   40.0420  -16.4860 C.2   142  HEM142      0.0000
     30  CMC       13.0710   37.4820  -14.5630 C.3   142  HEM142      0.0000
     31  CAC       13.5760   39.4460  -17.1150 C.2   142  HEM142      0.0000
     32  CBC       14.7940   39.4570  -16.5500 C.2   142  HEM142      0.0000
     33  ND         8.7370   41.8060  -16.7360 N.ar  142  HEM142      0.0000
     34  C1D        9.8210   41.7860  -17.6080 C.ar  142  HEM142      0.0000
     35  C2D        9.6440   42.8090  -18.6240 C.ar  142  HEM142      0.0000
     36  C3D        8.4830   43.4080  -18.3760 C.ar  142  HEM142      0.0000
     37  C4D        7.9180   42.8130  -17.1840 C.ar  142  HEM142      0.0000
     38  CMD       10.6620   43.0870  -19.7560 C.3   142  HEM142      0.0000
     39  CAD        7.7940   44.5930  -19.1150 C.3   142  HEM142      0.0000
     40  CBD        8.2480   45.9380  -18.5660 C.3   142  HEM142      0.0000
     41  CGD        7.7880   47.1970  -19.2160 C.2   142  HEM142      0.0000
     42  O1D        7.2700   48.0890  -18.4910 O.co2 142  HEM142      0.0000
     43  O2D        7.9760   47.2850  -20.4540 O.co2 142  HEM142      0.0000
@<TRIPOS>BOND
     1    43    41   ar
     2    38    35    1
     3    41    40    1
     4    41    42   ar
     5    39    40    1
     6    39    36    1
     7    35    36   ar
     8    35    34   ar
     9    36    37   ar
    10    34     5    2
    11    34    33   ar
    12     5    29    1
    13    16    14   ar
    14    37    33   ar
    15    37     2    2
    16    31    32    2
    17    31    28    1
    18    33     1    1
    19     2     7    1
    20    29    28    1
    21    29    25    2
    22    14    13    1
    23    14    15   ar
    24    28    27    2
    25    13    12    1
    26    25     1    1
    27    25    26    1
    28     7     6    2
    29     7     8    1
    30     1     6    1
    31     1    17    1
    32    12     8    1
    33    27    26    1
    34    27    30    1
    35    26     4    2
    36     6    10    1
    37     8     9    2
    38     4    21    1
    39     9    10    1
    40     9    11    1
    41    10     3    2
    42    17    21   ar
    43    17    18   ar
    44    21    20   ar
    45     3    18    1
    46    18    19   ar
    47    20    19   ar
    48    20    23    1
    49    19    22    1
    50    23    24    2
