@<TRIPOS>MOLECULE
1y28_HEM_A_1.pdb
 43 50 0 0 0
SMALL
GASTEIGER

@<TRIPOS>ATOM
      1 FE         48.0410   55.3910   33.4450 Fe    719  HEM719      0.0000
      2  CHA       45.0240   54.2030   32.4560 C.2   719  HEM719      0.0000
      3  CHB       49.4750   54.0420   30.6880 C.2   719  HEM719      0.0000
      4  CHC       51.1170   56.3860   34.5590 C.2   719  HEM719      0.0000
      5  CHD       46.6300   56.6120   36.2790 C.2   719  HEM719      0.0000
      6  NA        47.3960   54.3410   31.8880 N.ar  719  HEM719      0.0000
      7  C1A       46.1070   53.9240   31.6290 C.ar  719  HEM719      0.0000
      8  C2A       46.0200   53.1600   30.4240 C.ar  719  HEM719      0.0000
      9  C3A       47.3010   53.1070   29.9130 C.ar  719  HEM719      0.0000
     10  C4A       48.1270   53.8570   30.8400 C.ar  719  HEM719      0.0000
     11  CMA       47.8520   52.4380   28.6650 C.3   719  HEM719      0.0000
     12  CAA       44.6950   52.5610   29.9020 C.3   719  HEM719      0.0000
     13  CBA       44.7750   51.5620   28.7450 C.3   719  HEM719      0.0000
     14  CGA       43.7980   50.5690   28.7680 C.2   719  HEM719      0.0000
     15  O1A       42.6790   50.8810   28.1880 O.co2 719  HEM719      0.0000
     16  O2A       43.9740   49.4590   29.3090 O.co2 719  HEM719      0.0000
     17  NB        49.9080   55.2960   32.7580 N.2   719  HEM719      0.0000
     18  C1B       50.3110   54.7130   31.5870 C.2   719  HEM719      0.0000
     19  C2B       51.7110   54.8350   31.3550 C.2   719  HEM719      0.0000
     20  C3B       52.2370   55.4800   32.4120 C.2   719  HEM719      0.0000
     21  C4B       51.0730   55.7590   33.3120 C.2   719  HEM719      0.0000
     22  CMB       52.3960   54.2860   30.1180 C.3   719  HEM719      0.0000
     23  CAB       53.7240   55.8010   32.5880 C.3   719  HEM719      0.0000
     24  CBB       54.1510   56.8870   33.6070 C.3   719  HEM719      0.0000
     25  NC        48.7180   56.3020   35.0640 N.ar  719  HEM719      0.0000
     26  C1C       50.0440   56.6340   35.3720 C.ar  719  HEM719      0.0000
     27  C2C       50.1480   57.2560   36.6610 C.ar  719  HEM719      0.0000
     28  C3C       48.8630   57.3260   37.1430 C.ar  719  HEM719      0.0000
     29  C4C       48.0110   56.7390   36.1480 C.ar  719  HEM719      0.0000
     30  CMC       51.4870   57.6960   37.2550 C.3   719  HEM719      0.0000
     31  CAC       48.3000   57.8830   38.4810 C.3   719  HEM719      0.0000
     32  CBC       49.3300   58.2050   39.6030 C.3   719  HEM719      0.0000
     33  ND        46.2040   55.4410   34.1820 N.2   719  HEM719      0.0000
     34  C1D       45.7850   56.0030   35.3700 C.2   719  HEM719      0.0000
     35  C2D       44.3410   55.8570   35.5710 C.2   719  HEM719      0.0000
     36  C3D       43.9110   55.1660   34.4930 C.2   719  HEM719      0.0000
     37  C4D       45.0790   54.9120   33.6430 C.2   719  HEM719      0.0000
     38  CMD       43.6040   56.3720   36.7710 C.3   719  HEM719      0.0000
     39  CAD       42.5220   54.6580   34.1130 C.3   719  HEM719      0.0000
     40  CBD       42.0250   53.5050   35.1160 C.3   719  HEM719      0.0000
     41  CGD       42.1310   52.1740   34.6270 C.2   719  HEM719      0.0000
     42  O1D       42.4480   51.2320   35.4370 O.co2 719  HEM719      0.0000
     43  O2D       41.8950   51.8850   33.4190 O.co2 719  HEM719      0.0000
@<TRIPOS>BOND
     1    15    14   ar
     2    11     9    1
     3    13    14    1
     4    13    12    1
     5    14    16   ar
     6    12     8    1
     7     9     8   ar
     8     9    10   ar
     9    22    19    1
    10     8     7   ar
    11     3    10    2
    12     3    18    1
    13    10     6   ar
    14    19    18    1
    15    19    20    2
    16    18    17    2
    17     7     6   ar
    18     7     2    2
    19     6     1    1
    20    20    23    1
    21    20    21    1
    22     2    37    1
    23    23    24    1
    24    17    21    1
    25    17     1    1
    26    21     4    2
    27    43    41   ar
    28     1    33    1
    29     1    25    1
    30    37    33    2
    31    37    36    1
    32    39    36    1
    33    39    40    1
    34    33    34    1
    35    36    35    2
    36     4    26    1
    37    41    40    1
    38    41    42   ar
    39    25    26   ar
    40    25    29   ar
    41    34    35    1
    42    34     5    2
    43    26    27   ar
    44    35    38    1
    45    29     5    1
    46    29    28   ar
    47    27    28   ar
    48    27    30    1
    49    28    31    1
    50    31    32    1
