@<TRIPOS>MOLECULE
1y2b_DEE_A_1.pdb
 12 12 0 0 0
SMALL
GASTEIGER

@<TRIPOS>ATOM
      1  O7        15.6700   45.7620    9.5570 O.2   502  DEE502     -0.2493
      2  C6        14.5740   45.6030   10.0890 C.2   502  DEE502      0.3273
      3  O8        13.3850   45.6210    9.4050 O.3   502  DEE502     -0.4480
      4  C11       13.4510   45.6730    7.9680 C.3   502  DEE502      0.2086
      5  C12       12.0460   45.7730    7.4160 C.3   502  DEE502      0.0513
      6  C1        14.4040   45.6220   11.5430 C.3   502  DEE502      0.1740
      7  C4        13.2490   45.7810   12.3090 C.2   502  DEE502      0.0743
      8  C9        11.8200   45.9840   11.9680 C.3   502  DEE502      0.0501
      9  C5        15.4360   45.4790   12.5170 C.2   502  DEE502      0.0743
     10  C10       16.8870   45.2740   12.2810 C.3   502  DEE502      0.0501
     11  N2        14.9680   45.5390   13.7700 N.2   502  DEE502     -0.1564
     12  N3        13.6520   45.7250   13.6140 N.2   502  DEE502     -0.1564
@<TRIPOS>BOND
     1     5     4    1
     2     4     3    1
     3     3     2    1
     4     1     2    2
     5     2     6    1
     6     6     7    1
     7     6     9    1
     8     8     7    1
     9    10     9    1
    10     7    12    2
    11     9    11    2
    12    12    11    1
