@<TRIPOS>MOLECULE
1y2c_3DE_A_1.pdb
 18 19 0 0 0
SMALL
GASTEIGER

@<TRIPOS>ATOM
      1  C14       14.6490    6.2990    9.9730 C.2   1003  3DE1003     0.3436
      2  O15       13.5220    6.0870    9.2700 O.3   1003  3DE1003    -0.4454
      3  C16       13.5320    6.1430    7.8330 C.3   1003  3DE1003     0.2089
      4  C17       12.1140    6.3670    7.3450 C.3   1003  3DE1003     0.0513
      5  C10       14.5900    6.1160   11.4350 C.ar  1003  3DE1003     0.1044
      6  C11       15.7760    6.0350   12.3110 C.ar  1003  3DE1003     0.0867
      7  N13       15.3120    5.8250   13.5150 N.ar  1003  3DE1003    -0.1696
      8  C12       17.2280    5.9230   11.9280 C.3   1003  3DE1003     0.0542
      9  C8        13.4890    6.0910   12.2260 C.ar  1003  3DE1003     0.0682
     10  C9        12.0490    6.2220   11.7990 C.3   1003  3DE1003     0.0524
     11  N1        13.8870    5.9290   13.5250 N.ar  1003  3DE1003    -0.2338
     12  C2        13.1040    5.8140   14.6890 C.ar  1003  3DE1003     0.0824
     13  C3        13.1990    6.7770   15.7030 C.ar  1003  3DE1003     0.0191
     14  C4        12.4240    6.6300   16.8640 C.ar  1003  3DE1003     0.0015
     15  C5        11.5790    5.5170   17.0150 C.ar  1003  3DE1003     0.0001
     16  C6        11.5050    4.5500   16.0080 C.ar  1003  3DE1003     0.0015
     17  C7        12.2750    4.6980   14.8450 C.ar  1003  3DE1003     0.0191
     18  O1        15.7210    6.3190    9.4340 O.2   1003  3DE1003    -0.2448
@<TRIPOS>BOND
     1     4     3    1
     2     3     2    1
     3     2     1    1
     4    18     1    2
     5     1     5    1
     6     5     9   ar
     7     5     6   ar
     8    10     9    1
     9     8     6    1
    10     9    11   ar
    11     6     7   ar
    12     7    11   ar
    13    11    12    1
    14    12    17   ar
    15    12    13   ar
    16    17    16   ar
    17    13    14   ar
    18    16    15   ar
    19    14    15   ar
