@<TRIPOS>MOLECULE
1y2d_4DE_A_1.pdb
 20 21 0 0 0
SMALL
GASTEIGER

@<TRIPOS>ATOM
      1  O3        15.7720   46.2140    9.3150 O.2   601  4DE601     -0.2448
      2  C2        14.8480   45.6950    9.9320 C.2   601  4DE601      0.3436
      3  O4        13.7570   45.1000    9.3400 O.3   601  4DE601     -0.4454
      4  C5        12.6740   45.8410    8.7610 C.3   601  4DE601      0.2089
      5  C6        12.8870   46.0130    7.2710 C.3   601  4DE601      0.0513
      6  C1        14.8350   45.5640   11.3920 C.ar  601  4DE601      0.1044
      7  C7        13.7490   45.5420   12.3180 C.ar  601  4DE601      0.0867
      8  C8        12.2810   45.6690   12.1220 C.3   601  4DE601      0.0542
      9  N9        14.2130   45.3970   13.5570 N.ar  601  4DE601     -0.1696
     10  N10       15.5660   45.3090   13.5200 N.ar  601  4DE601     -0.2338
     11  C12       15.9800   45.4020   12.1910 C.ar  601  4DE601      0.0682
     12  C13       17.4000   45.3520   11.7480 C.3   601  4DE601      0.0524
     13  C11       16.2870   45.1370   14.7540 C.ar  601  4DE601      0.0826
     14  C14       16.3530   43.8370   15.2940 C.ar  601  4DE601      0.0222
     15  C15       17.0310   43.5880   16.4900 C.ar  601  4DE601      0.0384
     16  C16       17.6570   44.6330   17.1770 C.ar  601  4DE601      0.1388
     17  C19       17.6000   45.9280   16.6520 C.ar  601  4DE601      0.0384
     18  C20       16.9210   46.1810   15.4480 C.ar  601  4DE601      0.0222
     19  O17       18.3460   44.4990   18.3740 O.3   601  4DE601     -0.4714
     20  C18       17.5750   44.6450   19.5740 C.3   601  4DE601      0.2525
@<TRIPOS>BOND
     1     5     4    1
     2     4     3    1
     3     1     2    2
     4     3     2    1
     5     2     6    1
     6     6    11   ar
     7     6     7   ar
     8    12    11    1
     9     8     7    1
    10    11    10   ar
    11     7     9   ar
    12    10     9   ar
    13    10    13    1
    14    13    14   ar
    15    13    18   ar
    16    14    15   ar
    17    18    17   ar
    18    15    16   ar
    19    17    16   ar
    20    16    19    1
    21    19    20    1
