@<TRIPOS>MOLECULE
1y2e_5DE_A_1.pdb
 19 20 0 0 0
SMALL
GASTEIGER

@<TRIPOS>ATOM
      1  O19       15.8030    6.2830    9.2350 O.2   1003  5DE1003    -0.2448
      2  C15       14.7570    6.1880    9.8330 C.2   1003  5DE1003     0.3436
      3  O16       13.5730    6.1710    9.2210 O.3   1003  5DE1003    -0.4454
      4  C17       13.5660    6.1920    7.7790 C.3   1003  5DE1003     0.2089
      5  C18       12.1200    6.1870    7.2560 C.3   1003  5DE1003     0.0513
      6  C7        14.7650    6.0150   11.3240 C.ar  1003  5DE1003     0.1044
      7  C8        15.8680    5.8750   12.1690 C.ar  1003  5DE1003     0.0867
      8  N10       15.4380    5.7210   13.4260 N.ar  1003  5DE1003    -0.1696
      9  C9        17.3540    5.8900   11.8430 C.3   1003  5DE1003     0.0542
     10  C5        13.6560    5.9230   12.1670 C.ar  1003  5DE1003     0.0682
     11  C6        12.1890    6.0150   11.7690 C.3   1003  5DE1003     0.0524
     12  N4        14.1120    5.7550   13.4150 N.ar  1003  5DE1003    -0.2338
     13  C3        13.3590    5.5870   14.5120 C.ar  1003  5DE1003     0.0825
     14  C2        13.0510    6.6300   15.4060 C.ar  1003  5DE1003     0.0205
     15  C1        12.2660    6.3540   16.5370 C.ar  1003  5DE1003     0.0196
     16  C11       12.8850    4.2850   14.7510 C.ar  1003  5DE1003     0.0205
     17  C12       12.0930    4.0190   15.8650 C.ar  1003  5DE1003     0.0196
     18  C13       11.7790    5.0400   16.7580 C.ar  1003  5DE1003     0.0892
     19  N14       11.0150    4.7430   17.8250 N.pl3 1003  5DE1003    -0.1281
@<TRIPOS>BOND
     1     5     4    1
     2     4     3    1
     3     3     2    1
     4     1     2    2
     5     2     6    1
     6     6    10   ar
     7     6     7   ar
     8    11    10    1
     9     9     7    1
    10    10    12   ar
    11     7     8   ar
    12    12     8   ar
    13    12    13    1
    14    13    16   ar
    15    13    14   ar
    16    16    17   ar
    17    14    15   ar
    18    17    18   ar
    19    15    18   ar
    20    18    19    1
