@<TRIPOS>MOLECULE
1y2h_6DE_A_1.pdb
 19 20 0 0 0
SMALL
GASTEIGER

@<TRIPOS>ATOM
      1  O14       -0.2810   48.0130  -12.7470 O.2   101  6DE101     -0.2448
      2  C13       -0.0310   48.2200  -11.5670 C.2   101  6DE101      0.3436
      3  O15       -0.9720   48.2910  -10.6040 O.3   101  6DE101     -0.4454
      4  C16       -2.3470   48.5440  -10.9710 C.3   101  6DE101      0.2089
      5  C17       -2.9930   49.4190   -9.8730 C.3   101  6DE101      0.0513
      6  C12        1.4100   48.3990  -11.1480 C.ar  101  6DE101      0.1044
      7  C18        1.8400   49.0190   -9.9700 C.ar  101  6DE101      0.0683
      8  C19        0.9910   49.6490   -8.8620 C.3   101  6DE101      0.0524
      9  C10        2.5470   47.9780  -11.8560 C.ar  101  6DE101      0.0867
     10  C11        2.5350   47.2530  -13.2010 C.3   101  6DE101      0.0542
     11  N9         3.7170   48.2690  -11.2450 N.ar  101  6DE101     -0.1695
     12  N1         3.3120   48.9690   -9.9960 N.ar  101  6DE101     -0.2330
     13  C2         4.1890   49.4370   -9.0740 C.ar  101  6DE101      0.0929
     14  C3         4.5580   48.6190   -8.0200 C.ar  101  6DE101      0.0753
     15 CL4         3.8450   47.0380   -7.9540 Cl    101  6DE101     -0.0807
     16  C5         5.4640   49.0400   -7.0460 C.ar  101  6DE101      0.0129
     17  C6         6.0150   50.3140   -7.1380 C.ar  101  6DE101      0.0010
     18  C7         5.6560   51.1560   -8.1970 C.ar  101  6DE101      0.0016
     19  C8         4.7450   50.7180   -9.1660 C.ar  101  6DE101      0.0200
@<TRIPOS>BOND
     1    10     9    1
     2     1     2    2
     3     9    11   ar
     4     9     6   ar
     5     2     6    1
     6     2     3    1
     7    11    12   ar
     8     6     7   ar
     9     4     3    1
    10     4     5    1
    11    12     7   ar
    12    12    13    1
    13     7     8    1
    14    19    13   ar
    15    19    18   ar
    16    13    14   ar
    17    18    17   ar
    18    14    15    1
    19    14    16   ar
    20    17    16   ar
