@<TRIPOS>MOLECULE
1y2j_7DE_A_1.pdb
 21 22 0 0 0
SMALL
GASTEIGER

@<TRIPOS>ATOM
      1  O21       40.5100    1.5730   58.0170 O.2   101  7DE101     -0.1261
      2  N19       39.4690    1.4350   58.6870 N.pl3 101  7DE101      0.0577
      3  O20       38.3310    1.5290   58.2130 O.2   101  7DE101     -0.1261
      4  C12       39.5810    1.9410   59.9600 C.ar  101  7DE101      0.1444
      5  C13       38.7710    3.0400   60.3140 C.ar  101  7DE101      0.0242
      6  C11       40.5230    1.4150   60.8710 C.ar  101  7DE101      0.0432
      7  C3        40.6190    2.0070   62.1120 C.ar  101  7DE101      0.0841
      8  C2        39.8070    3.0930   62.4330 C.ar  101  7DE101      0.0192
      9  C1        38.9030    3.6280   61.5470 C.ar  101  7DE101      0.0032
     10  N4        41.4210    1.6080   63.1290 N.ar  101  7DE101     -0.2337
     11  C5        42.7150    1.7970   63.2960 C.ar  101  7DE101      0.0682
     12  C6        43.6570    2.4760   62.2900 C.3   101  7DE101      0.0524
     13  C7        43.0610    1.2830   64.4920 C.ar  101  7DE101      0.1044
     14  C8        41.8130    0.7510   65.0610 C.ar  101  7DE101      0.0867
     15  N10       40.9010    0.9900   64.2090 N.ar  101  7DE101     -0.1696
     16  C9        41.5330    0.0570   66.3610 C.3   101  7DE101      0.0542
     17  C14       44.3980    1.2460   65.0920 C.2   101  7DE101      0.3436
     18  O18       44.4900    0.8220   66.2330 O.2   101  7DE101     -0.2448
     19  O15       45.4470    1.2680   64.2470 O.3   101  7DE101     -0.4454
     20  C16       46.7720    1.2960   64.8090 C.3   101  7DE101      0.2089
     21  C17       47.7820    1.7950   63.7440 C.3   101  7DE101      0.0513
@<TRIPOS>BOND
     1     1     2    2
     2     3     2    2
     3     2     4    1
     4     4     5   ar
     5     4     6   ar
     6     5     9   ar
     7     6     7   ar
     8     9     8   ar
     9     7     8   ar
    10     7    10    1
    11    12    11    1
    12    10    11   ar
    13    10    15   ar
    14    11    13   ar
    15    21    20    1
    16    15    14   ar
    17    19    20    1
    18    19    17    1
    19    13    14   ar
    20    13    17    1
    21    14    16    1
    22    17    18    2
