@<TRIPOS>MOLECULE
1y2k_7DE_A_1.pdb
 21 22 0 0 0
SMALL
GASTEIGER

@<TRIPOS>ATOM
      1  O21       10.6840   42.2670   15.7390 O.2   602  7DE602     -0.1261
      2  N19       10.8910   43.1080   16.5910 N.pl3 602  7DE602      0.0577
      3  O20       10.5610   42.9540   17.7520 O.2   602  7DE602     -0.1261
      4  C12       11.7100   44.1590   16.2920 C.ar  602  7DE602      0.1444
      5  C13       11.8620   45.2270   17.1940 C.ar  602  7DE602      0.0242
      6  C11       12.4350   44.2050   15.0810 C.ar  602  7DE602      0.0432
      7  C3        13.2690   45.2870   14.7800 C.ar  602  7DE602      0.0841
      8  C2        13.4100   46.3370   15.6930 C.ar  602  7DE602      0.0192
      9  C1        12.7020   46.3040   16.8970 C.ar  602  7DE602      0.0032
     10  N4        13.9730   45.3270   13.6190 N.ar  602  7DE602     -0.2337
     11  C5        13.5230   45.4580   12.3860 C.ar  602  7DE602      0.0682
     12  C6        12.0530   45.6070   12.0420 C.3   602  7DE602      0.0524
     13  C7        14.5740   45.4430   11.5290 C.ar  602  7DE602      0.1044
     14  C8        15.7490   45.2820   12.4030 C.ar  602  7DE602      0.0867
     15  N10       15.3140   45.2230   13.5890 N.ar  602  7DE602     -0.1696
     16  C9        17.2140   45.1910   12.0710 C.3   602  7DE602      0.0542
     17  C14       14.6100   45.5570   10.0530 C.2   602  7DE602      0.3436
     18  O18       15.6900   45.6880    9.4810 O.2   602  7DE602     -0.2448
     19  O15       13.4520   45.4600    9.3940 O.3   602  7DE602     -0.4454
     20  C16       13.4660   45.5290    7.9480 C.3   602  7DE602      0.2089
     21  C17       12.0210   45.6420    7.4140 C.3   602  7DE602      0.0513
@<TRIPOS>BOND
     1    21    20    1
     2    20    19    1
     3    19    17    1
     4    18    17    2
     5    17    13    1
     6    13    11   ar
     7    13    14   ar
     8    12    11    1
     9    16    14    1
    10    11    10   ar
    11    14    15   ar
    12    15    10   ar
    13    10     7    1
    14     7     6   ar
    15     7     8   ar
    16     6     4   ar
    17     8     9   ar
    18     1     2    2
    19     4     2    1
    20     4     5   ar
    21     2     3    2
    22     9     5   ar
