@<TRIPOS>MOLECULE
1y2u_NAG_A_1.pdb
 15 15 0 0 0
SMALL
GASTEIGER

@<TRIPOS>ATOM
      1  C1        43.6770   41.4930   46.7860 C.3   144  NAG144      0.2917
      2  C2        42.7950   41.5450   45.5380 C.3   144  NAG144      0.1871
      3  C3        41.4420   40.8750   45.7670 C.3   144  NAG144      0.2095
      4  C4        41.6240   39.4800   46.3850 C.3   144  NAG144      0.2136
      5  C5        42.6550   39.4420   47.5220 C.3   144  NAG144      0.1835
      6  C6        43.0410   38.0060   47.8610 C.3   144  NAG144      0.2142
      7  C7        43.3350   43.4210   44.0740 C.2   144  NAG144      0.2421
      8  C8        43.0410   44.8490   43.7160 C.3   144  NAG144      0.0964
      9  N2        42.6190   42.9090   45.0750 N.am  144  NAG144     -0.1991
     10  O1        43.1260   42.2810   47.8230 O.3   144  NAG144     -0.1879
     11  O3        40.8010   40.7900   44.5060 O.3   144  NAG144     -0.2183
     12  O4        40.3830   39.0120   46.8760 O.3   144  NAG144     -0.2176
     13  O5        43.8420   40.1440   47.1920 O.3   144  NAG144     -0.3242
     14  O6        42.3550   37.6110   49.0270 O.3   144  NAG144     -0.2176
     15  O7        44.2000   42.7910   43.4580 O.2   144  NAG144     -0.2733
@<TRIPOS>BOND
     1    15     7    2
     2     8     7    1
     3     7     9   am
     4    11     3    1
     5     9     2    1
     6     2     3    1
     7     2     1    1
     8     3     4    1
     9     4    12    1
    10     4     5    1
    11     1    13    1
    12     1    10    1
    13    13     5    1
    14     5     6    1
    15     6    14    1
