@<TRIPOS>MOLECULE
1y2u_GAL_A_1.pdb
 11 11 0 0 0
SMALL
GASTEIGER

@<TRIPOS>ATOM
      1  C1        39.4030   41.1550   44.5500 C.3   145  GAL145      0.1777
      2  C2        38.9390   41.5370   43.1420 C.3   145  GAL145      0.2141
      3  C3        37.4440   41.8640   43.1290 C.3   145  GAL145      0.2173
      4  C4        36.6270   40.7540   43.7900 C.3   145  GAL145      0.2142
      5  C5        37.2040   40.4430   45.1730 C.3   145  GAL145      0.1810
      6  C6        36.4320   39.3270   45.8750 C.3   145  GAL145      0.2141
      7  O2        39.6630   42.6480   42.6680 O.3   145  GAL145     -0.2176
      8  O3        37.0130   42.0750   41.8030 O.3   145  GAL145     -0.2175
      9  O4        36.6330   39.5950   42.9790 O.3   145  GAL145     -0.2176
     10  O5        38.5840   40.1150   45.0670 O.3   145  GAL145     -0.3481
     11  O6        37.0910   38.9510   47.0650 O.3   145  GAL145     -0.2176
@<TRIPOS>BOND
     1     8     3    1
     2     7     2    1
     3     9     4    1
     4     3     2    1
     5     3     4    1
     6     2     1    1
     7     4     5    1
     8     1    10    1
     9    10     5    1
    10     5     6    1
    11     6    11    1
