@<TRIPOS>MOLECULE
1y2v_GAL_A_1.pdb
 11 11 0 0 0
SMALL
GASTEIGER

@<TRIPOS>ATOM
      1  C1        39.7650   40.8860   44.5340 C.3   145  GAL145      0.1777
      2  C2        39.1740   41.3300   43.1890 C.3   145  GAL145      0.2141
      3  C3        37.6890   41.6700   43.3070 C.3   145  GAL145      0.2173
      4  C4        36.9180   40.5430   43.9890 C.3   145  GAL145      0.2142
      5  C5        37.5820   40.1870   45.3180 C.3   145  GAL145      0.1810
      6  C6        36.8590   39.0120   45.9700 C.3   145  GAL145      0.2141
      7  O2        39.8370   42.4680   42.7080 O.3   145  GAL145     -0.2176
      8  O3        37.1820   41.9000   42.0150 O.3   145  GAL145     -0.2175
      9  O4        36.8890   39.3930   43.1640 O.3   145  GAL145     -0.2176
     10  O5        38.9560   39.8780   45.1370 O.3   145  GAL145     -0.3481
     11  O6        37.4610   38.7160   47.2080 O.3   145  GAL145     -0.2176
@<TRIPOS>BOND
     1     8     3    1
     2     7     2    1
     3     9     4    1
     4     2     3    1
     5     2     1    1
     6     3     4    1
     7     4     5    1
     8     1    10    1
     9    10     5    1
    10     5     6    1
    11     6    11    1
