@<TRIPOS>MOLECULE
1y2v_NGA_A_1.pdb
 14 14 0 0 0
SMALL
GASTEIGER

@<TRIPOS>ATOM
      1  C1        44.0830   40.9870   46.7680 C.3   144  NGA144      0.1665
      2  C2        43.0680   41.3000   45.6550 C.3   144  NGA144      0.1576
      3  C3        41.7980   40.4560   45.6130 C.3   144  NGA144      0.2069
      4  C4        41.8410   39.1270   46.3430 C.3   144  NGA144      0.2134
      5  C5        42.8540   38.8870   47.4580 C.3   144  NGA144      0.1809
      6  C6        43.2240   37.4230   47.7080 C.3   144  NGA144      0.2141
      7  C7        43.4870   43.2510   44.3060 C.2   144  NGA144      0.2420
      8  C8        43.1710   44.6920   44.0360 C.3   144  NGA144      0.0964
      9  N2        42.8490   42.6970   45.3380 N.am  144  NGA144     -0.2019
     10  O3        41.1360   40.4490   44.3490 O.3   144  NGA144     -0.2184
     11  O4        42.4150   38.3130   45.3110 O.3   144  NGA144     -0.2176
     12  O5        43.9990   39.7380   47.4810 O.3   144  NGA144     -0.3489
     13  O6        42.1240   36.7960   48.3580 O.3   144  NGA144     -0.2176
     14  O7        44.2940   42.6370   43.6090 O.2   144  NGA144     -0.2733
@<TRIPOS>BOND
     1    14     7    2
     2     8     7    1
     3     7     9   am
     4    10     3    1
     5    11     4    1
     6     9     2    1
     7     3     2    1
     8     3     4    1
     9     2     1    1
    10     4     5    1
    11     1    12    1
    12     5    12    1
    13     5     6    1
    14     6    13    1
