@<TRIPOS>MOLECULE
1y2w_NAG_A_1.pdb
 15 15 0 0 0
SMALL
GASTEIGER

@<TRIPOS>ATOM
      1  C1        55.2440   24.4960   47.3470 C.3   147  NAG147      0.2917
      2  C2        56.0370   24.5950   46.0400 C.3   147  NAG147      0.1871
      3  C3        56.5800   26.0070   45.8220 C.3   147  NAG147      0.2095
      4  C4        55.4600   27.0380   45.9560 C.3   147  NAG147      0.2136
      5  C5        54.7120   26.8390   47.2790 C.3   147  NAG147      0.1835
      6  C6        53.5470   27.8170   47.4490 C.3   147  NAG147      0.2142
      7  C7        57.1680   22.6500   45.1010 C.2   147  NAG147      0.2421
      8  C8        58.3520   21.7310   45.1690 C.3   147  NAG147      0.0964
      9  N2        57.1190   23.6230   46.0120 N.am  147  NAG147     -0.1991
     10  O1        56.1170   24.6040   48.4570 O.3   147  NAG147     -0.1879
     11  O3        57.1860   26.1050   44.5500 O.3   147  NAG147     -0.2183
     12  O4        56.0010   28.3410   45.8810 O.3   147  NAG147     -0.2176
     13  O5        54.2410   25.5030   47.3920 O.3   147  NAG147     -0.3242
     14  O6        52.5310   27.5730   46.4980 O.3   147  NAG147     -0.2176
     15  O7        56.3070   22.4820   44.2390 O.2   147  NAG147     -0.2733
@<TRIPOS>BOND
     1    15     7    2
     2    11     3    1
     3     7     8    1
     4     7     9   am
     5     3     4    1
     6     3     2    1
     7    12     4    1
     8     4     5    1
     9     9     2    1
    10     2     1    1
    11    14     6    1
    12     5    13    1
    13     5     6    1
    14     1    13    1
    15     1    10    1
