@<TRIPOS>MOLECULE
1y2w_NGA_A_1.pdb
 14 14 0 0 0
SMALL
GASTEIGER

@<TRIPOS>ATOM
      1  C1        43.9790   41.2680   46.6550 C.3   144  NGA144      0.1665
      2  C2        42.8920   41.6010   45.6220 C.3   144  NGA144      0.1576
      3  C3        41.5880   40.8040   45.6680 C.3   144  NGA144      0.2069
      4  C4        41.6060   39.5080   46.4690 C.3   144  NGA144      0.2134
      5  C5        42.7110   39.2480   47.4900 C.3   144  NGA144      0.1809
      6  C6        43.0710   37.7680   47.6510 C.3   144  NGA144      0.2141
      7  C7        43.2470   43.5700   44.2970 C.2   144  NGA144      0.2420
      8  C8        42.8330   44.9780   43.9920 C.3   144  NGA144      0.0964
      9  N2        42.6860   43.0160   45.3740 N.am  144  NGA144     -0.2019
     10  O3        40.9400   40.7120   44.3990 O.3   144  NGA144     -0.2184
     11  O4        41.9500   38.5720   45.4530 O.3   144  NGA144     -0.2176
     12  O5        43.8890   40.0580   47.4240 O.3   144  NGA144     -0.3489
     13  O6        42.0030   37.1400   48.3480 O.3   144  NGA144     -0.2176
     14  O7        44.0560   42.9690   43.5970 O.2   144  NGA144     -0.2733
@<TRIPOS>BOND
     1    14     7    2
     2     8     7    1
     3     7     9   am
     4    10     3    1
     5     9     2    1
     6    11     4    1
     7     2     3    1
     8     2     1    1
     9     3     4    1
    10     4     5    1
    11     1    12    1
    12    12     5    1
    13     5     6    1
    14     6    13    1
