@<TRIPOS>MOLECULE
1y2w_GAL_A_1.pdb
 11 11 0 0 0
SMALL
GASTEIGER

@<TRIPOS>ATOM
      1  C1        39.5510   41.0930   44.5400 C.3   145  GAL145      0.1777
      2  C2        38.9890   41.5420   43.1870 C.3   145  GAL145      0.2141
      3  C3        37.4900   41.8420   43.2800 C.3   145  GAL145      0.2173
      4  C4        36.7260   40.7120   43.9720 C.3   145  GAL145      0.2142
      5  C5        37.3960   40.3960   45.3120 C.3   145  GAL145      0.1810
      6  C6        36.6630   39.2870   46.0650 C.3   145  GAL145      0.2141
      7  O2        39.6490   42.7010   42.7300 O.3   145  GAL145     -0.2176
      8  O3        36.9800   42.0760   41.9880 O.3   145  GAL145     -0.2175
      9  O4        36.6990   39.5560   43.1570 O.3   145  GAL145     -0.2176
     10  O5        38.7570   40.0490   45.0970 O.3   145  GAL145     -0.3481
     11  O6        37.3090   39.0360   47.2930 O.3   145  GAL145     -0.2176
@<TRIPOS>BOND
     1     8     3    1
     2     7     2    1
     3     9     4    1
     4     2     3    1
     5     2     1    1
     6     3     4    1
     7     4     5    1
     8     1    10    1
     9    10     5    1
    10     5     6    1
    11     6    11    1
