@<TRIPOS>MOLECULE
1y2x_NAG_A_1.pdb
 15 15 0 0 0
SMALL
GASTEIGER

@<TRIPOS>ATOM
      1  C1        40.6890   11.5560   28.5640 C.3   144  NAG144      0.2917
      2  C2        39.9260   10.5400   27.7130 C.3   144  NAG144      0.1871
      3  C3        40.4590    9.1360   27.9720 C.3   144  NAG144      0.2095
      4  C4        41.9740    9.0890   27.8090 C.3   144  NAG144      0.2136
      5  C5        42.6350   10.1500   28.6880 C.3   144  NAG144      0.1835
      6  C6        44.1580   10.1560   28.5260 C.3   144  NAG144      0.2142
      7  C7        37.5810   11.0310   27.1600 C.2   144  NAG144      0.2421
      8  C8        36.1560   10.9900   27.6410 C.3   144  NAG144      0.0964
      9  N2        38.5050   10.5830   28.0110 N.am  144  NAG144     -0.1991
     10  O1        40.3890   11.3120   29.9240 O.3   144  NAG144     -0.1879
     11  O3        39.8540    8.2390   27.0750 O.3   144  NAG144     -0.2183
     12  O4        42.4660    7.8060   28.1280 O.3   144  NAG144     -0.2176
     13  O5        42.0930   11.4260   28.3560 O.3   144  NAG144     -0.3242
     14  O6        44.5190   10.6820   27.2590 O.3   144  NAG144     -0.2176
     15  O7        37.8410   11.4610   26.0370 O.2   144  NAG144     -0.2733
@<TRIPOS>BOND
     1    15     7    2
     2    11     3    1
     3     7     8    1
     4     7     9   am
     5    14     6    1
     6     2     3    1
     7     2     9    1
     8     2     1    1
     9     4     3    1
    10     4    12    1
    11     4     5    1
    12    13     1    1
    13    13     5    1
    14     6     5    1
    15     1    10    1
