@<TRIPOS>MOLECULE
1y2x_GAL_A_1.pdb
 11 11 0 0 0
SMALL
GASTEIGER

@<TRIPOS>ATOM
      1  C1        62.6080    8.1600   22.0790 C.3   146  GAL146      0.1777
      2  C2        63.0000    7.7210   20.6630 C.3   146  GAL146      0.2141
      3  C3        64.3030    8.3810   20.2230 C.3   146  GAL146      0.2173
      4  C4        64.2230    9.8890   20.4200 C.3   146  GAL146      0.2142
      5  C5        63.8040   10.2210   21.8560 C.3   146  GAL146      0.1810
      6  C6        63.6590   11.7260   22.0420 C.3   146  GAL146      0.2141
      7  O2        63.1280    6.3220   20.5990 O.3   146  GAL146     -0.2176
      8  O3        64.5470    8.1260   18.8600 O.3   146  GAL146     -0.2175
      9  O4        63.3170   10.4420   19.4850 O.3   146  GAL146     -0.2176
     10  O5        62.5830    9.5780   22.1790 O.3   146  GAL146     -0.3481
     11  O6        63.4550   12.0050   23.4060 O.3   146  GAL146     -0.2176
@<TRIPOS>BOND
     1     8     3    1
     2     9     4    1
     3     3     4    1
     4     3     2    1
     5     4     5    1
     6     7     2    1
     7     2     1    1
     8     5     6    1
     9     5    10    1
    10     6    11    1
    11     1    10    1
