@<TRIPOS>MOLECULE
1y2x_NGA_A_1.pdb
 14 14 0 0 0
SMALL
GASTEIGER

@<TRIPOS>ATOM
      1  C1        60.1620    6.0260   25.7510 C.3   145  NGA145      0.1665
      2  C2        60.8960    6.0950   24.4060 C.3   145  NGA145      0.1576
      3  C3        61.2000    7.4830   23.8380 C.3   145  NGA145      0.2069
      4  C4        60.4000    8.6460   24.4190 C.3   145  NGA145      0.2134
      5  C5        59.6870    8.4980   25.7570 C.3   145  NGA145      0.1809
      6  C6        58.3570    9.2300   25.8280 C.3   145  NGA145      0.2141
      7  C7        61.6600    3.9010   23.7060 C.2   145  NGA145      0.2420
      8  C8        62.8140    2.9380   23.6050 C.3   145  NGA145      0.0964
      9  N2        61.9410    5.0840   24.2590 N.am  145  NGA145     -0.2019
     10  O3        61.3420    7.5590   22.4230 O.3   145  NGA145     -0.2184
     11  O4        59.2880    8.6970   23.5260 O.3   145  NGA145     -0.2176
     12  O5        59.5110    7.1920   26.2720 O.3   145  NGA145     -0.3489
     13  O6        58.6280   10.5330   26.3010 O.3   145  NGA145     -0.2176
     14  O7        60.5340    3.6180   23.3060 O.2   145  NGA145     -0.2733
@<TRIPOS>BOND
     1    10     3    1
     2    14     7    2
     3    11     4    1
     4     8     7    1
     5     7     9   am
     6     3     2    1
     7     3     4    1
     8     9     2    1
     9     2     1    1
    10     4     5    1
    11     1    12    1
    12     5     6    1
    13     5    12    1
    14     6    13    1
