@<TRIPOS>MOLECULE
1y2z_HEM_A_1.pdb
 43 50 0 0 0
SMALL
GASTEIGER

@<TRIPOS>ATOM
      1 FE          8.2950   40.5720  -15.4060 Fe    142  HEM142      0.0000
      2  CHA        6.7510   43.3700  -16.6660 C.2   142  HEM142      0.0000
      3  CHB        6.2250   40.7450  -12.6250 C.2   142  HEM142      0.0000
      4  CHC       10.2660   38.2520  -13.7030 C.2   142  HEM142      0.0000
      5  CHD       10.9600   41.1500  -17.5630 C.2   142  HEM142      0.0000
      6  NA         6.8150   41.8080  -14.7610 N.2   142  HEM142      0.0000
      7  C1A        6.2970   42.8730  -15.4570 C.2   142  HEM142      0.0000
      8  C2A        5.1890   43.4220  -14.7200 C.2   142  HEM142      0.0000
      9  C3A        5.0240   42.7020  -13.6210 C.2   142  HEM142      0.0000
     10  C4A        6.0350   41.6770  -13.6230 C.2   142  HEM142      0.0000
     11  CMA        3.9950   42.8890  -12.4780 C.3   142  HEM142      0.0000
     12  CAA        4.4000   44.6420  -15.2540 C.3   142  HEM142      0.0000
     13  CBA        3.2290   44.2910  -16.1890 C.3   142  HEM142      0.0000
     14  CGA        2.3760   45.5120  -16.4870 C.2   142  HEM142      0.0000
     15  O1A        1.3380   45.6430  -15.7910 O.co2 142  HEM142      0.0000
     16  O2A        2.8050   46.2930  -17.3780 O.co2 142  HEM142      0.0000
     17  NB         8.2690   39.6940  -13.5360 N.ar  142  HEM142      0.0000
     18  C1B        7.3240   39.9020  -12.5500 C.ar  142  HEM142      0.0000
     19  C2B        7.6210   39.0530  -11.4160 C.ar  142  HEM142      0.0000
     20  C3B        8.7340   38.3660  -11.7060 C.ar  142  HEM142      0.0000
     21  C4B        9.1600   38.7630  -13.0380 C.ar  142  HEM142      0.0000
     22  CMB        6.7360   39.0230  -10.1520 C.3   142  HEM142      0.0000
     23  CAB        9.5210   37.3470  -10.8740 C.2   142  HEM142      0.0000
     24  CBB        8.9950   36.6080   -9.9270 C.2   142  HEM142      0.0000
     25  NC        10.2070   39.8410  -15.6160 N.2   142  HEM142      0.0000
     26  C1C       10.8260   38.8770  -14.8220 C.2   142  HEM142      0.0000
     27  C2C       12.1750   38.6680  -15.2860 C.2   142  HEM142      0.0000
     28  C3C       12.3780   39.4770  -16.3250 C.2   142  HEM142      0.0000
     29  C4C       11.1520   40.2250  -16.5440 C.2   142  HEM142      0.0000
     30  CMC       13.1400   37.6610  -14.6170 C.3   142  HEM142      0.0000
     31  CAC       13.6350   39.6590  -17.2060 C.2   142  HEM142      0.0000
     32  CBC       14.8740   39.5880  -16.7120 C.2   142  HEM142      0.0000
     33  ND         8.7810   42.0030  -16.7910 N.ar  142  HEM142      0.0000
     34  C1D        9.8610   41.9760  -17.6660 C.ar  142  HEM142      0.0000
     35  C2D        9.6890   43.0010  -18.6800 C.ar  142  HEM142      0.0000
     36  C3D        8.5230   43.6010  -18.4320 C.ar  142  HEM142      0.0000
     37  C4D        7.9570   43.0080  -17.2410 C.ar  142  HEM142      0.0000
     38  CMD       10.7190   43.2860  -19.8020 C.3   142  HEM142      0.0000
     39  CAD        7.8610   44.7940  -19.1710 C.3   142  HEM142      0.0000
     40  CBD        8.2440   46.1330  -18.5480 C.3   142  HEM142      0.0000
     41  CGD        7.7850   47.3840  -19.2230 C.2   142  HEM142      0.0000
     42  O1D        7.2700   48.2890  -18.5080 O.co2 142  HEM142      0.0000
     43  O2D        7.9520   47.4480  -20.4650 O.co2 142  HEM142      0.0000
@<TRIPOS>BOND
     1    43    41   ar
     2    38    35    1
     3    41    40    1
     4    41    42   ar
     5    39    40    1
     6    39    36    1
     7    35    36   ar
     8    35    34   ar
     9    36    37   ar
    10    34     5    2
    11    34    33   ar
    12     5    29    1
    13    16    14   ar
    14    37    33   ar
    15    37     2    2
    16    31    32    2
    17    31    28    1
    18    33     1    1
    19     2     7    1
    20    29    28    1
    21    29    25    2
    22    14    13    1
    23    14    15   ar
    24    28    27    2
    25    13    12    1
    26    25     1    1
    27    25    26    1
    28     7     6    2
    29     7     8    1
    30     1     6    1
    31     1    17    1
    32    27    26    1
    33    27    30    1
    34    12     8    1
    35    26     4    2
    36     6    10    1
    37     8     9    2
    38     4    21    1
    39    10     9    1
    40    10     3    2
    41     9    11    1
    42    17    21   ar
    43    17    18   ar
    44    21    20   ar
    45     3    18    1
    46    18    19   ar
    47    20    19   ar
    48    20    23    1
    49    19    22    1
    50    23    24    2
