@<TRIPOS>MOLECULE
1y31_HEM_A_1.pdb
 43 50 0 0 0
SMALL
GASTEIGER

@<TRIPOS>ATOM
      1 FE          8.2840   40.4790  -15.3120 Fe    142  HEM142      0.0000
      2  CHA        6.7450   43.2680  -16.5800 C.2   142  HEM142      0.0000
      3  CHB        6.1710   40.6250  -12.5370 C.2   142  HEM142      0.0000
      4  CHC       10.2560   38.1530  -13.6180 C.2   142  HEM142      0.0000
      5  CHD       10.9590   41.0550  -17.5060 C.2   142  HEM142      0.0000
      6  NA         6.7860   41.6860  -14.6840 N.2   142  HEM142      0.0000
      7  C1A        6.2920   42.7550  -15.3780 C.2   142  HEM142      0.0000
      8  C2A        5.1470   43.2690  -14.6820 C.2   142  HEM142      0.0000
      9  C3A        4.9540   42.5380  -13.5980 C.2   142  HEM142      0.0000
     10  C4A        5.9800   41.5460  -13.5570 C.2   142  HEM142      0.0000
     11  CMA        3.8900   42.7390  -12.4830 C.3   142  HEM142      0.0000
     12  CAA        4.3840   44.4730  -15.2760 C.3   142  HEM142      0.0000
     13  CBA        3.1430   44.0940  -16.1020 C.3   142  HEM142      0.0000
     14  CGA        2.2800   45.3290  -16.3240 C.2   142  HEM142      0.0000
     15  O1A        1.2690   45.4060  -15.5840 O.co2 142  HEM142      0.0000
     16  O2A        2.7050   46.1560  -17.1750 O.co2 142  HEM142      0.0000
     17  NB         8.2580   39.6070  -13.4520 N.ar  142  HEM142      0.0000
     18  C1B        7.2980   39.8130  -12.4660 C.ar  142  HEM142      0.0000
     19  C2B        7.5760   38.9230  -11.3610 C.ar  142  HEM142      0.0000
     20  C3B        8.6920   38.2400  -11.6530 C.ar  142  HEM142      0.0000
     21  C4B        9.1370   38.6620  -12.9590 C.ar  142  HEM142      0.0000
     22  CMB        6.6880   38.8500  -10.1200 C.3   142  HEM142      0.0000
     23  CAB        9.4550   37.2030  -10.7910 C.2   142  HEM142      0.0000
     24  CBB        8.7780   36.4830   -9.9060 C.2   142  HEM142      0.0000
     25  NC        10.1750   39.7380  -15.5490 N.2   142  HEM142      0.0000
     26  C1C       10.7880   38.7660  -14.7650 C.2   142  HEM142      0.0000
     27  C2C       12.1270   38.5510  -15.2340 C.2   142  HEM142      0.0000
     28  C3C       12.3390   39.3710  -16.2690 C.2   142  HEM142      0.0000
     29  C4C       11.1200   40.1270  -16.4880 C.2   142  HEM142      0.0000
     30  CMC       13.0860   37.5210  -14.6030 C.3   142  HEM142      0.0000
     31  CAC       13.5950   39.5120  -17.1420 C.2   142  HEM142      0.0000
     32  CBC       14.8370   39.4470  -16.6510 C.2   142  HEM142      0.0000
     33  ND         8.7710   41.8910  -16.7140 N.ar  142  HEM142      0.0000
     34  C1D        9.8560   41.8680  -17.5970 C.ar  142  HEM142      0.0000
     35  C2D        9.6730   42.8960  -18.6060 C.ar  142  HEM142      0.0000
     36  C3D        8.5140   43.4910  -18.3520 C.ar  142  HEM142      0.0000
     37  C4D        7.9500   42.8980  -17.1550 C.ar  142  HEM142      0.0000
     38  CMD       10.6960   43.1820  -19.7290 C.3   142  HEM142      0.0000
     39  CAD        7.8090   44.6740  -19.0730 C.3   142  HEM142      0.0000
     40  CBD        8.2920   46.0190  -18.5610 C.3   142  HEM142      0.0000
     41  CGD        7.7650   47.2670  -19.1860 C.2   142  HEM142      0.0000
     42  O1D        7.2430   48.1400  -18.4490 O.co2 142  HEM142      0.0000
     43  O2D        7.9070   47.3590  -20.4250 O.co2 142  HEM142      0.0000
@<TRIPOS>BOND
     1    43    41   ar
     2    38    35    1
     3    41    40    1
     4    41    42   ar
     5    39    40    1
     6    39    36    1
     7    35    36   ar
     8    35    34   ar
     9    36    37   ar
    10    34     5    2
    11    34    33   ar
    12     5    29    1
    13    16    14   ar
    14    37    33   ar
    15    37     2    2
    16    31    32    2
    17    31    28    1
    18    33     1    1
    19     2     7    1
    20    29    28    1
    21    29    25    2
    22    14    13    1
    23    14    15   ar
    24    28    27    2
    25    13    12    1
    26    25     1    1
    27    25    26    1
    28     7     6    2
    29     7     8    1
    30     1     6    1
    31     1    17    1
    32    12     8    1
    33    27    26    1
    34    27    30    1
    35    26     4    2
    36     6    10    1
    37     8     9    2
    38     4    21    1
    39     9    10    1
    40     9    11    1
    41    10     3    2
    42    17    21   ar
    43    17    18   ar
    44    21    20   ar
    45     3    18    1
    46    18    19   ar
    47    20    19   ar
    48    20    23    1
    49    19    22    1
    50    23    24    2
