@<TRIPOS>MOLECULE
1y35_HEM_A_1.pdb
 43 50 0 0 0
SMALL
GASTEIGER

@<TRIPOS>ATOM
      1 FE          8.2230   40.5370  -15.3030 Fe    142  HEM142      0.0000
      2  CHA        6.6810   43.3260  -16.5690 C.2   142  HEM142      0.0000
      3  CHB        6.1440   40.7070  -12.5280 C.2   142  HEM142      0.0000
      4  CHC       10.1750   38.2240  -13.6170 C.2   142  HEM142      0.0000
      5  CHD       10.8840   41.1150  -17.4590 C.2   142  HEM142      0.0000
      6  NA         6.7330   41.7590  -14.6670 N.2   142  HEM142      0.0000
      7  C1A        6.2350   42.8320  -15.3580 C.2   142  HEM142      0.0000
      8  C2A        5.1330   43.3850  -14.6260 C.2   142  HEM142      0.0000
      9  C3A        4.9540   42.6650  -13.5280 C.2   142  HEM142      0.0000
     10  C4A        5.9560   41.6400  -13.5200 C.2   142  HEM142      0.0000
     11  CMA        3.9160   42.8770  -12.3900 C.3   142  HEM142      0.0000
     12  CAA        4.3740   44.6050  -15.1950 C.3   142  HEM142      0.0000
     13  CBA        3.1600   44.2030  -16.0700 C.3   142  HEM142      0.0000
     14  CGA        2.2700   45.4150  -16.2950 C.2   142  HEM142      0.0000
     15  O1A        1.2660   45.4810  -15.5450 O.co2 142  HEM142      0.0000
     16  O2A        2.6600   46.2280  -17.1700 O.co2 142  HEM142      0.0000
     17  NB         8.1800   39.6610  -13.4430 N.ar  142  HEM142      0.0000
     18  C1B        7.2430   39.8770  -12.4520 C.ar  142  HEM142      0.0000
     19  C2B        7.5520   39.0290  -11.3180 C.ar  142  HEM142      0.0000
     20  C3B        8.6570   38.3400  -11.6100 C.ar  142  HEM142      0.0000
     21  C4B        9.0690   38.7330  -12.9450 C.ar  142  HEM142      0.0000
     22  CMB        6.6790   39.0070  -10.0510 C.3   142  HEM142      0.0000
     23  CAB        9.4660   37.3260  -10.7860 C.2   142  HEM142      0.0000
     24  CBB        8.9420   36.5130   -9.9040 C.2   142  HEM142      0.0000
     25  NC        10.1250   39.8050  -15.5200 N.2   142  HEM142      0.0000
     26  C1C       10.7330   38.8460  -14.7290 C.2   142  HEM142      0.0000
     27  C2C       12.0900   38.6380  -15.1890 C.2   142  HEM142      0.0000
     28  C3C       12.3020   39.4500  -16.2230 C.2   142  HEM142      0.0000
     29  C4C       11.0740   40.1940  -16.4460 C.2   142  HEM142      0.0000
     30  CMC       13.0360   37.6240  -14.5100 C.3   142  HEM142      0.0000
     31  CAC       13.5680   39.6170  -17.0830 C.2   142  HEM142      0.0000
     32  CBC       14.7930   39.5910  -16.5320 C.2   142  HEM142      0.0000
     33  ND         8.7130   41.9600  -16.6890 N.ar  142  HEM142      0.0000
     34  C1D        9.8000   41.9550  -17.5550 C.ar  142  HEM142      0.0000
     35  C2D        9.6290   42.9860  -18.5640 C.ar  142  HEM142      0.0000
     36  C3D        8.4640   43.5820  -18.3200 C.ar  142  HEM142      0.0000
     37  C4D        7.8880   42.9690  -17.1410 C.ar  142  HEM142      0.0000
     38  CMD       10.6590   43.2780  -19.6770 C.3   142  HEM142      0.0000
     39  CAD        7.7820   44.7770  -19.0430 C.3   142  HEM142      0.0000
     40  CBD        8.1780   46.1220  -18.4510 C.3   142  HEM142      0.0000
     41  CGD        7.7260   47.3830  -19.1100 C.2   142  HEM142      0.0000
     42  O1D        7.2310   48.2950  -18.3870 O.co2 142  HEM142      0.0000
     43  O2D        7.8880   47.4700  -20.3480 O.co2 142  HEM142      0.0000
@<TRIPOS>BOND
     1    43    41   ar
     2    38    35    1
     3    41    40    1
     4    41    42   ar
     5    39    40    1
     6    39    36    1
     7    35    36   ar
     8    35    34   ar
     9    36    37   ar
    10    34     5    2
    11    34    33   ar
    12     5    29    1
    13    16    14   ar
    14    37    33   ar
    15    37     2    2
    16    31    32    2
    17    31    28    1
    18    33     1    1
    19     2     7    1
    20    29    28    1
    21    29    25    2
    22    14    13    1
    23    14    15   ar
    24    28    27    2
    25    13    12    1
    26    25     1    1
    27    25    26    1
    28     7     6    2
    29     7     8    1
    30     1     6    1
    31     1    17    1
    32    12     8    1
    33    27    26    1
    34    27    30    1
    35    26     4    2
    36     6    10    1
    37     8     9    2
    38     4    21    1
    39     9    10    1
    40     9    11    1
    41    10     3    2
    42    17    21   ar
    43    17    18   ar
    44    21    20   ar
    45     3    18    1
    46    18    19   ar
    47    20    19   ar
    48    20    23    1
    49    19    22    1
    50    23    24    2
