@<TRIPOS>MOLECULE
1y38_G3P_A_1.pdb
 10 9 0 0 0
SMALL
GASTEIGER

@<TRIPOS>ATOM
      1  O1        13.6250   32.5730   36.5850 O.3   201  G3P201     -0.2175
      2  C1        14.6870   31.7310   36.1550 C.3   201  G3P201      0.2174
      3  C2        14.5190   31.4510   34.6610 C.3   201  G3P201      0.2147
      4  O2        14.5400   32.6760   33.9370 O.3   201  G3P201     -0.2176
      5  C3        15.6120   30.5500   34.0630 C.3   201  G3P201      0.1892
      6  O1P       16.0010   30.5410   32.6460 O.3   201  G3P201     -0.2674
      7  O4P       17.6970   28.8370   31.6670 O.3   201  G3P201     -0.1145
      8  O2P       18.1290   31.1970   31.3480 O.3   201  G3P201     -0.1145
      9  O3P       16.2760   30.0810   30.1190 O.2   201  G3P201     -0.2224
     10  P         17.0200   30.1730   31.4430 P.3   201  G3P201      0.5327
@<TRIPOS>BOND
     1     9    10    2
     2     8    10    1
     3    10     7    1
     4    10     6    1
     5     6     5    1
     6     4     3    1
     7     5     3    1
     8     3     2    1
     9     2     1    1
