@<TRIPOS>MOLECULE
1y3a_GDP_A_1.pdb
 28 30 0 0 0
SMALL
GASTEIGER

@<TRIPOS>ATOM
      1  PB        15.2930   -1.7110    3.8280 P.3   355  GDP355      0.5373
      2  O1B       15.3550   -2.5930    4.9640 O.3   355  GDP355     -0.1143
      3  O2B       16.5540   -1.5770    3.0370 O.3   355  GDP355     -0.1143
      4  O3B       14.3430   -2.0900    2.7130 O.2   355  GDP355     -0.2221
      5  O3A       15.1970   -0.1740    4.5130 O.3   355  GDP355     -0.2261
      6  PA        13.9590    0.3020    5.4800 P.3   355  GDP355      0.2231
      7  O1A       14.5550    1.5900    6.0060 O.3   355  GDP355     -0.4370
      8  O2A       12.6770   -0.3190    5.8010 O.2   355  GDP355     -0.5169
      9  O5'       13.4520    1.3150    4.3670 O.3   355  GDP355     -0.3111
     10  C5'       12.6420    1.3110    3.2120 C.3   355  GDP355      0.1813
     11  C4'       12.1870    2.8360    3.1410 C.3   355  GDP355      0.1799
     12  O4'       10.7880    3.0570    2.7330 O.3   355  GDP355     -0.3326
     13  C3'       12.1660    3.6140    4.5260 C.3   355  GDP355      0.2158
     14  O3'       12.3460    5.0230    4.2200 O.3   355  GDP355     -0.2175
     15  C2'       10.7520    3.3530    5.0890 C.3   355  GDP355      0.2310
     16  O2'       10.3360    4.3320    6.0270 O.3   355  GDP355     -0.2158
     17  C1'        9.9020    3.3650    3.8330 C.3   355  GDP355      0.2293
     18  N9         8.8610    2.2730    3.8100 N.pl3 355  GDP355     -0.2354
     19  C8         8.9570    0.9260    4.0690 C.3   355  GDP355      0.2246
     20  N7         7.8420    0.2810    3.9330 N.2   355  GDP355     -0.2322
     21  C5         6.9260    1.2350    3.5540 C.2   355  GDP355      0.2182
     22  C6         5.5260    1.1430    3.2480 C.1   355  GDP355      0.2372
     23  O6         4.8110    0.1160    3.2490 O.2   355  GDP355     -0.2069
     24  N1         4.9770    2.4060    2.9010 N.2   355  GDP355     -0.2485
     25  C2         5.6890    3.6080    2.8640 C.1   355  GDP355      0.2531
     26  N2         4.9980    4.6810    2.5190 N.pl3 355  GDP355     -0.0226
     27  N3         7.0160    3.7050    3.1510 N.2   355  GDP355     -0.3074
     28  C4         7.5370    2.5030    3.4820 C.2   355  GDP355      0.2300
@<TRIPOS>BOND
     1    26    25    1
     2     4     1    2
     3    12    11    1
     4    12    17    1
     5    25    24    2
     6    25    27    2
     7    24    22    2
     8     3     1    1
     9    11    10    1
    10    11    13    1
    11    27    28    2
    12    10     9    1
    13    22    23    2
    14    22    21    1
    15    28    21    1
    16    28    18    1
    17    21    20    2
    18    18    17    1
    19    18    19    1
    20     1     5    1
    21     1     2    1
    22    17    15    1
    23    20    19    1
    24    14    13    1
    25     9     6    1
    26     5     6    1
    27    13    15    1
    28    15    16    1
    29     6     8    2
    30     6     7    1
