@<TRIPOS>MOLECULE
1y3g_3PL_E_1.pdb
 10 10 0 0 0
SMALL
GASTEIGER

@<TRIPOS>ATOM
      1  C         33.5740   38.3390   -7.3140 C.2   803  3PL803      0.2077
      2  O         34.2780   37.9180   -8.2260 O.2   803  3PL803     -0.2883
      3  CA        32.3320   37.5790   -6.8510 C.3   803  3PL803      0.0769
      4  CB        31.7670   36.6130   -7.9030 C.3   803  3PL803      0.0346
      5  CG        31.2790   37.2990   -9.1630 C.ar  803  3PL803     -0.0217
      6  CD1       29.9780   37.7270   -9.2740 C.ar  803  3PL803     -0.0043
      7  CE1       29.5400   38.3580  -10.4500 C.ar  803  3PL803     -0.0003
      8  CZ        30.3940   38.5660  -11.4810 C.ar  803  3PL803     -0.0000
      9  CE2       31.6770   38.1400  -11.3870 C.ar  803  3PL803     -0.0003
     10  CD2       32.1330   37.5030  -10.2230 C.ar  803  3PL803     -0.0043
@<TRIPOS>BOND
     1     8     9   ar
     2     8     7   ar
     3     9    10   ar
     4     7     6   ar
     5    10     5   ar
     6     6     5   ar
     7     5     4    1
     8     2     1    2
     9     4     3    1
    10     1     3    1
