@<TRIPOS>MOLECULE
1y3g_AMM_E_1.pdb
 13 12 0 0 0
SMALL
GASTEIGER

@<TRIPOS>ATOM
      1  N         33.8310   39.4760   -6.6770 N.3   804  AMM804      0.0000
      2  CA        34.9690   40.3030   -7.0270 C.3   804  AMM804      0.0000
      3 SI         35.1320   41.8370   -6.0210 Si    804  AMM804      0.0000
      4  O1        36.5590   42.5110   -6.4570 O.3   804  AMM804      0.0000
      5  O2        33.9020   42.8650   -6.3510 O.3   804  AMM804      0.0000
      6  CH2       35.1470   41.5070   -4.1980 C.3   804  AMM804      0.0000
      7  CE        36.4240   41.9170   -3.4250 C.3   804  AMM804      0.0000
      8  C         37.7300   41.1950   -3.7450 C.2   804  AMM804      0.0000
      9  O         38.8140   41.7940   -3.7770 O.2   804  AMM804      0.0000
     10  CB        36.1680   41.9430   -1.9260 C.3   804  AMM804      0.0000
     11  CG        37.3450   42.5010   -1.1340 C.3   804  AMM804      0.0000
     12  CD1       37.4160   44.0230   -1.2980 C.3   804  AMM804      0.0000
     13  CD2       37.1760   42.1430    0.3350 C.3   804  AMM804      0.0000
@<TRIPOS>BOND
     1     2     1    1
     2     2     3    1
     3     4     3    1
     4     5     3    1
     5     3     6    1
     6     6     7    1
     7     9     8    2
     8     8     7    1
     9     7    10    1
    10    10    11    1
    11    12    11    1
    12    11    13    1
