@<TRIPOS>MOLECULE
1y3n_MAV_A_1.pdb
 13 13 0 0 0
SMALL
GASTEIGER

@<TRIPOS>ATOM
      1  C1       -18.7700   -5.9440   22.3480 C.3   495  MAV495      0.3028
      2  O1       -18.3570   -4.6250   22.2500 O.3   495  MAV495     -0.1869
      3  C2       -18.8900   -6.3390   23.8300 C.3   495  MAV495      0.2435
      4  O2       -19.4980   -7.6150   23.9400 O.3   495  MAV495     -0.2148
      5  C3       -17.5160   -6.3640   24.5120 C.3   495  MAV495      0.2204
      6  O3       -17.6460   -6.9140   25.8160 O.3   495  MAV495     -0.2174
      7  C4       -16.5360   -7.2050   23.6860 C.3   495  MAV495      0.2229
      8  O4       -15.2140   -7.1080   24.2340 O.3   495  MAV495     -0.2171
      9  C5       -16.4930   -6.6840   22.2610 C.3   495  MAV495      0.2530
     10  O5       -17.8050   -6.7720   21.6710 O.3   495  MAV495     -0.3149
     11  C6       -15.4760   -7.4500   21.4330 C.2   495  MAV495      0.3941
     12  O6A      -14.2690   -7.1340   21.5530 O.co2 495  MAV495     -0.2429
     13  O6B      -15.8700   -8.3760   20.6930 O.co2 495  MAV495     -0.2429
@<TRIPOS>BOND
     1    13    11   ar
     2    11    12   ar
     3    11     9    1
     4    10     9    1
     5    10     1    1
     6     2     1    1
     7     9     7    1
     8     1     3    1
     9     7     8    1
    10     7     5    1
    11     3     4    1
    12     3     5    1
    13     5     6    1
