@<TRIPOS>MOLECULE
1y3n_BEM_A_1.pdb
 11 11 0 0 0
SMALL
GASTEIGER

@<TRIPOS>ATOM
      1  C1       -14.7140   -8.1860   24.9430 C.3   494  BEM494      0.1781
      2  C2       -13.1820   -8.0830   24.9120 C.3   494  BEM494      0.2116
      3  O2       -12.7880   -6.7860   25.3210 O.3   494  BEM494     -0.2177
      4  C3       -12.6140   -9.0900   25.8690 C.3   494  BEM494      0.1877
      5  O3       -11.1880   -9.1130   25.8680 O.3   494  BEM494     -0.2202
      6  C4       -13.2830   -9.2040   27.1900 C.3   494  BEM494      0.0769
      7  C5       -14.6870   -8.9270   27.2730 C.3   494  BEM494      0.2204
      8  O5       -15.2290   -8.0450   26.2840 O.3   494  BEM494     -0.3422
      9  C6       -15.2500   -8.7510   28.5800 C.2   494  BEM494      0.3914
     10  O6A      -16.0910   -7.8330   28.7200 O.co2 494  BEM494     -0.2430
     11  O6B      -14.8600   -9.4670   29.5180 O.co2 494  BEM494     -0.2430
@<TRIPOS>BOND
     1     2     1    1
     2     2     3    1
     3     2     4    1
     4     1     8    1
     5     5     4    1
     6     4     6    1
     7     8     7    1
     8     6     7    1
     9     7     9    1
    10     9    10   ar
    11     9    11   ar
