@<TRIPOS>MOLECULE
1y3p_MAV_A_1.pdb
 12 12 0 0 0
SMALL
GASTEIGER

@<TRIPOS>ATOM
      1  C1       -15.7150   -6.8220   -8.8210 C.3   495  MAV495      0.1783
      2  C2       -15.9840   -7.3680   -7.4120 C.3   495  MAV495      0.2141
      3  O2       -16.6880   -8.5970   -7.5000 O.3   495  MAV495     -0.2176
      4  C3       -14.6550   -7.5760   -6.6660 C.3   495  MAV495      0.2178
      5  O3       -14.8850   -8.2530   -5.4410 O.3   495  MAV495     -0.2175
      6  C4       -13.6430   -8.3750   -7.5100 C.3   495  MAV495      0.2227
      7  O4       -12.3460   -8.3010   -6.8990 O.3   495  MAV495     -0.2171
      8  C5       -13.5290   -7.7730   -8.9020 C.3   495  MAV495      0.2512
      9  O5       -14.8300   -7.7000   -9.5100 O.3   495  MAV495     -0.3403
     10  C6       -12.5630   -8.5400   -9.7800 C.2   495  MAV495      0.3940
     11  O6A      -13.0140   -9.4090  -10.5570 O.co2 495  MAV495     -0.2429
     12  O6B      -11.3460   -8.2720   -9.6730 O.co2 495  MAV495     -0.2429
@<TRIPOS>BOND
     1    11    10   ar
     2    10    12   ar
     3    10     8    1
     4     9     8    1
     5     9     1    1
     6     8     6    1
     7     1     2    1
     8     6     7    1
     9     6     4    1
    10     3     2    1
    11     2     4    1
    12     4     5    1
