@<TRIPOS>MOLECULE
1y3p_BEM_A_1.pdb
 11 11 0 0 0
SMALL
GASTEIGER

@<TRIPOS>ATOM
      1  C1       -11.8890   -9.3790   -6.1680 C.3   494  BEM494      0.1781
      2  C2       -10.3480   -9.3550   -6.2280 C.3   494  BEM494      0.2116
      3  O2        -9.9030   -8.0540   -5.8990 O.3   494  BEM494     -0.2177
      4  C3        -9.8100  -10.3360   -5.2230 C.3   494  BEM494      0.1877
      5  O3        -8.3880  -10.4310   -5.2180 O.3   494  BEM494     -0.2202
      6  C4       -10.4920  -10.4130   -3.9040 C.3   494  BEM494      0.0769
      7  C5       -11.8890  -10.1160   -3.8520 C.3   494  BEM494      0.2204
      8  O5       -12.3630   -9.1730   -4.8200 O.3   494  BEM494     -0.3422
      9  C6       -12.4940  -10.0040   -2.5570 C.2   494  BEM494      0.3914
     10  O6A      -13.3820   -9.1420   -2.4080 O.co2 494  BEM494     -0.2430
     11  O6B      -12.1110  -10.7620   -1.6450 O.co2 494  BEM494     -0.2430
@<TRIPOS>BOND
     1     2     1    1
     2     2     3    1
     3     2     4    1
     4     1     8    1
     5     4     5    1
     6     4     6    1
     7     8     7    1
     8     6     7    1
     9     7     9    1
    10     9    10   ar
    11     9    11   ar
