@<TRIPOS>MOLECULE
1y3p_LGU_A_1.pdb
 12 12 0 0 0
SMALL
GASTEIGER

@<TRIPOS>ATOM
      1  C1       -19.1050   -6.3900  -12.3870 C.3   496  LGU496      0.1783
      2  C2       -17.9380   -7.3750  -12.3110 C.3   496  LGU496      0.2141
      3  O2       -17.7800   -8.0210  -13.5640 O.3   496  LGU496     -0.2176
      4  C3       -16.6430   -6.6460  -11.9390 C.3   496  LGU496      0.2178
      5  O3       -16.2340   -5.8110  -13.0140 O.3   496  LGU496     -0.2175
      6  C4       -16.8310   -5.7980  -10.6760 C.3   496  LGU496      0.2227
      7  O4       -16.9180   -6.6360   -9.5060 O.3   496  LGU496     -0.2171
      8  C5       -18.0780   -4.9070  -10.7700 C.3   496  LGU496      0.2512
      9  O5       -19.2440   -5.6910  -11.1360 O.3   496  LGU496     -0.3403
     10  C6       -18.3370   -4.2160   -9.4410 C.2   496  LGU496      0.3940
     11  O6A      -19.4960   -4.2360   -8.9750 O.co2 496  LGU496     -0.2429
     12  O6B      -17.3730   -3.6760   -8.8540 O.co2 496  LGU496     -0.2429
@<TRIPOS>BOND
     1     3     2    1
     2     5     4    1
     3     1     2    1
     4     1     9    1
     5     2     4    1
     6     4     6    1
     7     9     8    1
     8     8     6    1
     9     8    10    1
    10     6     7    1
    11    10    11   ar
    12    10    12   ar
