@<TRIPOS>MOLECULE
1y3u_UIQ_A_1.pdb
 34 39 0 0 0
SMALL
GASTEIGER

@<TRIPOS>ATOM
      1  N1        -5.1110    9.5040   19.7000 N.pl3 1994  UIQ1994     0.2047
      2  C3        -3.8000    9.2990   19.6150 C.2   1994  UIQ1994     0.4766
      3  N2        -3.0490   10.3230   19.1140 N.pl3 1994  UIQ1994     0.2047
      4  C4        -3.2230    8.0540   20.0110 C.ar  1994  UIQ1994     0.0975
      5  C9        -4.0270    7.0470   20.5570 C.ar  1994  UIQ1994     0.0077
      6  C8        -3.4520    5.8200   20.9500 C.ar  1994  UIQ1994    -0.0027
      7  C7        -2.0710    5.6180   20.8750 C.ar  1994  UIQ1994    -0.0073
      8  C6        -1.2690    6.6480   20.3310 C.ar  1994  UIQ1994    -0.0027
      9  C5        -1.8270    7.8470   19.9010 C.ar  1994  UIQ1994     0.0077
     10  C10       -1.4290    4.3880   21.4640 C.3   1994  UIQ1994     0.0888
     11  N11       -2.3820    3.2230   21.4600 N.3   1994  UIQ1994    -0.2712
     12  C12       -2.5970    2.6670   20.0770 C.3   1994  UIQ1994     0.0723
     13  C13       -1.9050    1.2860   20.0770 C.3   1994  UIQ1994     0.0187
     14  C14       -0.8700    1.3750   21.1780 C.3   1994  UIQ1994     0.0175
     15  C15       -1.6350    2.1770   22.2560 C.3   1994  UIQ1994     0.0599
     16  C16       -0.5640    2.8980   23.1350 C.3   1994  UIQ1994     0.0431
     17  C17       -0.9120    2.7240   24.6520 C.3   1994  UIQ1994     0.0774
     18  N19       -1.8450    3.8040   24.9190 N.am  1994  UIQ1994    -0.2770
     19  C20       -1.8120    4.7970   23.9830 C.2   1994  UIQ1994     0.2271
     20  O21       -2.6030    5.7770   23.9020 O.2   1994  UIQ1994    -0.2748
     21  C22       -0.8140    4.4080   22.8680 C.3   1994  UIQ1994     0.0983
     22  C23       -2.9070    3.8510   25.9830 C.3   1994  UIQ1994     0.1202
     23  C24       -2.4640    4.5040   27.2890 C.ar  1994  UIQ1994     0.0009
     24  C32       -1.6300    3.8260   28.2370 C.ar  1994  UIQ1994     0.0007
     25  C31       -1.2460    4.4050   29.4670 C.ar  1994  UIQ1994     0.0399
     26  C30       -1.7130    5.7100   29.7110 C.ar  1994  UIQ1994     0.1764
     27  O29       -1.4860    6.5060   30.8090 O.3   1994  UIQ1994    -0.4346
     28  C28       -2.2170    7.7450   30.5500 C.3   1994  UIQ1994     0.4294
     29  O27       -2.8860    7.6670   29.2660 O.3   1994  UIQ1994    -0.4346
     30  C26       -2.5330    6.3970   28.7960 C.ar  1994  UIQ1994     0.1762
     31  C25       -2.9200    5.8070   27.5750 C.ar  1994  UIQ1994     0.0376
     32  C18        0.3050    2.6260   25.5980 C.3   1994  UIQ1994     0.0183
     33  C41        1.0850    1.3470   25.3820 C.3   1994  UIQ1994     0.0017
     34  C42        1.2980    3.7730   25.4600 C.3   1994  UIQ1994     0.0017
@<TRIPOS>BOND
     1     3     2    2
     2     2     1    1
     3     2     4    1
     4     9     4   ar
     5     9     8   ar
     6     4     5   ar
     7    12    13    1
     8    12    11    1
     9    13    14    1
    10     8     7   ar
    11     5     6   ar
    12     7     6   ar
    13     7    10    1
    14    14    15    1
    15    11    10    1
    16    11    15    1
    17    10    21    1
    18    15    16    1
    19    21    16    1
    20    21    19    1
    21    16    17    1
    22    20    19    2
    23    19    18   am
    24    17    18    1
    25    17    32    1
    26    18    22    1
    27    33    32    1
    28    34    32    1
    29    22    23    1
    30    23    31   ar
    31    23    24   ar
    32    31    30   ar
    33    24    25   ar
    34    30    29    1
    35    30    26   ar
    36    29    28    1
    37    25    26   ar
    38    26    27    1
    39    28    27    1
