@<TRIPOS>MOLECULE
1y3v_UIR_A_1.pdb
 34 40 0 0 0
SMALL
GASTEIGER

@<TRIPOS>ATOM
      1  N1        -5.0050    9.5760   19.7650 N.pl3 1994  UIR1994     0.2047
      2  C3        -3.7030    9.3060   19.6770 C.2   1994  UIR1994     0.4766
      3  C4        -3.1170    8.0720   20.1150 C.ar  1994  UIR1994     0.0975
      4  C9        -3.8920    7.0540   20.7060 C.ar  1994  UIR1994     0.0077
      5  C8        -3.2920    5.8550   21.1510 C.ar  1994  UIR1994    -0.0027
      6  C7        -1.9090    5.6490   21.0040 C.ar  1994  UIR1994    -0.0073
      7  C10       -1.1910    4.4450   21.5740 C.3   1994  UIR1994     0.0888
      8  N11       -2.1760    3.3050   21.5640 N.3   1994  UIR1994    -0.2712
      9  C12       -2.4460    2.8260   20.1660 C.3   1994  UIR1994     0.0723
     10  C13       -1.5110    1.6200   19.9570 C.3   1994  UIR1994     0.0187
     11  C14       -0.7340    1.3720   21.2340 C.3   1994  UIR1994     0.0175
     12  C15       -1.4180    2.2270   22.3140 C.3   1994  UIR1994     0.0599
     13  C16       -0.3090    2.9280   23.1680 C.3   1994  UIR1994     0.0431
     14  C18        0.4940    2.7300   25.7200 C.3   1994  UIR1994     0.0183
     15  C17       -0.6240    2.6950   24.6950 C.3   1994  UIR1994     0.0774
     16  C42        0.2860    1.8040   26.9260 C.3   1994  UIR1994     0.0017
     17  C41        1.2960    1.4090   25.8160 C.3   1994  UIR1994     0.0017
     18  N19       -1.6440    3.6600   24.9970 N.am  1994  UIR1994    -0.2770
     19  C20       -1.7000    4.6950   24.0870 C.2   1994  UIR1994     0.2271
     20  O21       -2.5800    5.6260   24.1040 O.2   1994  UIR1994    -0.2748
     21  C22       -0.6290    4.4520   23.0030 C.3   1994  UIR1994     0.0983
     22  C23       -2.7190    3.6930   26.0810 C.3   1994  UIR1994     0.1202
     23  C24       -2.5080    4.8160   27.1010 C.ar  1994  UIR1994     0.0009
     24  C25       -1.3270    4.8670   27.8580 C.ar  1994  UIR1994     0.0376
     25  C26       -1.2080    5.9140   28.8680 C.ar  1994  UIR1994     0.1762
     26  O27       -0.1330    6.1430   29.7330 O.3   1994  UIR1994    -0.4346
     27  C28       -0.5430    7.3060   30.5080 C.3   1994  UIR1994     0.4294
     28  O29       -1.8750    7.7250   30.0780 O.3   1994  UIR1994    -0.4346
     29  C30       -2.2380    6.8470   29.0790 C.ar  1994  UIR1994     0.1764
     30  C31       -3.4200    6.7870   28.3330 C.ar  1994  UIR1994     0.0399
     31  C32       -3.5400    5.7810   27.3440 C.ar  1994  UIR1994     0.0007
     32  C6        -1.1200    6.6400   20.3720 C.ar  1994  UIR1994    -0.0027
     33  C5        -1.7320    7.8220   19.9390 C.ar  1994  UIR1994     0.0077
     34  N2        -2.9870   10.3480   19.1140 N.pl3 1994  UIR1994     0.2047
@<TRIPOS>BOND
     1    34     2    2
     2     2     1    1
     3     2     3    1
     4    33     3   ar
     5    33    32   ar
     6    10     9    1
     7    10    11    1
     8     3     4   ar
     9     9     8    1
    10    32     6   ar
    11     4     5   ar
    12     6     5   ar
    13     6     7    1
    14    11    12    1
    15     8     7    1
    16     8    12    1
    17     7    21    1
    18    12    13    1
    19    21    13    1
    20    21    19    1
    21    13    15    1
    22    19    20    2
    23    19    18   am
    24    15    18    1
    25    15    14    1
    26    18    22    1
    27    14    17    1
    28    14    16    1
    29    17    16    1
    30    22    23    1
    31    23    31   ar
    32    23    24   ar
    33    31    30   ar
    34    24    25   ar
    35    30    29   ar
    36    25    29   ar
    37    25    26    1
    38    29    28    1
    39    26    27    1
    40    28    27    1
