@<TRIPOS>MOLECULE
1y3w_UIP_A_1.pdb
 33 38 0 0 0
SMALL
GASTEIGER

@<TRIPOS>ATOM
      1  N1        -5.1160    9.5300   19.7200 N.pl3 1994  UIP1994     0.2047
      2  C3        -3.8020    9.3080   19.6660 C.2   1994  UIP1994     0.4766
      3  N2        -3.0460   10.3260   19.1450 N.pl3 1994  UIP1994     0.2047
      4  C4        -3.2170    8.0870   20.1190 C.ar  1994  UIP1994     0.0975
      5  C9        -3.9830    7.0630   20.6810 C.ar  1994  UIP1994     0.0077
      6  C8        -3.3710    5.8710   21.0980 C.ar  1994  UIP1994    -0.0027
      7  C7        -1.9900    5.6930   21.0140 C.ar  1994  UIP1994    -0.0073
      8  C6        -1.2150    6.7270   20.4490 C.ar  1994  UIP1994    -0.0027
      9  C5        -1.8260    7.8970   20.0300 C.ar  1994  UIP1994     0.0077
     10  C10       -1.2970    4.4660   21.5280 C.3   1994  UIP1994     0.0888
     11  N11       -2.1500    3.2380   21.4310 N.3   1994  UIP1994    -0.2712
     12  C12       -2.3340    2.7210   20.0380 C.3   1994  UIP1994     0.0723
     13  C13       -1.4570    1.4490   19.9320 C.3   1994  UIP1994     0.0187
     14  C14       -0.4980    1.5180   21.0940 C.3   1994  UIP1994     0.0175
     15  C15       -1.3530    2.1930   22.1920 C.3   1994  UIP1994     0.0599
     16  C16       -0.3770    2.9470   23.1420 C.3   1994  UIP1994     0.0431
     17  C17       -0.7130    2.7060   24.6490 C.3   1994  UIP1994     0.0774
     18  N19       -1.6930    3.7270   24.9450 N.am  1994  UIP1994    -0.2770
     19  C20       -1.6720    4.7810   24.0690 C.2   1994  UIP1994     0.2271
     20  O21       -2.5550    5.6860   24.0290 O.2   1994  UIP1994    -0.2748
     21  C22       -0.6880    4.4480   22.9320 C.3   1994  UIP1994     0.0983
     22  C23       -2.6350    3.8600   26.1000 C.3   1994  UIP1994     0.1202
     23  C24       -2.0470    4.5110   27.3460 C.ar  1994  UIP1994     0.0009
     24  C32       -1.1700    3.7830   28.2160 C.ar  1994  UIP1994     0.0007
     25  C31       -0.6730    4.3370   29.4160 C.ar  1994  UIP1994     0.0399
     26  C30       -1.0830    5.6500   29.7000 C.ar  1994  UIP1994     0.1764
     27  O29       -0.7440    6.4240   30.7870 O.3   1994  UIP1994    -0.4346
     28  C28       -1.4440    7.6970   30.5940 C.3   1994  UIP1994     0.4294
     29  O27       -2.2090    7.6600   29.3620 O.3   1994  UIP1994    -0.4346
     30  C26       -1.9430    6.3810   28.8580 C.ar  1994  UIP1994     0.1762
     31  C25       -2.4420    5.8230   27.6640 C.ar  1994  UIP1994     0.0376
     32  C18        0.5200    2.7320   25.5850 C.3   1994  UIP1994     0.0199
     33  C42        1.3180    1.4360   25.5760 C.3   1994  UIP1994     0.0018
@<TRIPOS>BOND
     1     3     2    2
     2     2     1    1
     3     2     4    1
     4    13    12    1
     5    13    14    1
     6     9     4   ar
     7     9     8   ar
     8    12    11    1
     9     4     5   ar
    10     8     7   ar
    11     5     6   ar
    12     7     6   ar
    13     7    10    1
    14    14    15    1
    15    11    10    1
    16    11    15    1
    17    10    21    1
    18    15    16    1
    19    21    16    1
    20    21    19    1
    21    16    17    1
    22    20    19    2
    23    19    18   am
    24    17    18    1
    25    17    32    1
    26    18    22    1
    27    33    32    1
    28    22    23    1
    29    23    31   ar
    30    23    24   ar
    31    31    30   ar
    32    24    25   ar
    33    30    29    1
    34    30    26   ar
    35    29    28    1
    36    25    26   ar
    37    26    27    1
    38    28    27    1
