@<TRIPOS>MOLECULE
1y3x_UIB_A_1.pdb
 33 37 0 0 0
SMALL
GASTEIGER

@<TRIPOS>ATOM
      1  N1        -5.0170    9.5770   19.8370 N.pl3 1994  UIB1994     0.2047
      2  C3        -3.7270    9.3500   19.6500 C.2   1994  UIB1994     0.4766
      3  N2        -3.0410   10.3560   19.0290 N.pl3 1994  UIB1994     0.2047
      4  C4        -3.1370    8.1210   20.0830 C.ar  1994  UIB1994     0.0975
      5  C5        -1.7680    7.8570   19.8580 C.ar  1994  UIB1994     0.0077
      6  C6        -1.2160    6.6560   20.2930 C.ar  1994  UIB1994    -0.0027
      7  C7        -2.0090    5.6880   20.9520 C.ar  1994  UIB1994    -0.0073
      8  C10       -1.3370    4.4500   21.4840 C.3   1994  UIB1994     0.0888
      9  C22       -0.7630    4.4420   22.9150 C.3   1994  UIB1994     0.0983
     10  C16       -0.4360    2.9350   23.1290 C.3   1994  UIB1994     0.0419
     11  C15       -1.4120    2.2010   22.1670 C.3   1994  UIB1994     0.0478
     12  C13       -2.1330    1.1340   23.0160 C.3   1994  UIB1994     0.0161
     13  C14       -0.5110    1.5400   21.1020 C.3   1994  UIB1994     0.0161
     14  N11       -2.2270    3.2530   21.4180 N.3   1994  UIB1994    -0.2712
     15  C12       -2.5370    2.8520   20.0400 C.3   1994  UIB1994     0.0898
     16  C17       -0.7490    2.7330   24.6450 C.3   1994  UIB1994     0.0774
     17  N19       -1.8100    3.6930   24.9060 N.am  1994  UIB1994    -0.2770
     18  C23       -2.7820    3.6560   26.0570 C.3   1994  UIB1994     0.1202
     19  C24       -2.5730    4.7960   27.0540 C.ar  1994  UIB1994     0.0009
     20  C32       -3.5640    5.8110   27.2260 C.ar  1994  UIB1994     0.0007
     21  C31       -3.4700    6.8050   28.2200 C.ar  1994  UIB1994     0.0399
     22  C30       -2.3330    6.7840   29.0380 C.ar  1994  UIB1994     0.1764
     23  C26       -1.3350    5.8040   28.9060 C.ar  1994  UIB1994     0.1762
     24  C25       -1.4270    4.8030   27.9240 C.ar  1994  UIB1994     0.0376
     25  O27       -0.3070    5.9780   29.8440 O.3   1994  UIB1994    -0.4346
     26  C28       -0.7300    7.1530   30.5830 C.3   1994  UIB1994     0.4294
     27  O29       -2.0080    7.6340   30.0670 O.3   1994  UIB1994    -0.4346
     28  C20       -1.8490    4.7090   23.9840 C.2   1994  UIB1994     0.2271
     29  O21       -2.6300    5.6990   24.0180 O.2   1994  UIB1994    -0.2748
     30  C18        0.4760    2.8910   25.5700 C.3   1994  UIB1994     0.0199
     31  C41        1.2450    1.5920   25.6870 C.3   1994  UIB1994     0.0018
     32  C8        -3.3580    5.9540   21.1870 C.ar  1994  UIB1994    -0.0027
     33  C9        -3.9250    7.1760   20.7470 C.ar  1994  UIB1994     0.0077
@<TRIPOS>BOND
     1     3     2    2
     2     2     1    1
     3     2     4    1
     4     5     4   ar
     5     5     6   ar
     6    15    14    1
     7     4    33   ar
     8     6     7   ar
     9    33    32   ar
    10     7    32   ar
    11     7     8    1
    12    13    11    1
    13    14     8    1
    14    14    11    1
    15     8     9    1
    16    11    12    1
    17    11    10    1
    18     9    10    1
    19     9    28    1
    20    10    16    1
    21    28    29    2
    22    28    17   am
    23    16    17    1
    24    16    30    1
    25    17    18    1
    26    30    31    1
    27    18    19    1
    28    19    20   ar
    29    19    24   ar
    30    20    21   ar
    31    24    23   ar
    32    21    22   ar
    33    23    22   ar
    34    23    25    1
    35    22    27    1
    36    25    26    1
    37    27    26    1
