@<TRIPOS>MOLECULE
1y3y_UIR_A_1.pdb
 22 25 0 0 0
SMALL
GASTEIGER

@<TRIPOS>ATOM
      1  N1        46.7820   18.5210   54.8030 N.pl3 2222  UIR2222     0.2047
      2  C3        45.9170   18.3890   53.8160 C.2   2222  UIR2222     0.4766
      3  C4        45.4140   19.4450   53.0080 C.ar  2222  UIR2222     0.0975
      4  C9        45.8000   20.7750   53.1630 C.ar  2222  UIR2222     0.0077
      5  C8        45.2670   21.7530   52.3080 C.ar  2222  UIR2222    -0.0027
      6  C7        44.3600   21.3990   51.3070 C.ar  2222  UIR2222    -0.0073
      7  C10       43.7650   22.4440   50.3990 C.3   2222  UIR2222     0.0888
      8  N11       44.7350   23.5840   50.1970 N.3   2222  UIR2222    -0.2712
      9  C12       45.8270   23.2350   49.2340 C.3   2222  UIR2222     0.0723
     10  C13       45.3040   23.6120   47.8340 C.3   2222  UIR2222     0.0187
     11  C14       43.9870   24.3060   48.0080 C.3   2222  UIR2222     0.0175
     12  C15       43.8670   24.6200   49.5100 C.3   2222  UIR2222     0.0599
     13  C16       42.3910   24.3430   49.9370 C.3   2222  UIR2222     0.0448
     14  C17       41.8250   25.4680   50.8640 C.3   2222  UIR2222     0.0953
     15  N19       42.3560   25.1290   52.1740 N.am  2222  UIR2222    -0.2777
     16  C20       42.6810   23.7970   52.2790 C.2   2222  UIR2222     0.2270
     17  O21       43.1490   23.2690   53.3220 O.2   2222  UIR2222    -0.2748
     18  C22       42.4790   23.1340   50.9000 C.3   2222  UIR2222     0.0984
     19  C23       41.8670   25.8700   53.3930 C.3   2222  UIR2222     0.1148
     20  C6        43.9760   20.0560   51.1520 C.ar  2222  UIR2222    -0.0027
     21  C5        44.5070   19.0900   51.9830 C.ar  2222  UIR2222     0.0077
     22  N2        45.4850   17.1240   53.5910 N.pl3 2222  UIR2222     0.2047
@<TRIPOS>BOND
     1    10    11    1
     2    10     9    1
     3    11    12    1
     4     9     8    1
     5    12    13    1
     6    12     8    1
     7    13    14    1
     8    13    18    1
     9     8     7    1
    10     7    18    1
    11     7     6    1
    12    14    15    1
    13    18    16    1
    14    20     6   ar
    15    20    21   ar
    16     6     5   ar
    17    21     3   ar
    18    15    16   am
    19    15    19    1
    20    16    17    2
    21     5     4   ar
    22     3     4   ar
    23     3     2    1
    24    22     2    2
    25     2     1    1
