@<TRIPOS>MOLECULE
1y42_TYR_X_1.pdb
 13 13 0 0 0
SMALL
GASTEIGER

@<TRIPOS>ATOM
      1  N         33.5130   18.0200   12.4590 N.3   701  TYR701     -0.1205
      2  CA        32.7670   18.3280   11.2290 C.3   701  TYR701      0.1986
      3  C         33.3990   17.6720    9.9770 C.2   701  TYR701      0.3822
      4  O         34.6310   17.5570    9.7930 O.co2 701  TYR701     -0.2440
      5  CB        32.6670   19.8280   10.9730 C.3   701  TYR701      0.0569
      6  CG        32.2340   20.6540   12.1600 C.ar  701  TYR701     -0.0200
      7  CD1       30.9570   20.5240   12.7160 C.ar  701  TYR701     -0.0009
      8  CD2       33.0900   21.6050   12.6930 C.ar  701  TYR701     -0.0009
      9  CE1       30.5440   21.3340   13.8130 C.ar  701  TYR701      0.0417
     10  CE2       32.7210   22.4080   13.8050 C.ar  701  TYR701      0.0417
     11  CZ        31.4580   22.2860   14.3490 C.ar  701  TYR701      0.1957
     12  OH        31.1480   23.0970   15.4000 O.3   701  TYR701     -0.2866
     13  OXT       32.6340   17.2120    9.1240 O.co2 701  TYR701     -0.2440
@<TRIPOS>BOND
     1    13     3   ar
     2     4     3   ar
     3     3     2    1
     4     5     2    1
     5     5     6    1
     6     2     1    1
     7     6     8   ar
     8     6     7   ar
     9     8    10   ar
    10     7     9   ar
    11    10    11   ar
    12     9    11   ar
    13    11    12    1
