@<TRIPOS>MOLECULE
1y45_HEM_A_1.pdb
 43 50 0 0 0
SMALL
GASTEIGER

@<TRIPOS>ATOM
      1 FE          8.1960   40.4470  -15.2680 Fe    142  HEM142      0.0000
      2  CHA        6.5280   43.1450  -16.6140 C.2   142  HEM142      0.0000
      3  CHB        6.0860   40.6290  -12.4770 C.2   142  HEM142      0.0000
      4  CHC       10.2830   38.3740  -13.4240 C.2   142  HEM142      0.0000
      5  CHD       10.8010   40.9600  -17.4730 C.2   142  HEM142      0.0000
      6  NA         6.5710   41.6680  -14.6450 N.2   142  HEM142      0.0000
      7  C1A        6.0770   42.7250  -15.3700 C.2   142  HEM142      0.0000
      8  C2A        4.9870   43.2980  -14.6280 C.2   142  HEM142      0.0000
      9  C3A        4.8460   42.6180  -13.4900 C.2   142  HEM142      0.0000
     10  C4A        5.8470   41.5630  -13.4740 C.2   142  HEM142      0.0000
     11  CMA        3.7970   42.9500  -12.3980 C.3   142  HEM142      0.0000
     12  CAA        4.1370   44.5040  -15.0790 C.3   142  HEM142      0.0000
     13  CBA        3.0480   44.0090  -16.0160 C.3   142  HEM142      0.0000
     14  CGA        1.9660   45.0560  -16.1540 C.2   142  HEM142      0.0000
     15  O1A        0.7890   44.6850  -15.9020 O.co2 142  HEM142      0.0000
     16  O2A        2.2670   46.2250  -16.5010 O.co2 142  HEM142      0.0000
     17  NB         8.2090   39.6850  -13.3320 N.ar  142  HEM142      0.0000
     18  C1B        7.1930   39.7920  -12.4060 C.ar  142  HEM142      0.0000
     19  C2B        7.4520   38.8460  -11.3480 C.ar  142  HEM142      0.0000
     20  C3B        8.6120   38.2460  -11.5830 C.ar  142  HEM142      0.0000
     21  C4B        9.1020   38.7480  -12.8410 C.ar  142  HEM142      0.0000
     22  CMB        6.5460   38.6760  -10.1190 C.3   142  HEM142      0.0000
     23  CAB        9.3050   37.1380  -10.7490 C.2   142  HEM142      0.0000
     24  CBB        9.4740   37.2440   -9.4360 C.2   142  HEM142      0.0000
     25  NC        10.2000   39.8280  -15.4040 N.2   142  HEM142      0.0000
     26  C1C       10.8090   38.8960  -14.5820 C.2   142  HEM142      0.0000
     27  C2C       12.1150   38.6010  -15.1260 C.2   142  HEM142      0.0000
     28  C3C       12.2220   39.2680  -16.2700 C.2   142  HEM142      0.0000
     29  C4C       11.0440   40.0870  -16.4370 C.2   142  HEM142      0.0000
     30  CMC       13.0560   37.5060  -14.6070 C.3   142  HEM142      0.0000
     31  CAC       13.4110   39.2080  -17.2280 C.2   142  HEM142      0.0000
     32  CBC       14.6340   39.4880  -16.7200 C.2   142  HEM142      0.0000
     33  ND         8.5990   41.8420  -16.7820 N.ar  142  HEM142      0.0000
     34  C1D        9.7420   41.8200  -17.5710 C.ar  142  HEM142      0.0000
     35  C2D        9.6760   42.8470  -18.5770 C.ar  142  HEM142      0.0000
     36  C3D        8.3590   43.5410  -18.3090 C.ar  142  HEM142      0.0000
     37  C4D        7.7540   42.8540  -17.1810 C.ar  142  HEM142      0.0000
     38  CMD       10.7540   43.1630  -19.6510 C.3   142  HEM142      0.0000
     39  CAD        7.7930   44.7350  -19.0910 C.3   142  HEM142      0.0000
     40  CBD        8.4210   45.9890  -18.5370 C.3   142  HEM142      0.0000
     41  CGD        7.8470   47.1680  -19.2920 C.2   142  HEM142      0.0000
     42  O1D        7.1950   48.0250  -18.6770 O.co2 142  HEM142      0.0000
     43  O2D        8.0380   47.2340  -20.5080 O.co2 142  HEM142      0.0000
@<TRIPOS>BOND
     1    43    41   ar
     2    38    35    1
     3    41    42   ar
     4    41    40    1
     5    39    40    1
     6    39    36    1
     7    35    36   ar
     8    35    34   ar
     9    36    37   ar
    10    34     5    2
    11    34    33   ar
    12     5    29    1
    13    31    32    2
    14    31    28    1
    15    37    33   ar
    16    37     2    2
    17    33     1    1
    18     2     7    1
    19    16    14   ar
    20    29    28    1
    21    29    25    2
    22    28    27    2
    23    14    13    1
    24    14    15   ar
    25    13    12    1
    26    25     1    1
    27    25    26    1
    28     7     6    2
    29     7     8    1
    30     1     6    1
    31     1    17    1
    32    27    30    1
    33    27    26    1
    34    12     8    1
    35     6    10    1
    36     8     9    2
    37    26     4    2
    38     9    10    1
    39     9    11    1
    40    10     3    2
    41     4    21    1
    42    17    21   ar
    43    17    18   ar
    44    21    20   ar
    45     3    18    1
    46    18    19   ar
    47    20    19   ar
    48    20    23    1
    49    19    22    1
    50    23    24    2
