@<TRIPOS>MOLECULE
1y46_HEM_A_1.pdb
 43 50 0 0 0
SMALL
GASTEIGER

@<TRIPOS>ATOM
      1 FE          8.0900   40.5440  -15.2090 Fe    142  HEM142      0.0000
      2  CHA        6.4400   43.3150  -16.5600 C.2   142  HEM142      0.0000
      3  CHB        5.9580   40.8010  -12.5040 C.2   142  HEM142      0.0000
      4  CHC       10.1910   38.5670  -13.3500 C.2   142  HEM142      0.0000
      5  CHD       10.7000   41.1810  -17.3680 C.2   142  HEM142      0.0000
      6  NA         6.5040   41.8340  -14.6450 N.2   142  HEM142      0.0000
      7  C1A        5.9790   42.8800  -15.3510 C.2   142  HEM142      0.0000
      8  C2A        4.8680   43.4420  -14.6360 C.2   142  HEM142      0.0000
      9  C3A        4.7310   42.7570  -13.5180 C.2   142  HEM142      0.0000
     10  C4A        5.7490   41.7280  -13.4900 C.2   142  HEM142      0.0000
     11  CMA        3.6580   43.0380  -12.4270 C.3   142  HEM142      0.0000
     12  CAA        4.0040   44.6530  -15.0520 C.3   142  HEM142      0.0000
     13  CBA        3.1020   44.3590  -16.2390 C.3   142  HEM142      0.0000
     14  CGA        1.9840   45.3740  -16.2430 C.2   142  HEM142      0.0000
     15  O1A        0.8760   44.9560  -15.8520 O.co2 142  HEM142      0.0000
     16  O2A        2.1610   46.5660  -16.6100 O.co2 142  HEM142      0.0000
     17  NB         8.1210   39.9050  -13.3050 N.ar  142  HEM142      0.0000
     18  C1B        7.0630   39.9750  -12.4040 C.ar  142  HEM142      0.0000
     19  C2B        7.3130   39.0160  -11.3460 C.ar  142  HEM142      0.0000
     20  C3B        8.4810   38.4130  -11.5590 C.ar  142  HEM142      0.0000
     21  C4B        8.9890   38.9330  -12.8010 C.ar  142  HEM142      0.0000
     22  CMB        6.3950   38.8310  -10.1460 C.3   142  HEM142      0.0000
     23  CAB        9.2090   37.2990  -10.7480 C.2   142  HEM142      0.0000
     24  CBB        9.4890   37.4140   -9.4620 C.2   142  HEM142      0.0000
     25  NC        10.0780   40.0530  -15.3080 N.2   142  HEM142      0.0000
     26  C1C       10.7000   39.1150  -14.5090 C.2   142  HEM142      0.0000
     27  C2C       11.9920   38.8540  -15.0560 C.2   142  HEM142      0.0000
     28  C3C       12.0920   39.5000  -16.1970 C.2   142  HEM142      0.0000
     29  C4C       10.9240   40.3030  -16.3500 C.2   142  HEM142      0.0000
     30  CMC       12.9290   37.7710  -14.5110 C.3   142  HEM142      0.0000
     31  CAC       13.2940   39.4670  -17.1490 C.2   142  HEM142      0.0000
     32  CBC       14.5510   39.5580  -16.6400 C.2   142  HEM142      0.0000
     33  ND         8.5080   42.0210  -16.6690 N.ar  142  HEM142      0.0000
     34  C1D        9.6390   42.0150  -17.4820 C.ar  142  HEM142      0.0000
     35  C2D        9.5320   43.0090  -18.5100 C.ar  142  HEM142      0.0000
     36  C3D        8.2060   43.6880  -18.2730 C.ar  142  HEM142      0.0000
     37  C4D        7.6520   43.0100  -17.1230 C.ar  142  HEM142      0.0000
     38  CMD       10.5160   43.3790  -19.6310 C.3   142  HEM142      0.0000
     39  CAD        7.6580   44.8760  -19.1280 C.3   142  HEM142      0.0000
     40  CBD        8.3410   46.1650  -18.6650 C.3   142  HEM142      0.0000
     41  CGD        7.8100   47.3760  -19.3700 C.2   142  HEM142      0.0000
     42  O1D        7.1330   48.2240  -18.7520 O.co2 142  HEM142      0.0000
     43  O2D        8.0770   47.5010  -20.5790 O.co2 142  HEM142      0.0000
@<TRIPOS>BOND
     1    43    41   ar
     2    38    35    1
     3    41    42   ar
     4    41    40    1
     5    39    40    1
     6    39    36    1
     7    35    36   ar
     8    35    34   ar
     9    36    37   ar
    10    34     5    2
    11    34    33   ar
    12     5    29    1
    13    31    32    2
    14    31    28    1
    15    37    33   ar
    16    37     2    2
    17    33     1    1
    18    16    14   ar
    19     2     7    1
    20    29    28    1
    21    29    25    2
    22    14    13    1
    23    14    15   ar
    24    13    12    1
    25    28    27    2
    26     7     6    2
    27     7     8    1
    28    25     1    1
    29    25    26    1
    30     1     6    1
    31     1    17    1
    32    27    30    1
    33    27    26    1
    34    12     8    1
    35     6    10    1
    36     8     9    2
    37    26     4    2
    38     9    10    1
    39     9    11    1
    40    10     3    2
    41     4    21    1
    42    17    21   ar
    43    17    18   ar
    44    21    20   ar
    45     3    18    1
    46    18    19   ar
    47    20    19   ar
    48    20    23    1
    49    19    22    1
    50    23    24    2
