@<TRIPOS>MOLECULE
1y4b_HEM_A_1.pdb
 43 50 0 0 0
SMALL
GASTEIGER

@<TRIPOS>ATOM
      1 FE          8.3140   40.4460  -15.2970 Fe    142  HEM142      0.0000
      2  CHA        6.6480   43.1270  -16.6640 C.2   142  HEM142      0.0000
      3  CHB        6.2090   40.6530  -12.6220 C.2   142  HEM142      0.0000
      4  CHC       10.3480   38.2880  -13.4660 C.2   142  HEM142      0.0000
      5  CHD       10.9110   40.8820  -17.5060 C.2   142  HEM142      0.0000
      6  NA         6.7190   41.6890  -14.7480 N.2   142  HEM142      0.0000
      7  C1A        6.1510   42.6890  -15.4650 C.2   142  HEM142      0.0000
      8  C2A        5.0280   43.2340  -14.7420 C.2   142  HEM142      0.0000
      9  C3A        4.9090   42.5620  -13.6240 C.2   142  HEM142      0.0000
     10  C4A        5.9700   41.5720  -13.5990 C.2   142  HEM142      0.0000
     11  CMA        3.8110   42.8750  -12.5300 C.3   142  HEM142      0.0000
     12  CAA        4.1060   44.4310  -15.1120 C.3   142  HEM142      0.0000
     13  CBA        3.3800   44.3050  -16.4370 C.3   142  HEM142      0.0000
     14  CGA        2.1650   45.2350  -16.4250 C.2   142  HEM142      0.0000
     15  O1A        1.0520   44.6860  -16.3470 O.co2 142  HEM142      0.0000
     16  O2A        2.2680   46.4950  -16.4830 O.co2 142  HEM142      0.0000
     17  NB         8.3320   39.6490  -13.4110 N.ar  142  HEM142      0.0000
     18  C1B        7.2930   39.7890  -12.5230 C.ar  142  HEM142      0.0000
     19  C2B        7.5080   38.8440  -11.4530 C.ar  142  HEM142      0.0000
     20  C3B        8.6480   38.1800  -11.6650 C.ar  142  HEM142      0.0000
     21  C4B        9.1630   38.6680  -12.9140 C.ar  142  HEM142      0.0000
     22  CMB        6.6100   38.6510  -10.2370 C.3   142  HEM142      0.0000
     23  CAB        9.2710   37.0540  -10.8030 C.2   142  HEM142      0.0000
     24  CBB        9.5330   37.2510   -9.5250 C.2   142  HEM142      0.0000
     25  NC        10.2420   39.7620  -15.4140 N.2   142  HEM142      0.0000
     26  C1C       10.8500   38.8060  -14.6290 C.2   142  HEM142      0.0000
     27  C2C       12.1850   38.5780  -15.1340 C.2   142  HEM142      0.0000
     28  C3C       12.2510   39.1580  -16.3140 C.2   142  HEM142      0.0000
     29  C4C       11.0990   40.0010  -16.4830 C.2   142  HEM142      0.0000
     30  CMC       13.0870   37.4190  -14.6940 C.3   142  HEM142      0.0000
     31  CAC       13.4280   39.0490  -17.2630 C.2   142  HEM142      0.0000
     32  CBC       14.6330   39.4270  -16.8460 C.2   142  HEM142      0.0000
     33  ND         8.7310   41.8130  -16.7700 N.ar  142  HEM142      0.0000
     34  C1D        9.8590   41.7640  -17.5900 C.ar  142  HEM142      0.0000
     35  C2D        9.7580   42.7590  -18.6060 C.ar  142  HEM142      0.0000
     36  C3D        8.4390   43.4520  -18.3710 C.ar  142  HEM142      0.0000
     37  C4D        7.8700   42.8090  -17.2060 C.ar  142  HEM142      0.0000
     38  CMD       10.7780   43.0410  -19.7250 C.3   142  HEM142      0.0000
     39  CAD        7.8680   44.6160  -19.2100 C.3   142  HEM142      0.0000
     40  CBD        8.4340   45.9070  -18.6560 C.3   142  HEM142      0.0000
     41  CGD        7.9270   47.1350  -19.3780 C.2   142  HEM142      0.0000
     42  O1D        7.1960   47.9230  -18.7710 O.co2 142  HEM142      0.0000
     43  O2D        8.2820   47.3290  -20.5440 O.co2 142  HEM142      0.0000
@<TRIPOS>BOND
     1    43    41   ar
     2    38    35    1
     3    41    42   ar
     4    41    40    1
     5    39    40    1
     6    39    36    1
     7    35    36   ar
     8    35    34   ar
     9    36    37   ar
    10    34     5    2
    11    34    33   ar
    12     5    29    1
    13    31    32    2
    14    31    28    1
    15    37    33   ar
    16    37     2    2
    17    33     1    1
    18     2     7    1
    19    16    14   ar
    20    29    28    1
    21    29    25    2
    22    13    14    1
    23    13    12    1
    24    14    15   ar
    25    28    27    2
    26     7     6    2
    27     7     8    1
    28    25     1    1
    29    25    26    1
    30     1     6    1
    31     1    17    1
    32    27    30    1
    33    27    26    1
    34    12     8    1
    35     6    10    1
    36     8     9    2
    37    26     4    2
    38     9    10    1
    39     9    11    1
    40    10     3    2
    41     4    21    1
    42    17    21   ar
    43    17    18   ar
    44    21    20   ar
    45     3    18    1
    46    18    19   ar
    47    20    19   ar
    48    20    23    1
    49    19    22    1
    50    23    24    2
