@<TRIPOS>MOLECULE
1y4c_GLC_A_1.pdb
 12 12 0 0 0
SMALL
GASTEIGER

@<TRIPOS>ATOM
      1  C1         3.6010   65.7170   92.2820 C.3   371  GLC371      0.3024
      2  C2         2.6670   66.0040   91.0990 C.3   371  GLC371      0.2434
      3  C3         3.1110   65.2760   89.8350 C.3   371  GLC371      0.2199
      4  C4         4.5890   65.5240   89.5460 C.3   371  GLC371      0.2144
      5  C5         5.4150   65.1900   90.7880 C.3   371  GLC371      0.1836
      6  C6         6.8850   65.5350   90.5850 C.3   371  GLC371      0.2142
      7  O1         3.4950   64.3850   92.6380 O.3   371  GLC371     -0.1869
      8  O2         1.3490   65.5810   91.4320 O.3   371  GLC371     -0.2148
      9  O3         2.3250   65.7390   88.7400 O.3   371  GLC371     -0.2174
     10  O4         5.0080   64.6910   88.4330 O.3   371  GLC371     -0.2176
     11  O5         4.9660   65.9710   91.9220 O.3   371  GLC371     -0.3236
     12  O6         7.7010   64.8530   91.5290 O.3   371  GLC371     -0.2176
@<TRIPOS>BOND
     1    10     4    1
     2     9     3    1
     3     4     3    1
     4     4     5    1
     5     3     2    1
     6     6     5    1
     7     6    12    1
     8     5    11    1
     9     2     8    1
    10     2     1    1
    11    11     1    1
    12     1     7    1
