@<TRIPOS>MOLECULE
1y4f_HEM_A_1.pdb
 43 50 0 0 0
SMALL
GASTEIGER

@<TRIPOS>ATOM
      1 FE          8.0730   40.4810  -15.2270 Fe    142  HEM142      0.0000
      2  CHA        6.3990   43.1340  -16.5650 C.2   142  HEM142      0.0000
      3  CHB        5.9580   40.6590  -12.4050 C.2   142  HEM142      0.0000
      4  CHC       10.1740   38.4320  -13.3480 C.2   142  HEM142      0.0000
      5  CHD       10.7140   41.0260  -17.3740 C.2   142  HEM142      0.0000
      6  NA         6.4480   41.6740  -14.5920 N.2   142  HEM142      0.0000
      7  C1A        5.9560   42.7130  -15.3210 C.2   142  HEM142      0.0000
      8  C2A        4.8820   43.2790  -14.5830 C.2   142  HEM142      0.0000
      9  C3A        4.7370   42.6200  -13.4410 C.2   142  HEM142      0.0000
     10  C4A        5.7290   41.5740  -13.4140 C.2   142  HEM142      0.0000
     11  CMA        3.6910   42.9530  -12.3450 C.3   142  HEM142      0.0000
     12  CAA        4.0340   44.4800  -15.0390 C.3   142  HEM142      0.0000
     13  CBA        3.0130   43.9890  -16.0390 C.3   142  HEM142      0.0000
     14  CGA        1.9190   45.0320  -16.1140 C.2   142  HEM142      0.0000
     15  O1A        0.7680   44.6650  -15.7830 O.co2 142  HEM142      0.0000
     16  O2A        2.1920   46.2060  -16.4650 O.co2 142  HEM142      0.0000
     17  NB         8.0890   39.7490  -13.2570 N.ar  142  HEM142      0.0000
     18  C1B        7.0730   39.8350  -12.3310 C.ar  142  HEM142      0.0000
     19  C2B        7.3400   38.8710  -11.2820 C.ar  142  HEM142      0.0000
     20  C3B        8.5080   38.2760  -11.5120 C.ar  142  HEM142      0.0000
     21  C4B        8.9910   38.8000  -12.7650 C.ar  142  HEM142      0.0000
     22  CMB        6.4250   38.6870  -10.0570 C.3   142  HEM142      0.0000
     23  CAB        9.2250   37.1620  -10.6890 C.2   142  HEM142      0.0000
     24  CBB        9.3890   37.2280   -9.3680 C.2   142  HEM142      0.0000
     25  NC        10.0860   39.8640  -15.3330 N.2   142  HEM142      0.0000
     26  C1C       10.7060   38.9400  -14.5150 C.2   142  HEM142      0.0000
     27  C2C       12.0350   38.7020  -15.0290 C.2   142  HEM142      0.0000
     28  C3C       12.1190   39.3290  -16.1930 C.2   142  HEM142      0.0000
     29  C4C       10.9420   40.1440  -16.3550 C.2   142  HEM142      0.0000
     30  CMC       12.9440   37.5480  -14.5590 C.3   142  HEM142      0.0000
     31  CAC       13.2840   39.2970  -17.1770 C.2   142  HEM142      0.0000
     32  CBC       14.5170   39.6320  -16.7260 C.2   142  HEM142      0.0000
     33  ND         8.5010   41.8990  -16.6980 N.ar  142  HEM142      0.0000
     34  C1D        9.6330   41.8700  -17.4950 C.ar  142  HEM142      0.0000
     35  C2D        9.5260   42.8490  -18.5280 C.ar  142  HEM142      0.0000
     36  C3D        8.1860   43.5190  -18.2960 C.ar  142  HEM142      0.0000
     37  C4D        7.6170   42.8640  -17.1400 C.ar  142  HEM142      0.0000
     38  CMD       10.5640   43.1640  -19.6260 C.3   142  HEM142      0.0000
     39  CAD        7.6240   44.6770  -19.1490 C.3   142  HEM142      0.0000
     40  CBD        8.2450   45.9370  -18.5680 C.3   142  HEM142      0.0000
     41  CGD        7.6940   47.1570  -19.2650 C.2   142  HEM142      0.0000
     42  O1D        7.1010   48.0300  -18.6000 O.co2 142  HEM142      0.0000
     43  O2D        7.8580   47.2420  -20.4840 O.co2 142  HEM142      0.0000
@<TRIPOS>BOND
     1    43    41   ar
     2    38    35    1
     3    41    42   ar
     4    41    40    1
     5    39    40    1
     6    39    36    1
     7    35    36   ar
     8    35    34   ar
     9    36    37   ar
    10    34     5    2
    11    34    33   ar
    12     5    29    1
    13    31    32    2
    14    31    28    1
    15    37    33   ar
    16    37     2    2
    17    33     1    1
    18     2     7    1
    19    16    14   ar
    20    29    28    1
    21    29    25    2
    22    28    27    2
    23    14    13    1
    24    14    15   ar
    25    13    12    1
    26    25     1    1
    27    25    26    1
    28     7     6    2
    29     7     8    1
    30     1     6    1
    31     1    17    1
    32    12     8    1
    33    27    30    1
    34    27    26    1
    35     6    10    1
    36     8     9    2
    37    26     4    2
    38     9    10    1
    39     9    11    1
    40    10     3    2
    41     4    21    1
    42    17    21   ar
    43    17    18   ar
    44    21    20   ar
    45     3    18    1
    46    18    19   ar
    47    20    19   ar
    48    20    23    1
    49    19    22    1
    50    23    24    2
