@<TRIPOS>MOLECULE
1y4g_HEM_A_1.pdb
 43 50 0 0 0
SMALL
GASTEIGER

@<TRIPOS>ATOM
      1 FE          8.0860   40.4760  -15.0770 Fe    142  HEM142      0.0000
      2  CHA        6.3910   43.1740  -16.4260 C.2   142  HEM142      0.0000
      3  CHB        5.9980   40.7820  -12.2960 C.2   142  HEM142      0.0000
      4  CHC       10.1620   38.4550  -13.2520 C.2   142  HEM142      0.0000
      5  CHD       10.6470   41.0020  -17.2560 C.2   142  HEM142      0.0000
      6  NA         6.4900   41.7460  -14.4690 N.2   142  HEM142      0.0000
      7  C1A        5.9530   42.7630  -15.2040 C.2   142  HEM142      0.0000
      8  C2A        4.8580   43.3230  -14.5020 C.2   142  HEM142      0.0000
      9  C3A        4.7410   42.6920  -13.3470 C.2   142  HEM142      0.0000
     10  C4A        5.7590   41.6620  -13.3100 C.2   142  HEM142      0.0000
     11  CMA        3.6990   42.9940  -12.2570 C.3   142  HEM142      0.0000
     12  CAA        4.0200   44.5080  -14.9790 C.3   142  HEM142      0.0000
     13  CBA        2.9260   43.9820  -15.8690 C.3   142  HEM142      0.0000
     14  CGA        1.9610   45.1340  -15.9720 C.2   142  HEM142      0.0000
     15  O1A        0.7670   44.8950  -15.7210 O.co2 142  HEM142      0.0000
     16  O2A        2.4050   46.2760  -16.2530 O.co2 142  HEM142      0.0000
     17  NB         8.1200   39.8460  -13.1680 N.ar  142  HEM142      0.0000
     18  C1B        7.1030   39.9360  -12.2380 C.ar  142  HEM142      0.0000
     19  C2B        7.3410   38.9290  -11.2340 C.ar  142  HEM142      0.0000
     20  C3B        8.4810   38.3090  -11.4770 C.ar  142  HEM142      0.0000
     21  C4B        8.9930   38.8520  -12.6900 C.ar  142  HEM142      0.0000
     22  CMB        6.4670   38.6810  -10.0030 C.3   142  HEM142      0.0000
     23  CAB        9.1110   37.1490  -10.6590 C.2   142  HEM142      0.0000
     24  CBB        9.5710   37.2880   -9.4410 C.2   142  HEM142      0.0000
     25  NC        10.0500   39.8680  -15.2150 N.2   142  HEM142      0.0000
     26  C1C       10.6810   38.9390  -14.4220 C.2   142  HEM142      0.0000
     27  C2C       11.9700   38.6620  -14.9660 C.2   142  HEM142      0.0000
     28  C3C       12.0520   39.3190  -16.1170 C.2   142  HEM142      0.0000
     29  C4C       10.8740   40.1140  -16.2620 C.2   142  HEM142      0.0000
     30  CMC       12.8940   37.5370  -14.4450 C.3   142  HEM142      0.0000
     31  CAC       13.1760   39.3410  -17.1400 C.2   142  HEM142      0.0000
     32  CBC       14.4210   39.5400  -16.6610 C.2   142  HEM142      0.0000
     33  ND         8.4540   41.8900  -16.5220 N.ar  142  HEM142      0.0000
     34  C1D        9.5600   41.8390  -17.3530 C.ar  142  HEM142      0.0000
     35  C2D        9.4690   42.7970  -18.3940 C.ar  142  HEM142      0.0000
     36  C3D        8.1490   43.4840  -18.1560 C.ar  142  HEM142      0.0000
     37  C4D        7.5970   42.8660  -16.9780 C.ar  142  HEM142      0.0000
     38  CMD       10.4970   43.0560  -19.5200 C.3   142  HEM142      0.0000
     39  CAD        7.5850   44.6140  -19.0200 C.3   142  HEM142      0.0000
     40  CBD        8.0970   45.8960  -18.4220 C.3   142  HEM142      0.0000
     41  CGD        7.5630   47.0720  -19.2030 C.2   142  HEM142      0.0000
     42  O1D        7.1140   48.0460  -18.5480 O.co2 142  HEM142      0.0000
     43  O2D        7.5980   47.0490  -20.4500 O.co2 142  HEM142      0.0000
@<TRIPOS>BOND
     1    43    41   ar
     2    38    35    1
     3    41    42   ar
     4    41    40    1
     5    39    40    1
     6    39    36    1
     7    35    36   ar
     8    35    34   ar
     9    36    37   ar
    10    34     5    2
    11    34    33   ar
    12     5    29    1
    13    31    32    2
    14    31    28    1
    15    37    33   ar
    16    37     2    2
    17    33     1    1
    18     2     7    1
    19    29    28    1
    20    29    25    2
    21    16    14   ar
    22    28    27    2
    23    14    13    1
    24    14    15   ar
    25    13    12    1
    26    25     1    1
    27    25    26    1
    28     7     8    1
    29     7     6    2
    30     1     6    1
    31     1    17    1
    32    12     8    1
    33    27    30    1
    34    27    26    1
    35     8     9    2
    36     6    10    1
    37    26     4    2
    38     9    10    1
    39     9    11    1
    40    10     3    2
    41     4    21    1
    42    17    21   ar
    43    17    18   ar
    44    21    20   ar
    45     3    18    1
    46    18    19   ar
    47    20    19   ar
    48    20    23    1
    49    19    22    1
    50    23    24    2
