@<TRIPOS>MOLECULE
1y4p_HEM_A_1.pdb
 43 50 0 0 0
SMALL
GASTEIGER

@<TRIPOS>ATOM
      1 FE          8.1200   40.3970  -15.1380 Fe    142  HEM142      0.0000
      2  CHA        6.4510   42.9930  -16.4850 C.2   142  HEM142      0.0000
      3  CHB        6.0260   40.6620  -12.2730 C.2   142  HEM142      0.0000
      4  CHC       10.2220   38.3620  -13.2620 C.2   142  HEM142      0.0000
      5  CHD       10.7780   40.9490  -17.3050 C.2   142  HEM142      0.0000
      6  NA         6.5410   41.5730  -14.4740 N.2   142  HEM142      0.0000
      7  C1A        6.0210   42.5900  -15.2310 C.2   142  HEM142      0.0000
      8  C2A        4.9450   43.1790  -14.5130 C.2   142  HEM142      0.0000
      9  C3A        4.8120   42.5710  -13.3450 C.2   142  HEM142      0.0000
     10  C4A        5.7990   41.5260  -13.2990 C.2   142  HEM142      0.0000
     11  CMA        3.7810   42.9330  -12.2390 C.3   142  HEM142      0.0000
     12  CAA        4.1160   44.3810  -14.9870 C.3   142  HEM142      0.0000
     13  CBA        3.0300   43.9330  -15.9240 C.3   142  HEM142      0.0000
     14  CGA        2.0330   45.0730  -15.9800 C.2   142  HEM142      0.0000
     15  O1A        0.8470   44.7940  -15.7050 O.co2 142  HEM142      0.0000
     16  O2A        2.4090   46.2390  -16.2620 O.co2 142  HEM142      0.0000
     17  NB         8.1560   39.7120  -13.1460 N.ar  142  HEM142      0.0000
     18  C1B        7.1420   39.8210  -12.2180 C.ar  142  HEM142      0.0000
     19  C2B        7.4010   38.8580  -11.1790 C.ar  142  HEM142      0.0000
     20  C3B        8.5660   38.2550  -11.4270 C.ar  142  HEM142      0.0000
     21  C4B        9.0400   38.7490  -12.6800 C.ar  142  HEM142      0.0000
     22  CMB        6.5160   38.7040   -9.9420 C.3   142  HEM142      0.0000
     23  CAB        9.2790   37.1330  -10.6290 C.2   142  HEM142      0.0000
     24  CBB        9.4330   37.2070   -9.3200 C.2   142  HEM142      0.0000
     25  NC        10.1120   39.8230  -15.2370 N.2   142  HEM142      0.0000
     26  C1C       10.7340   38.8680  -14.4410 C.2   142  HEM142      0.0000
     27  C2C       12.0480   38.6190  -14.9740 C.2   142  HEM142      0.0000
     28  C3C       12.1130   39.2440  -16.1300 C.2   142  HEM142      0.0000
     29  C4C       10.9670   40.0670  -16.2770 C.2   142  HEM142      0.0000
     30  CMC       12.9740   37.4830  -14.5040 C.3   142  HEM142      0.0000
     31  CAC       13.2660   39.2300  -17.1220 C.2   142  HEM142      0.0000
     32  CBC       14.4890   39.5420  -16.6410 C.2   142  HEM142      0.0000
     33  ND         8.5660   41.7870  -16.6200 N.ar  142  HEM142      0.0000
     34  C1D        9.6850   41.7850  -17.4260 C.ar  142  HEM142      0.0000
     35  C2D        9.5640   42.7590  -18.4530 C.ar  142  HEM142      0.0000
     36  C3D        8.2150   43.4110  -18.2120 C.ar  142  HEM142      0.0000
     37  C4D        7.6750   42.7470  -17.0490 C.ar  142  HEM142      0.0000
     38  CMD       10.6180   43.0690  -19.5530 C.3   142  HEM142      0.0000
     39  CAD        7.6090   44.5610  -19.0530 C.3   142  HEM142      0.0000
     40  CBD        8.1240   45.8550  -18.4640 C.3   142  HEM142      0.0000
     41  CGD        7.6810   47.0850  -19.2230 C.2   142  HEM142      0.0000
     42  O1D        7.2870   48.0830  -18.5770 O.co2 142  HEM142      0.0000
     43  O2D        7.7430   47.0760  -20.4520 O.co2 142  HEM142      0.0000
@<TRIPOS>BOND
     1    43    41   ar
     2    38    35    1
     3    41    42   ar
     4    41    40    1
     5    39    40    1
     6    39    36    1
     7    35    36   ar
     8    35    34   ar
     9    36    37   ar
    10    34     5    2
    11    34    33   ar
    12     5    29    1
    13    31    32    2
    14    31    28    1
    15    37    33   ar
    16    37     2    2
    17    33     1    1
    18     2     7    1
    19    29    28    1
    20    29    25    2
    21    16    14   ar
    22    28    27    2
    23    14    13    1
    24    14    15   ar
    25    13    12    1
    26    25     1    1
    27    25    26    1
    28     7     8    1
    29     7     6    2
    30     1     6    1
    31     1    17    1
    32    12     8    1
    33    27    30    1
    34    27    26    1
    35     8     9    2
    36     6    10    1
    37    26     4    2
    38     9    10    1
    39     9    11    1
    40    10     3    2
    41     4    21    1
    42    17    21   ar
    43    17    18   ar
    44    21    20   ar
    45     3    18    1
    46    18    19   ar
    47    20    19   ar
    48    20    23    1
    49    19    22    1
    50    23    24    2
