@<TRIPOS>MOLECULE
1y4q_HEM_A_1.pdb
 43 50 0 0 0
SMALL
GASTEIGER

@<TRIPOS>ATOM
      1 FE          8.2570   40.5530  -15.3010 Fe    142  HEM142      0.0000
      2  CHA        6.7110   43.3310  -16.5550 C.2   142  HEM142      0.0000
      3  CHB        6.1480   40.6880  -12.5260 C.2   142  HEM142      0.0000
      4  CHC       10.2120   38.2400  -13.6100 C.2   142  HEM142      0.0000
      5  CHD       10.9130   41.1210  -17.4780 C.2   142  HEM142      0.0000
      6  NA         6.7540   41.7610  -14.6630 N.2   142  HEM142      0.0000
      7  C1A        6.2480   42.8350  -15.3470 C.2   142  HEM142      0.0000
      8  C2A        5.1440   43.3870  -14.6090 C.2   142  HEM142      0.0000
      9  C3A        4.9680   42.6610  -13.5240 C.2   142  HEM142      0.0000
     10  C4A        5.9730   41.6290  -13.5220 C.2   142  HEM142      0.0000
     11  CMA        3.9300   42.8390  -12.3820 C.3   142  HEM142      0.0000
     12  CAA        4.3750   44.6090  -15.1560 C.3   142  HEM142      0.0000
     13  CBA        3.1860   44.2490  -16.0710 C.3   142  HEM142      0.0000
     14  CGA        2.3120   45.4650  -16.3240 C.2   142  HEM142      0.0000
     15  O1A        1.2960   45.5550  -15.5890 O.co2 142  HEM142      0.0000
     16  O2A        2.7100   46.2750  -17.1990 O.co2 142  HEM142      0.0000
     17  NB         8.1990   39.6560  -13.4480 N.ar  142  HEM142      0.0000
     18  C1B        7.2580   39.8570  -12.4570 C.ar  142  HEM142      0.0000
     19  C2B        7.5660   39.0030  -11.3260 C.ar  142  HEM142      0.0000
     20  C3B        8.6770   38.3230  -11.6220 C.ar  142  HEM142      0.0000
     21  C4B        9.0920   38.7320  -12.9490 C.ar  142  HEM142      0.0000
     22  CMB        6.7160   38.9630  -10.0470 C.3   142  HEM142      0.0000
     23  CAB        9.4840   37.3120  -10.7880 C.2   142  HEM142      0.0000
     24  CBB        8.9190   36.5240   -9.8980 C.2   142  HEM142      0.0000
     25  NC        10.1560   39.8190  -15.5240 N.2   142  HEM142      0.0000
     26  C1C       10.7720   38.8630  -14.7230 C.2   142  HEM142      0.0000
     27  C2C       12.1210   38.6520  -15.1870 C.2   142  HEM142      0.0000
     28  C3C       12.3260   39.4550  -16.2320 C.2   142  HEM142      0.0000
     29  C4C       11.1010   40.1940  -16.4640 C.2   142  HEM142      0.0000
     30  CMC       13.0760   37.6470  -14.5130 C.3   142  HEM142      0.0000
     31  CAC       13.5890   39.6110  -17.0980 C.2   142  HEM142      0.0000
     32  CBC       14.8120   39.6300  -16.5540 C.2   142  HEM142      0.0000
     33  ND         8.7340   41.9710  -16.6960 N.ar  142  HEM142      0.0000
     34  C1D        9.8240   41.9650  -17.5640 C.ar  142  HEM142      0.0000
     35  C2D        9.6560   43.0050  -18.5620 C.ar  142  HEM142      0.0000
     36  C3D        8.4920   43.6010  -18.3110 C.ar  142  HEM142      0.0000
     37  C4D        7.9190   42.9840  -17.1390 C.ar  142  HEM142      0.0000
     38  CMD       10.6730   43.3030  -19.6830 C.3   142  HEM142      0.0000
     39  CAD        7.8280   44.8010  -19.0390 C.3   142  HEM142      0.0000
     40  CBD        8.1470   46.1330  -18.3680 C.3   142  HEM142      0.0000
     41  CGD        7.7560   47.3870  -19.0770 C.2   142  HEM142      0.0000
     42  O1D        7.2650   48.3200  -18.3910 O.co2 142  HEM142      0.0000
     43  O2D        7.9570   47.3930  -20.3140 O.co2 142  HEM142      0.0000
@<TRIPOS>BOND
     1    43    41   ar
     2    38    35    1
     3    41    42   ar
     4    41    40    1
     5    39    40    1
     6    39    36    1
     7    35    36   ar
     8    35    34   ar
     9    36    37   ar
    10    34     5    2
    11    34    33   ar
    12     5    29    1
    13    16    14   ar
    14    37    33   ar
    15    37     2    2
    16    31    32    2
    17    31    28    1
    18    33     1    1
    19     2     7    1
    20    29    28    1
    21    29    25    2
    22    14    13    1
    23    14    15   ar
    24    28    27    2
    25    13    12    1
    26    25     1    1
    27    25    26    1
    28     7     6    2
    29     7     8    1
    30     1     6    1
    31     1    17    1
    32    27    26    1
    33    27    30    1
    34    12     8    1
    35    26     4    2
    36     6    10    1
    37     8     9    2
    38     4    21    1
    39     9    10    1
    40     9    11    1
    41    10     3    2
    42    17    21   ar
    43    17    18   ar
    44    21    20   ar
    45     3    18    1
    46    18    19   ar
    47    20    19   ar
    48    20    23    1
    49    19    22    1
    50    23    24    2
