@<TRIPOS>MOLECULE
1y4r_HEM_A_1.pdb
 43 50 0 0 0
SMALL
GASTEIGER

@<TRIPOS>ATOM
      1 FE          8.2530   40.6270  -15.3980 Fe    142  HEM142      0.0000
      2  CHA        6.7190   43.3940  -16.6810 C.2   142  HEM142      0.0000
      3  CHB        6.1770   40.8090  -12.6310 C.2   142  HEM142      0.0000
      4  CHC       10.1920   38.3040  -13.7160 C.2   142  HEM142      0.0000
      5  CHD       10.9010   41.1480  -17.5980 C.2   142  HEM142      0.0000
      6  NA         6.7750   41.8670  -14.7620 N.2   142  HEM142      0.0000
      7  C1A        6.2630   42.9220  -15.4670 C.2   142  HEM142      0.0000
      8  C2A        5.1660   43.4850  -14.7250 C.2   142  HEM142      0.0000
      9  C3A        4.9860   42.7670  -13.6270 C.2   142  HEM142      0.0000
     10  C4A        6.0000   41.7420  -13.6210 C.2   142  HEM142      0.0000
     11  CMA        3.9520   42.9610  -12.4980 C.3   142  HEM142      0.0000
     12  CAA        4.3740   44.6900  -15.2740 C.3   142  HEM142      0.0000
     13  CBA        3.2110   44.2790  -16.2030 C.3   142  HEM142      0.0000
     14  CGA        2.2590   45.4520  -16.3850 C.2   142  HEM142      0.0000
     15  O1A        1.2650   45.4610  -15.6160 O.co2 142  HEM142      0.0000
     16  O2A        2.5930   46.2990  -17.2560 O.co2 142  HEM142      0.0000
     17  NB         8.2100   39.7560  -13.5430 N.ar  142  HEM142      0.0000
     18  C1B        7.2700   39.9650  -12.5650 C.ar  142  HEM142      0.0000
     19  C2B        7.5670   39.1130  -11.4230 C.ar  142  HEM142      0.0000
     20  C3B        8.6630   38.4170  -11.7120 C.ar  142  HEM142      0.0000
     21  C4B        9.0870   38.8120  -13.0460 C.ar  142  HEM142      0.0000
     22  CMB        6.6950   39.1180  -10.1560 C.3   142  HEM142      0.0000
     23  CAB        9.4520   37.3950  -10.8660 C.2   142  HEM142      0.0000
     24  CBB        8.8850   36.6380   -9.9480 C.2   142  HEM142      0.0000
     25  NC        10.1350   39.8470  -15.6580 N.2   142  HEM142      0.0000
     26  C1C       10.7600   38.9160  -14.8270 C.2   142  HEM142      0.0000
     27  C2C       12.1070   38.6900  -15.2930 C.2   142  HEM142      0.0000
     28  C3C       12.2980   39.4760  -16.3560 C.2   142  HEM142      0.0000
     29  C4C       11.0790   40.2210  -16.5870 C.2   142  HEM142      0.0000
     30  CMC       13.0780   37.6920  -14.6240 C.3   142  HEM142      0.0000
     31  CAC       13.5730   39.6270  -17.2200 C.2   142  HEM142      0.0000
     32  CBC       14.7710   39.5330  -16.6320 C.2   142  HEM142      0.0000
     33  ND         8.7280   42.0180  -16.8210 N.ar  142  HEM142      0.0000
     34  C1D        9.8230   42.0070  -17.6850 C.ar  142  HEM142      0.0000
     35  C2D        9.6580   43.0480  -18.6910 C.ar  142  HEM142      0.0000
     36  C3D        8.4980   43.6430  -18.4450 C.ar  142  HEM142      0.0000
     37  C4D        7.9190   43.0380  -17.2630 C.ar  142  HEM142      0.0000
     38  CMD       10.6920   43.3390  -19.7990 C.3   142  HEM142      0.0000
     39  CAD        7.8290   44.8400  -19.1760 C.3   142  HEM142      0.0000
     40  CBD        8.1760   46.1710  -18.4930 C.3   142  HEM142      0.0000
     41  CGD        7.7430   47.4210  -19.1770 C.2   142  HEM142      0.0000
     42  O1D        7.2570   48.3360  -18.4540 O.co2 142  HEM142      0.0000
     43  O2D        7.9200   47.4460  -20.4260 O.co2 142  HEM142      0.0000
@<TRIPOS>BOND
     1    43    41   ar
     2    38    35    1
     3    41    40    1
     4    41    42   ar
     5    39    40    1
     6    39    36    1
     7    35    36   ar
     8    35    34   ar
     9    36    37   ar
    10    34     5    2
    11    34    33   ar
    12     5    29    1
    13    37    33   ar
    14    37     2    2
    15    16    14   ar
    16    31    32    2
    17    31    28    1
    18    33     1    1
    19     2     7    1
    20    29    28    1
    21    29    25    2
    22    14    13    1
    23    14    15   ar
    24    28    27    2
    25    13    12    1
    26    25     1    1
    27    25    26    1
    28     7     6    2
    29     7     8    1
    30     1     6    1
    31     1    17    1
    32    27    26    1
    33    27    30    1
    34    12     8    1
    35    26     4    2
    36     6    10    1
    37     8     9    2
    38     4    21    1
    39     9    10    1
    40     9    11    1
    41    10     3    2
    42    17    21   ar
    43    17    18   ar
    44    21    20   ar
    45     3    18    1
    46    18    19   ar
    47    20    19   ar
    48    20    23    1
    49    19    22    1
    50    23    24    2
