@<TRIPOS>MOLECULE
1y4s_ADP_A_1.pdb
 27 29 0 0 0
SMALL
GASTEIGER

@<TRIPOS>ATOM
      1  PB        21.3900   19.8370   17.8670 P.3   701  ADP701      0.5373
      2  O1B       22.5330   19.9600   16.9240 O.2   701  ADP701     -0.2221
      3  O2B       21.4770   18.5410   18.5950 O.3   701  ADP701     -0.1143
      4  O3B       21.4230   20.9810   18.8380 O.3   701  ADP701     -0.1143
      5  PA        20.1730   20.8900   15.7960 P.3   701  ADP701      0.2231
      6  O1A       21.2960   21.8480   16.0090 O.3   701  ADP701     -0.4370
      7  O2A       18.8980   21.6340   15.5830 O.2   701  ADP701     -0.5169
      8  O3A       20.0110   19.8970   17.0540 O.3   701  ADP701     -0.2261
      9  O5'       20.4930   20.0160   14.4950 O.3   701  ADP701     -0.3111
     10  C5'       19.6470   18.9360   14.1170 C.3   701  ADP701      0.1813
     11  C4'       20.4130   17.6320   14.1280 C.3   701  ADP701      0.1821
     12  O4'       20.7340   17.2470   12.7640 O.3   701  ADP701     -0.3135
     13  C3'       21.7330   17.6080   14.8860 C.3   701  ADP701      0.2184
     14  O3'       21.5120   17.1960   16.2380 O.3   701  ADP701     -0.2174
     15  C2'       22.5320   16.5580   14.1240 C.3   701  ADP701      0.2570
     16  O2'       22.1120   15.2640   14.4900 O.3   701  ADP701     -0.2130
     17  C1'       22.0750   16.8080   12.6930 C.3   701  ADP701      0.3186
     18  N9        22.8350   17.8080   11.9320 N.pl3 701  ADP701     -0.1439
     19  C8        22.6190   19.1580   11.8400 C.3   701  ADP701      0.3377
     20  N7        23.4650   19.7780   11.0420 N.2   701  ADP701     -0.2095
     21  C5        24.3000   18.7520   10.5980 C.2   701  ADP701      0.2526
     22  C6        25.4220   18.7570    9.7430 C.2   701  ADP701      0.4393
     23  N6        25.9080   19.8430    9.1650 N.pl3 701  ADP701      0.2180
     24  N1        26.0340   17.5660    9.5070 N.2   701  ADP701      0.0021
     25  C2        25.5420   16.4610   10.0860 C.3   701  ADP701      0.5254
     26  N3        24.4940   16.3420   10.9110 N.2   701  ADP701     -0.0055
     27  C4        23.9190   17.5400   11.1330 C.2   701  ADP701      0.3518
@<TRIPOS>BOND
     1    23    22    1
     2    24    22    2
     3    24    25    1
     4    22    21    1
     5    25    26    1
     6    21    20    2
     7    21    27    1
     8    26    27    2
     9    20    19    1
    10    27    18    1
    11    19    18    1
    12    18    17    1
    13    17    12    1
    14    17    15    1
    15    12    11    1
    16    10    11    1
    17    10     9    1
    18    15    16    1
    19    15    13    1
    20    11    13    1
    21     9     5    1
    22    13    14    1
    23     7     5    2
    24     5     6    1
    25     5     8    1
    26     2     1    2
    27     8     1    1
    28     1     3    1
    29     1     4    1
