@<TRIPOS>MOLECULE
1y4v_HEM_A_1.pdb
 43 50 0 0 0
SMALL
GASTEIGER

@<TRIPOS>ATOM
      1 FE          8.1700   40.5330  -15.2270 Fe    142  HEM142      0.0000
      2  CHA        6.6100   43.2700  -16.5430 C.2   142  HEM142      0.0000
      3  CHB        6.0640   40.6570  -12.5000 C.2   142  HEM142      0.0000
      4  CHC       10.0780   38.1470  -13.5860 C.2   142  HEM142      0.0000
      5  CHD       10.8030   41.0020  -17.4780 C.2   142  HEM142      0.0000
      6  NA         6.6550   41.7420  -14.6230 N.2   142  HEM142      0.0000
      7  C1A        6.1490   42.7990  -15.3230 C.2   142  HEM142      0.0000
      8  C2A        5.0410   43.3390  -14.5980 C.2   142  HEM142      0.0000
      9  C3A        4.8610   42.6180  -13.4990 C.2   142  HEM142      0.0000
     10  C4A        5.8670   41.5970  -13.4890 C.2   142  HEM142      0.0000
     11  CMA        3.8110   42.8120  -12.3680 C.3   142  HEM142      0.0000
     12  CAA        4.2590   44.5520  -15.1430 C.3   142  HEM142      0.0000
     13  CBA        3.0740   44.2010  -16.0470 C.3   142  HEM142      0.0000
     14  CGA        2.1530   45.3960  -16.2480 C.2   142  HEM142      0.0000
     15  O1A        1.1520   45.4270  -15.4900 O.co2 142  HEM142      0.0000
     16  O2A        2.4940   46.2350  -17.1190 O.co2 142  HEM142      0.0000
     17  NB         8.0850   39.5960  -13.4060 N.ar  142  HEM142      0.0000
     18  C1B        7.1580   39.7980  -12.4170 C.ar  142  HEM142      0.0000
     19  C2B        7.4430   38.9230  -11.2990 C.ar  142  HEM142      0.0000
     20  C3B        8.5330   38.2260  -11.5920 C.ar  142  HEM142      0.0000
     21  C4B        8.9630   38.6410  -12.9300 C.ar  142  HEM142      0.0000
     22  CMB        6.5440   38.8900  -10.0380 C.3   142  HEM142      0.0000
     23  CAB        9.3490   37.1840  -10.8190 C.2   142  HEM142      0.0000
     24  CBB        8.9480   36.4750   -9.7960 C.2   142  HEM142      0.0000
     25  NC        10.0310   39.7050  -15.5200 N.2   142  HEM142      0.0000
     26  C1C       10.6430   38.7560  -14.7100 C.2   142  HEM142      0.0000
     27  C2C       11.9820   38.5240  -15.1820 C.2   142  HEM142      0.0000
     28  C3C       12.1960   39.3220  -16.2380 C.2   142  HEM142      0.0000
     29  C4C       10.9840   40.0890  -16.4510 C.2   142  HEM142      0.0000
     30  CMC       12.9330   37.5150  -14.5170 C.3   142  HEM142      0.0000
     31  CAC       13.4610   39.4680  -17.0990 C.2   142  HEM142      0.0000
     32  CBC       14.6860   39.4580  -16.5390 C.2   142  HEM142      0.0000
     33  ND         8.6240   41.8740  -16.6930 N.ar  142  HEM142      0.0000
     34  C1D        9.7080   41.8410  -17.5630 C.ar  142  HEM142      0.0000
     35  C2D        9.5500   42.8760  -18.5670 C.ar  142  HEM142      0.0000
     36  C3D        8.3960   43.4930  -18.3180 C.ar  142  HEM142      0.0000
     37  C4D        7.8130   42.8950  -17.1270 C.ar  142  HEM142      0.0000
     38  CMD       10.5810   43.1450  -19.6830 C.3   142  HEM142      0.0000
     39  CAD        7.7210   44.6930  -19.0370 C.3   142  HEM142      0.0000
     40  CBD        8.1140   46.0320  -18.3980 C.3   142  HEM142      0.0000
     41  CGD        7.6550   47.2890  -19.0660 C.2   142  HEM142      0.0000
     42  O1D        7.1190   48.1700  -18.3390 O.co2 142  HEM142      0.0000
     43  O2D        7.8410   47.3690  -20.3000 O.co2 142  HEM142      0.0000
@<TRIPOS>BOND
     1    43    41   ar
     2    38    35    1
     3    41    40    1
     4    41    42   ar
     5    39    40    1
     6    39    36    1
     7    35    36   ar
     8    35    34   ar
     9    36    37   ar
    10    34     5    2
    11    34    33   ar
    12     5    29    1
    13    37    33   ar
    14    37     2    2
    15    16    14   ar
    16    31    32    2
    17    31    28    1
    18    33     1    1
    19     2     7    1
    20    29    28    1
    21    29    25    2
    22    14    13    1
    23    14    15   ar
    24    28    27    2
    25    13    12    1
    26    25     1    1
    27    25    26    1
    28     7     6    2
    29     7     8    1
    30     1     6    1
    31     1    17    1
    32    27    26    1
    33    27    30    1
    34    12     8    1
    35    26     4    2
    36     6    10    1
    37     8     9    2
    38     4    21    1
    39     9    10    1
    40     9    11    1
    41    10     3    2
    42    17    21   ar
    43    17    18   ar
    44    21    20   ar
    45     3    18    1
    46    18    19   ar
    47    20    19   ar
    48    20    23    1
    49    19    22    1
    50    23    24    2
