@<TRIPOS>MOLECULE
1y4z_HEM_C_1.pdb
 43 50 0 0 0
SMALL
GASTEIGER

@<TRIPOS>ATOM
      1 FE       -147.6130  -13.4750  -13.5640 Fe    806  HEM806      0.0000
      2  CHA     -145.1100  -15.6610  -13.9960 C.2   806  HEM806      0.0000
      3  CHB     -149.4630  -15.8770  -11.9580 C.2   806  HEM806      0.0000
      4  CHC     -150.1370  -11.2160  -13.1540 C.2   806  HEM806      0.0000
      5  CHD     -145.8420  -11.0800  -15.2520 C.2   806  HEM806      0.0000
      6  NA      -147.3280  -15.3910  -13.0800 N.2   806  HEM806      0.0000
      7  C1A     -146.2170  -16.1340  -13.3400 C.2   806  HEM806      0.0000
      8  C2A     -146.4190  -17.4710  -12.8180 C.2   806  HEM806      0.0000
      9  C3A     -147.6270  -17.5410  -12.2570 C.2   806  HEM806      0.0000
     10  C4A     -148.2110  -16.2260  -12.4120 C.2   806  HEM806      0.0000
     11  CMA     -148.3660  -18.7270  -11.5610 C.3   806  HEM806      0.0000
     12  CAA     -145.3930  -18.5620  -12.9390 C.3   806  HEM806      0.0000
     13  CBA     -144.3220  -18.4570  -11.7820 C.3   806  HEM806      0.0000
     14  CGA     -143.4740  -19.7540  -11.6550 C.2   806  HEM806      0.0000
     15  O1A     -143.8680  -20.6290  -10.8380 O.co2 806  HEM806      0.0000
     16  O2A     -142.4760  -19.8460  -12.4330 O.co2 806  HEM806      0.0000
     17  NB      -149.4210  -13.5330  -12.7250 N.ar  806  HEM806      0.0000
     18  C1B     -150.0310  -14.6220  -12.1020 C.ar  806  HEM806      0.0000
     19  C2B     -151.3660  -14.2460  -11.6330 C.ar  806  HEM806      0.0000
     20  C3B     -151.5470  -12.9380  -11.9770 C.ar  806  HEM806      0.0000
     21  C4B     -150.3420  -12.4880  -12.6510 C.ar  806  HEM806      0.0000
     22  CMB     -152.3490  -15.2350  -10.8890 C.3   806  HEM806      0.0000
     23  CAB     -152.7980  -12.0410  -11.7340 C.2   806  HEM806      0.0000
     24  CBB     -153.5650  -12.0800  -10.6110 C.2   806  HEM806      0.0000
     25  NC      -147.9210  -11.5170  -14.0900 N.2   806  HEM806      0.0000
     26  C1C     -149.0330  -10.7490  -13.8210 C.2   806  HEM806      0.0000
     27  C2C     -148.8500   -9.3990  -14.3480 C.2   806  HEM806      0.0000
     28  C3C     -147.6390   -9.3830  -14.9460 C.2   806  HEM806      0.0000
     29  C4C     -147.0740  -10.7080  -14.7760 C.2   806  HEM806      0.0000
     30  CMC     -149.9310   -8.2550  -14.1970 C.3   806  HEM806      0.0000
     31  CAC     -146.8350   -8.2670  -15.7080 C.2   806  HEM806      0.0000
     32  CBC     -147.4900   -7.5150  -16.6450 C.2   806  HEM806      0.0000
     33  ND      -145.8370  -13.3950  -14.4440 N.ar  806  HEM806      0.0000
     34  C1D     -145.2600  -12.3040  -15.1040 C.ar  806  HEM806      0.0000
     35  C2D     -143.9490  -12.6470  -15.6020 C.ar  806  HEM806      0.0000
     36  C3D     -143.7360  -13.9270  -15.2250 C.ar  806  HEM806      0.0000
     37  C4D     -144.9350  -14.3940  -14.5130 C.ar  806  HEM806      0.0000
     38  CMD     -142.9950  -11.6990  -16.3920 C.3   806  HEM806      0.0000
     39  CAD     -142.4820  -14.8560  -15.4380 C.3   806  HEM806      0.0000
     40  CBD     -141.2720  -14.5410  -14.4760 C.3   806  HEM806      0.0000
     41  CGD     -139.9780  -15.2950  -14.8510 C.2   806  HEM806      0.0000
     42  O1D     -139.6590  -16.2660  -14.0960 O.co2 806  HEM806      0.0000
     43  O2D     -139.3480  -14.8620  -15.8750 O.co2 806  HEM806      0.0000
@<TRIPOS>BOND
     1    32    31    2
     2    38    35    1
     3    43    41   ar
     4    31    28    1
     5    35    36   ar
     6    35    34   ar
     7    39    36    1
     8    39    40    1
     9     5    34    2
    10     5    29    1
    11    36    37   ar
    12    34    33   ar
    13    28    29    1
    14    28    27    2
    15    41    40    1
    16    41    42   ar
    17    29    25    2
    18    37    33   ar
    19    37     2    2
    20    33     1    1
    21    27    30    1
    22    27    26    1
    23    25    26    1
    24    25     1    1
    25     2     7    1
    26    26     4    2
    27     1     6    1
    28     1    17    1
    29     7     6    2
    30     7     8    1
    31     4    21    1
    32     6    10    1
    33    12     8    1
    34    12    13    1
    35     8     9    2
    36    17    21   ar
    37    17    18   ar
    38    21    20   ar
    39    16    14   ar
    40    10     9    1
    41    10     3    2
    42     9    11    1
    43    18     3    1
    44    18    19   ar
    45    20    23    1
    46    20    19   ar
    47    13    14    1
    48    23    24    2
    49    14    15   ar
    50    19    22    1
