@<TRIPOS>MOLECULE
1y4z_PCI_C_1.pdb
 12 12 0 0 0
SMALL
GASTEIGER

@<TRIPOS>ATOM
      1  O1      -149.6340    4.3930  -10.3700 O.3   1808  PCI1808    -0.2847
      2  C1      -150.6070    5.3880  -10.2230 C.ar  1808  PCI1808     0.2182
      3  C2      -151.2130    5.5430   -8.9180 C.ar  1808  PCI1808     0.1087
      4 CL1      -150.7720    4.6600   -7.8710 Cl    1808  PCI1808    -0.0780
      5  C3      -152.2480    6.5980   -8.7160 C.ar  1808  PCI1808     0.0827
      6 CL2      -152.8580    6.7720   -7.4240 Cl    1808  PCI1808    -0.0803
      7  C4      -152.6400    7.4720   -9.8790 C.ar  1808  PCI1808     0.0806
      8 CL3      -153.6310    8.4940   -9.7000 Cl    1808  PCI1808    -0.0804
      9  C5      -151.9990    7.2820  -11.2240 C.ar  1808  PCI1808     0.0827
     10 CL4      -152.3670    8.1090  -12.3500 Cl    1808  PCI1808    -0.0803
     11  C6      -150.9720    6.2300  -11.3820 C.ar  1808  PCI1808     0.1087
     12 CL5      -150.3140    5.9970  -12.6230 Cl    1808  PCI1808    -0.0780
@<TRIPOS>BOND
     1    12    11    1
     2    10     9    1
     3    11     9   ar
     4    11     2   ar
     5     9     7   ar
     6     1     2    1
     7     2     3   ar
     8     7     8    1
     9     7     5   ar
    10     3     5   ar
    11     3     4    1
    12     5     6    1
