@<TRIPOS>MOLECULE
1y4z_MD1_A_1.pdb
 47 51 0 0 0
SMALL
GASTEIGER

@<TRIPOS>ATOM
      1  PB      -124.5490  -63.4940  -24.0810 P.3   1800  MD11800     0.2189
      2  O3B     -125.8300  -62.5310  -23.9050 O.3   1800  MD11800    -0.2703
      3  O1B     -124.9010  -64.5990  -24.9720 O.2   1800  MD11800    -0.5170
      4  O2B     -123.3970  -62.7150  -24.4300 O.3   1800  MD11800    -0.4371
      5  O3A     -124.3160  -64.1530  -22.6560 O.3   1800  MD11800    -0.3108
      6  C10     -125.2420  -64.9980  -21.9860 C.3   1800  MD11800     0.1870
      7  C11     -124.3450  -65.5740  -20.8720 C.3   1800  MD11800     0.2107
      8  O11     -123.9100  -64.3940  -20.1370 O.3   1800  MD11800    -0.2150
      9  C12     -125.1470  -66.5350  -19.9030 C.2   1800  MD11800     0.0503
     10  S12     -126.7140  -67.1860  -20.3630 S.3   1800  MD11800    -0.0525
     11  C13     -124.6900  -66.9420  -18.6110 C.2   1800  MD11800     0.0425
     12  S13     -125.7770  -67.9260  -17.6710 S.3   1800  MD11800    -0.0531
     13  C14     -123.3730  -66.6350  -17.9070 C.3   1800  MD11800     0.1588
     14  N15     -123.7250  -65.9720  -16.6580 N.2   1800  MD11800    -0.2437
     15  C16     -122.6650  -65.5000  -15.8740 C.2   1800  MD11800     0.2466
     16  C15     -122.7830  -65.3340  -14.4690 C.1   1800  MD11800     0.2441
     17  O14     -123.8290  -65.6330  -13.8990 O.2   1800  MD11800    -0.2063
     18  N17     -121.6290  -64.8000  -13.7820 N.2   1800  MD11800    -0.2474
     19  C17     -120.4160  -64.4470  -14.4430 C.1   1800  MD11800     0.2608
     20  N16     -119.3950  -63.9560  -13.7730 N.pl3 1800  MD11800    -0.0220
     21  N18     -120.3290  -64.6290  -15.7780 N.2   1800  MD11800    -0.2683
     22  C20     -121.3630  -65.1300  -16.5190 C.1   1800  MD11800     0.1270
     23  N8      -121.1840  -65.2770  -17.8790 N.2   1800  MD11800    -0.2051
     24  C7      -122.3160  -65.8090  -18.6710 C.3   1800  MD11800     0.1666
     25  PA      -126.0340  -60.9590  -23.9860 P.3   1800  MD11800     0.2189
     26  O1A     -125.1280  -60.2830  -23.0290 O.3   1800  MD11800    -0.4371
     27  O2A     -127.4820  -60.7880  -23.8030 O.2   1800  MD11800    -0.5170
     28  O5'     -125.5390  -60.8050  -25.5230 O.3   1800  MD11800    -0.3112
     29  C5'     -126.4730  -60.6180  -26.6010 C.3   1800  MD11800     0.1813
     30  C4'     -125.8620  -59.7570  -27.6690 C.3   1800  MD11800     0.1799
     31  O4'     -126.4330  -60.1280  -28.9190 O.3   1800  MD11800    -0.3326
     32  C1'     -127.0830  -58.9860  -29.5280 C.3   1800  MD11800     0.2293
     33  N9      -128.2400  -59.5590  -30.2230 N.pl3 1800  MD11800    -0.2354
     34  C4      -128.2260  -59.9940  -31.5640 C.2   1800  MD11800     0.2300
     35  N3      -127.1540  -59.9670  -32.4710 N.2   1800  MD11800    -0.3074
     36  C2      -127.4040  -60.4610  -33.7010 C.1   1800  MD11800     0.2531
     37  N2      -126.4660  -60.5000  -34.6330 N.pl3 1800  MD11800    -0.0226
     38  N1      -128.6720  -60.9660  -34.0360 N.2   1800  MD11800    -0.2485
     39  C6      -129.7790  -61.0070  -33.1320 C.1   1800  MD11800     0.2372
     40  O6      -130.8820  -61.4780  -33.4780 O.2   1800  MD11800    -0.2069
     41  C5      -129.5080  -60.4790  -31.8140 C.2   1800  MD11800     0.2182
     42  N7      -130.3080  -60.3520  -30.6790 N.2   1800  MD11800    -0.2322
     43  C8      -129.5300  -59.8210  -29.7870 C.3   1800  MD11800     0.2246
     44  C2'     -127.3970  -58.0260  -28.3350 C.3   1800  MD11800     0.2310
     45  O2'     -127.5480  -56.6440  -28.6710 O.3   1800  MD11800    -0.2158
     46  C3'     -126.1750  -58.2780  -27.4120 C.3   1800  MD11800     0.2158
     47  O3'     -125.0600  -57.4520  -27.6580 O.3   1800  MD11800    -0.2175
@<TRIPOS>BOND
     1    37    36    1
     2    38    36    2
     3    38    39    2
     4    36    35    2
     5    40    39    2
     6    39    41    1
     7    35    34    2
     8    41    34    1
     9    41    42    2
    10    34    33    1
    11    42    43    1
    12    33    43    1
    13    33    32    1
    14    32    31    1
    15    32    44    1
    16    31    30    1
    17    45    44    1
    18    44    46    1
    19    30    46    1
    20    30    29    1
    21    47    46    1
    22    29    28    1
    23    28    25    1
    24     3     1    2
    25     4     1    1
    26     1     2    1
    27     1     5    1
    28    25     2    1
    29    25    27    2
    30    25    26    1
    31     5     6    1
    32     6     7    1
    33     7     8    1
    34     7     9    1
    35    10     9    1
    36     9    11    2
    37    24    13    1
    38    24    23    1
    39    11    13    1
    40    11    12    1
    41    13    14    1
    42    23    22    2
    43    14    15    2
    44    22    15    1
    45    22    21    2
    46    15    16    1
    47    21    19    2
    48    16    17    2
    49    16    18    2
    50    19    18    2
    51    19    20    1
