@<TRIPOS>MOLECULE
1y52_BTN_X_1.pdb
 16 17 0 0 0
SMALL
GASTEIGER

@<TRIPOS>ATOM
      1  C11       55.0720    2.4940   30.6250 C.2   801  BTN801      0.3649
      2  O11       55.6530    2.0840   31.8300 O.co2 801  BTN801     -0.2457
      3  O12       53.7740    2.7180   30.5690 O.co2 801  BTN801     -0.2457
      4  C10       55.8400    2.7380   29.3630 C.3   801  BTN801      0.1141
      5  C9        57.2670    2.2480   29.4120 C.3   801  BTN801      0.0118
      6  C8        58.2230    3.2600   30.0530 C.3   801  BTN801      0.0015
      7  C7        59.6640    2.7450   30.0070 C.3   801  BTN801      0.0129
      8  C2        60.6720    3.8150   30.4620 C.3   801  BTN801      0.0729
      9  S1        60.9440    5.0690   29.3360 S.3   801  BTN801     -0.1369
     10  C6        62.3490    5.6420   30.3310 C.3   801  BTN801      0.0848
     11  C5        63.0500    4.3800   30.8430 C.3   801  BTN801      0.1509
     12  N1        64.0970    3.9850   29.9200 N.2   801  BTN801     -0.1859
     13  C3        63.7290    2.7740   29.4070 C.1   801  BTN801      0.2386
     14  O3        64.4930    2.0700   28.5190 O.2   801  BTN801     -0.2023
     15  N2        62.5670    2.3170   29.8690 N.2   801  BTN801     -0.1860
     16  C4        62.0300    3.2560   30.8410 C.3   801  BTN801      0.1500
@<TRIPOS>BOND
     1    14    13    2
     2     9    10    1
     3     9     8    1
     4     4     5    1
     5     4     1    1
     6    13    15    2
     7    13    12    2
     8     5     6    1
     9    15    16    1
    10    12    11    1
    11     7     6    1
    12     7     8    1
    13    10    11    1
    14     8    16    1
    15     3     1   ar
    16     1     2   ar
    17    16    11    1
