@<TRIPOS>MOLECULE
1y54_FDT_A_1.pdb
 18 19 0 0 0
SMALL
GASTEIGER

@<TRIPOS>ATOM
      1  C1        14.0260   28.1030   22.4920 C.3   400  FDT400      0.1343
      2  C2        14.1150   27.6520   23.7860 C.3   400  FDT400      0.1044
      3  C3        12.9780   26.7530   23.9820 C.2   400  FDT400      0.2102
      4  C5        14.9080   28.0890   24.9060 C.3   400  FDT400      0.0962
      5  S6        14.6600   29.7130   25.7180 S.3   400  FDT400     -0.1281
      6  O7        12.2280   26.5950   23.0120 O.2   400  FDT400     -0.2882
      7  N8        14.9710   29.4260   22.3000 N.2   400  FDT400     -0.2668
      8  C9        14.6040   30.3400   23.2690 C.2   400  FDT400      0.1440
      9  C10       16.4290   27.9780   24.6700 C.2   400  FDT400      0.0851
     10  C11       15.3690   30.8280   24.3610 C.3   400  FDT400      0.1099
     11  C12       13.2120   30.7870   23.3170 C.2   400  FDT400      0.4015
     12  O13       12.4090   30.3870   22.4240 O.co2 400  FDT400     -0.2392
     13  C14       17.1200   27.4610   23.6090 C.3   400  FDT400      0.1390
     14  O15       12.8550   31.5490   24.1780 O.co2 400  FDT400     -0.2392
     15  N16       17.2710   28.4850   25.6990 N.2   400  FDT400     -0.1531
     16  N17       18.4890   28.2430   25.1970 N.pl3 400  FDT400     -0.0631
     17  N18       18.4970   27.6540   23.9950 N.3   400  FDT400     -0.1619
     18  C19       19.6230   27.2520   23.1650 C.3   400  FDT400      0.1150
@<TRIPOS>BOND
     1     7     1    1
     2     7     8    2
     3    12    11   ar
     4     1     2    1
     5     6     3    2
     6    18    17    1
     7     8    11    1
     8     8    10    1
     9    11    14   ar
    10    13    17    1
    11    13     9    1
    12     2     3    1
    13     2     4    1
    14    17    16    1
    15    10     5    1
    16     9     4    1
    17     9    15    2
    18     4     5    1
    19    16    15    1
