@<TRIPOS>MOLECULE
1y55_BTN_X_1.pdb
 16 17 0 0 0
SMALL
GASTEIGER

@<TRIPOS>ATOM
      1  C11       29.8650   57.0160   11.4980 C.2   801  BTN801      0.3649
      2  O11       30.0210   58.1140   12.2960 O.co2 801  BTN801     -0.2457
      3  O12       30.8440   56.5530   10.7880 O.co2 801  BTN801     -0.2457
      4  C10       28.5830   56.3140   11.4030 C.3   801  BTN801      0.1141
      5  C9        27.4020   57.0450   11.9950 C.3   801  BTN801      0.0118
      6  C8        27.2260   56.7510   13.4820 C.3   801  BTN801      0.0015
      7  C7        26.0100   57.4890   14.0540 C.3   801  BTN801      0.0129
      8  C2        25.6740   57.0800   15.5150 C.3   801  BTN801      0.0729
      9  S1        25.0210   55.4470   15.7100 S.3   801  BTN801     -0.1369
     10  C6        24.6730   55.8400   17.4350 C.3   801  BTN801      0.0848
     11  C5        24.1140   57.2610   17.4210 C.3   801  BTN801      0.1509
     12  N1        22.6820   57.3110   17.1920 N.2   801  BTN801     -0.1859
     13  C3        22.4090   57.9140   16.0470 C.1   801  BTN801      0.2386
     14  O3        21.1780   58.0860   15.5960 O.2   801  BTN801     -0.2023
     15  N2        23.4990   58.3170   15.4260 N.2   801  BTN801     -0.1860
     16  C4        24.6860   58.0220   16.2130 C.3   801  BTN801      0.1500
@<TRIPOS>BOND
     1     3     1   ar
     2     4     1    1
     3     4     5    1
     4     1     2   ar
     5     5     6    1
     6     6     7    1
     7     7     8    1
     8    15    13    2
     9    15    16    1
    10     8     9    1
    11     8    16    1
    12    14    13    2
    13     9    10    1
    14    13    12    2
    15    16    11    1
    16    12    11    1
    17    11    10    1
