@<TRIPOS>MOLECULE
1y56_ATP_A_1.pdb
 31 33 0 0 0
SMALL
GASTEIGER

@<TRIPOS>ATOM
      1  PG       103.2060   77.4770   48.2100 P.3   801  ATP801      0.5373
      2  O1G      103.6680   76.1750   47.6290 O.2   801  ATP801     -0.2221
      3  O2G      103.3080   77.5450   49.7210 O.3   801  ATP801     -0.1143
      4  O3G      101.8820   77.9890   47.7000 O.3   801  ATP801     -0.1143
      5  PB       105.0140   78.5560   46.2200 P.3   801  ATP801      0.2277
      6  O1B      106.4360   78.0860   46.4290 O.3   801  ATP801     -0.4368
      7  O2B      104.7020   79.8750   45.5680 O.2   801  ATP801     -0.5168
      8  O3B      104.2770   78.5710   47.6590 O.3   801  ATP801     -0.2258
      9  PA       102.9270   77.3710   44.5950 P.3   801  ATP801      0.2189
     10  O1A      101.9000   78.1380   45.3760 O.3   801  ATP801     -0.4371
     11  O2A      102.6790   75.9160   44.2560 O.2   801  ATP801     -0.5170
     12  O3A      104.3350   77.3600   45.3790 O.3   801  ATP801     -0.2700
     13  O5'      103.1890   78.2150   43.2510 O.3   801  ATP801     -0.3112
     14  C5'      103.7570   77.5960   42.1000 C.3   801  ATP801      0.1813
     15  C4'      103.1750   78.2000   40.8330 C.3   801  ATP801      0.1821
     16  O4'      104.0910   78.0380   39.7480 O.3   801  ATP801     -0.3135
     17  C3'      101.9250   77.4480   40.4430 C.3   801  ATP801      0.2184
     18  O3'      100.9110   78.4340   40.3410 O.3   801  ATP801     -0.2174
     19  C2'      102.2370   76.8210   39.0930 C.3   801  ATP801      0.2570
     20  O2'      101.1420   76.8640   38.1680 O.3   801  ATP801     -0.2130
     21  C1'      103.3480   77.7100   38.5840 C.3   801  ATP801      0.3186
     22  N9       104.1770   77.0620   37.5410 N.pl3 801  ATP801     -0.1439
     23  C8       104.8770   75.9200   37.6380 C.3   801  ATP801      0.3377
     24  N7       105.4870   75.6720   36.4510 N.2   801  ATP801     -0.2095
     25  C5       105.1740   76.6790   35.6040 C.2   801  ATP801      0.2526
     26  C6       105.5080   76.9760   34.2830 C.2   801  ATP801      0.4393
     27  N6       106.3190   76.1660   33.5620 N.pl3 801  ATP801      0.2180
     28  N1       105.0050   78.0830   33.7260 N.2   801  ATP801      0.0021
     29  C2       104.1940   78.9090   34.4110 C.3   801  ATP801      0.5254
     30  N3       103.8470   78.6610   35.6820 N.2   801  ATP801     -0.0055
     31  C4       104.3360   77.5520   36.3010 C.2   801  ATP801      0.3518
@<TRIPOS>BOND
     1    27    26    1
     2    28    26    2
     3    28    29    1
     4    26    25    1
     5    29    30    1
     6    25    31    1
     7    25    24    2
     8    30    31    2
     9    31    22    1
    10    24    23    1
    11    22    23    1
    12    22    21    1
    13    20    19    1
    14    21    19    1
    15    21    16    1
    16    19    17    1
    17    16    15    1
    18    18    17    1
    19    17    15    1
    20    15    14    1
    21    14    13    1
    22    13     9    1
    23    11     9    2
    24     9    10    1
    25     9    12    1
    26    12     5    1
    27     7     5    2
    28     5     6    1
    29     5     8    1
    30     2     1    2
    31     8     1    1
    32     4     1    1
    33     1     3    1
