@<TRIPOS>MOLECULE
1y56_FMN_A_1.pdb
 31 33 0 0 0
SMALL
GASTEIGER

@<TRIPOS>ATOM
      1  N1       109.7510   60.6460   25.1990 N.2   802  FMN802     -0.2887
      2  C2       108.4920   60.9100   25.6200 C.1   802  FMN802      0.3669
      3  O2       108.3060   61.7370   26.5420 O.2   802  FMN802     -0.1744
      4  N3       107.4310   60.2970   25.0600 N.2   802  FMN802     -0.2300
      5  C4       107.6080   59.4030   24.0670 C.1   802  FMN802      0.2513
      6  O4       106.6170   58.8380   23.5560 O.2   802  FMN802     -0.2057
      7  C4A      108.9010   59.1110   23.6130 C.2   802  FMN802      0.2706
      8  N5       109.1120   58.2110   22.6140 N.2   802  FMN802     -0.3841
      9  C5A      110.3580   57.9120   22.1580 C.2   802  FMN802      0.1452
     10  C6       110.5120   56.9780   21.1270 C.2   802  FMN802      0.0252
     11  C7       111.7800   56.6500   20.6420 C.2   802  FMN802     -0.0375
     12  C7M      111.8790   55.6290   19.5280 C.3   802  FMN802      0.0268
     13  C8       112.9050   57.2730   21.2040 C.3   802  FMN802      0.0417
     14  C8M      114.2810   56.9770   20.7350 C.3   802  FMN802      0.0091
     15  C9       112.7530   58.2030   22.2360 C.2   802  FMN802     -0.0049
     16  C9A      111.4820   58.5330   22.7190 C.2   802  FMN802      0.0795
     17  N10      111.2870   59.4710   23.7690 N.pl3 802  FMN802     -0.2545
     18  C10      109.9800   59.7620   24.2110 C.2   802  FMN802      0.2449
     19  C1'      112.4030   60.1730   24.3820 C.3   802  FMN802      0.1340
     20  C2'      113.0110   59.3920   25.5170 C.3   802  FMN802      0.2094
     21  O2'      112.6510   60.0630   26.7380 O.3   802  FMN802     -0.2181
     22  C3'      114.5180   59.3180   25.2130 C.3   802  FMN802      0.2430
     23  O3'      115.0920   58.0590   25.6070 O.3   802  FMN802     -0.2122
     24  C4'      115.2530   60.4390   25.8750 C.2   802  FMN802      0.2136
     25  O4'      114.6380   61.4510   26.1890 O.2   802  FMN802     -0.2906
     26  C5'      116.7350   60.3030   26.1540 C.3   802  FMN802      0.2203
     27  O5'      116.9520   60.5370   27.5420 O.3   802  FMN802     -0.2621
     28  P        117.2430   62.0220   28.0970 P.3   802  FMN802      0.5330
     29  O1P      118.6730   62.2600   27.6860 O.3   802  FMN802     -0.1145
     30  O2P      117.0000   61.8980   29.5790 O.3   802  FMN802     -0.1145
     31  O3P      116.2760   62.9490   27.4180 O.2   802  FMN802     -0.2224
@<TRIPOS>BOND
     1    12    11    1
     2    11    10    2
     3    11    13    1
     4    14    13    1
     5    10     9    1
     6    13    15    1
     7     9     8    2
     8     9    16    1
     9    15    16    2
    10     8     7    2
    11    16    17    1
    12     6     5    2
    13     7     5    1
    14     7    18    1
    15    17    18    1
    16    17    19    1
    17     5     4    2
    18    18     1    2
    19    19    20    1
    20     4     2    2
    21     1     2    2
    22    22    20    1
    23    22    23    1
    24    22    24    1
    25    20    21    1
    26     2     3    2
    27    24    26    1
    28    24    25    2
    29    26    27    1
    30    31    28    2
    31    27    28    1
    32    29    28    1
    33    28    30    1
