@<TRIPOS>MOLECULE
1y57_MPZ_A_1.pdb
 36 40 0 0 0
SMALL
GASTEIGER

@<TRIPOS>ATOM
      1  O16       22.0730   35.1300   38.6680 O.2   600  MPZ600     -0.2680
      2  C15       20.9950   35.3360   39.2450 C.2   600  MPZ600      0.2690
      3  C14       20.2240   36.5780   38.9100 C.ar  600  MPZ600      0.0554
      4  C13       20.7990   37.4960   38.0020 C.ar  600  MPZ600      0.0043
      5  C12       20.1570   38.7040   37.6790 C.ar  600  MPZ600     -0.0028
      6  C11       18.9810   36.9540   39.5290 C.ar  600  MPZ600      0.0043
      7  C10       18.3360   38.1650   39.1950 C.ar  600  MPZ600     -0.0028
      8  C09       18.9200   39.0550   38.2640 C.ar  600  MPZ600     -0.0061
      9  C08       18.2320   40.3620   37.8870 C.3   600  MPZ600      0.0992
     10  N07       18.3290   40.5980   36.4350 N.3   600  MPZ600     -0.2665
     11  C06       17.8550   39.4450   35.6280 C.3   600  MPZ600      0.0899
     12  C05       18.1720   39.6900   34.1490 C.3   600  MPZ600      0.0897
     13  C04       17.6620   41.8550   36.0030 C.3   600  MPZ600      0.0899
     14  C03       17.9250   42.1120   34.5100 C.3   600  MPZ600      0.0897
     15  NP2       17.5460   40.9440   33.6630 N.3   600  MPZ600     -0.2691
     16  C01       17.8660   41.1570   32.2290 C.3   600  MPZ600      0.0897
     17  N17       20.4280   34.5480   40.1960 N.am  600  MPZ600     -0.1754
     18  C18       20.9690   33.4100   40.8000 C.ar  600  MPZ600      0.0750
     19  C19       22.3270   33.0360   40.9050 C.ar  600  MPZ600      0.0167
     20  C20       22.6940   31.8920   41.6330 C.ar  600  MPZ600      0.0027
     21  C21       21.7040   31.1370   42.2990 C.ar  600  MPZ600      0.0174
     22  C23       20.3450   31.5220   42.2140 C.ar  600  MPZ600      0.0839
     23  C22       20.0000   32.6560   41.4790 C.ar  600  MPZ600      0.0339
     24  N24       19.4430   30.7210   42.8950 N.pl3 600  MPZ600     -0.1357
     25  C25       18.0710   31.0040   43.0680 C.1   600  MPZ600      0.1696
     26  N26       17.4550   30.1080   43.8240 N.2   600  MPZ600     -0.1683
     27  C27       16.1240   30.2340   44.0800 C.2   600  MPZ600      0.1144
     28  C28       15.4140   31.2760   43.5880 C.2   600  MPZ600      0.0546
     29  C30       16.0670   32.1800   42.8390 C.2   600  MPZ600      0.1472
     30  N29       17.3940   32.0500   42.5690 N.2   600  MPZ600     -0.3361
     31  C31       15.3830   33.3380   42.2130 C.ar  600  MPZ600      0.0497
     32  C32       15.9950   33.9830   41.1340 C.ar  600  MPZ600      0.0057
     33  C36       15.3630   35.0670   40.5210 C.ar  600  MPZ600      0.0208
     34  C35       14.1280   35.4790   40.9920 C.ar  600  MPZ600      0.0989
     35  N34       13.5080   34.8720   42.0230 N.ar  600  MPZ600     -0.2422
     36  C33       14.1140   33.8210   42.6190 C.ar  600  MPZ600      0.1014
@<TRIPOS>BOND
     1    16    15    1
     2    15    12    1
     3    15    14    1
     4    12    11    1
     5    14    13    1
     6    11    10    1
     7    13    10    1
     8    10     9    1
     9     5     4   ar
    10     5     8   ar
    11     9     8    1
    12     4     3   ar
    13     8     7   ar
    14     1     2    2
    15     3     2    1
    16     3     6   ar
    17     7     6   ar
    18     2    17   am
    19    17    18    1
    20    33    34   ar
    21    33    32   ar
    22    18    19   ar
    23    18    23   ar
    24    19    20   ar
    25    34    35   ar
    26    32    31   ar
    27    23    22   ar
    28    20    21   ar
    29    35    36   ar
    30    31    36   ar
    31    31    29    1
    32    22    21   ar
    33    22    24    1
    34    30    29    2
    35    30    25    2
    36    29    28    1
    37    24    25    1
    38    25    26    2
    39    28    27    2
    40    26    27    1
