@<TRIPOS>MOLECULE
1y59_TL1_T_1.pdb
 28 31 0 0 0
SMALL
GASTEIGER

@<TRIPOS>ATOM
      1  N1        46.5760   18.4410   54.2010 N.pl3 350  TL1350      0.2047
      2  C1        45.7060   18.2680   53.2400 C.2   350  TL1350      0.4767
      3  N2        45.2300   16.9720   53.1270 N.pl3 350  TL1350      0.2047
      4  C2        45.1750   19.3240   52.3560 C.ar  350  TL1350      0.1005
      5  C3        44.6260   19.0400   51.0670 C.ar  350  TL1350      0.0082
      6  C4        44.1460   20.0650   50.2370 C.ar  350  TL1350      0.0034
      7  C5        44.1860   21.4320   50.6220 C.ar  350  TL1350      0.0369
      8  C6        44.7090   21.7290   51.9140 C.ar  350  TL1350      0.1389
      9  O1        44.6430   23.0270   52.4050 O.3   350  TL1350     -0.4740
     10  C7        43.8190   24.1560   51.8720 C.3   350  TL1350      0.2246
     11  C8        44.1720   25.5070   52.6140 C.3   350  TL1350      0.1882
     12  O2        42.9690   26.3240   52.4340 O.3   350  TL1350     -0.3459
     13  C9        41.8320   25.4570   52.2830 C.3   350  TL1350      0.1882
     14  C10       40.9920   25.5720   53.5940 C.3   350  TL1350      0.2246
     15  O3        39.5930   25.2000   53.3100 O.3   350  TL1350     -0.4740
     16  C11       38.6910   25.0890   54.3420 C.ar  350  TL1350      0.1389
     17  C12       37.7660   24.0180   54.2780 C.ar  350  TL1350      0.0369
     18  C13       36.7890   23.7880   55.2600 C.ar  350  TL1350      0.0034
     19  C14       36.7550   24.6860   56.3400 C.ar  350  TL1350      0.0082
     20  C15       37.6020   25.8110   56.3490 C.ar  350  TL1350      0.1005
     21  C16       37.6550   26.6920   57.5720 C.2   350  TL1350      0.4767
     22  N3        38.8150   27.1490   57.9820 N.pl3 350  TL1350      0.2047
     23  N4        36.4660   26.9800   58.1920 N.pl3 350  TL1350      0.2047
     24  C17       38.7270   25.9520   55.4500 C.ar  350  TL1350      0.0449
     25  C18       41.7040   24.5710   54.5370 C.3   350  TL1350      0.1882
     26  O4        42.2240   23.5040   53.6420 O.3   350  TL1350     -0.3459
     27  C19       42.3080   23.9950   52.2740 C.3   350  TL1350      0.1882
     28  C20       45.2540   20.6900   52.7450 C.ar  350  TL1350      0.0449
@<TRIPOS>BOND
     1     6     7   ar
     2     6     5   ar
     3     7     8   ar
     4     5     4   ar
     5    10    27    1
     6    10     9    1
     7    10    11    1
     8     8     9    1
     9     8    28   ar
    10    27    13    1
    11    27    26    1
    12    13    12    1
    13    13    14    1
    14     4    28   ar
    15     4     2    1
    16    12    11    1
    17     3     2    2
    18     2     1    1
    19    15    14    1
    20    15    16    1
    21    14    25    1
    22    26    25    1
    23    17    16   ar
    24    17    18   ar
    25    16    24   ar
    26    18    19   ar
    27    24    20   ar
    28    19    20   ar
    29    20    21    1
    30    21    22    2
    31    21    23    1
