@<TRIPOS>MOLECULE
1y5a_TL2_T_1.pdb
 28 31 0 0 0
SMALL
GASTEIGER

@<TRIPOS>ATOM
      1  N         12.0820   28.6260   40.7540 N.pl3 790  TL2790      0.2047
      2  C1        11.4590   28.3970   39.5280 C.2   790  TL2790      0.4766
      3  C2        12.2660   27.6350   38.4600 C.ar  790  TL2790      0.0977
      4  C3        11.6660   27.3080   37.2090 C.ar  790  TL2790      0.0111
      5  C4        12.4190   26.6500   36.2160 C.ar  790  TL2790      0.0372
      6  C5        13.6410   27.3260   38.6820 C.ar  790  TL2790      0.0111
      7  C6        14.3870   26.6220   37.7000 C.ar  790  TL2790      0.0372
      8  C7        13.7780   26.3260   36.4420 C.ar  790  TL2790      0.1386
      9  O8        14.4320   25.6340   35.3910 O.3   790  TL2790     -0.4740
     10  C9        15.4690   24.6410   35.7640 C.3   790  TL2790      0.2246
     11  C10       15.0140   23.5390   36.7350 C.3   790  TL2790      0.1882
     12  O11       14.3190   22.5740   35.8800 O.3   790  TL2790     -0.3459
     13  C11       15.8470   23.8200   34.5490 C.3   790  TL2790      0.1882
     14  C12       14.7450   22.7770   34.5150 C.3   790  TL2790      0.1882
     15  C13       15.5000   21.5340   33.9740 C.3   790  TL2790      0.2246
     16  O14       14.8630   20.3420   34.5760 O.3   790  TL2790     -0.4740
     17  O15       17.1070   23.1250   34.6900 O.3   790  TL2790     -0.3459
     18  C16       13.2060   19.9740   32.7260 C.ar  790  TL2790      0.0369
     19  C17       16.8970   21.6990   34.6200 C.3   790  TL2790      0.1882
     20  C18       13.7240   19.6990   34.0440 C.ar  790  TL2790      0.1389
     21  C20       13.1530   18.7010   34.8660 C.ar  790  TL2790      0.0449
     22  C21       11.2300   17.0150   35.3230 C.2   790  TL2790      0.4767
     23  N22       11.9670   16.2810   36.2470 N.pl3 790  TL2790      0.2047
     24  N23        9.9720   16.7960   35.2730 N.pl3 790  TL2790      0.2047
     25  C24       12.0540   19.2710   32.3020 C.ar  790  TL2790      0.0034
     26  C25       11.4250   18.3220   33.1210 C.ar  790  TL2790      0.0082
     27  C26       11.9380   18.0310   34.4350 C.ar  790  TL2790      0.1005
     28  N27       10.2890   28.8410   39.3560 N.pl3 790  TL2790      0.2047
@<TRIPOS>BOND
     1    25    18   ar
     2    25    26   ar
     3    18    20   ar
     4    26    27   ar
     5    15    14    1
     6    15    16    1
     7    15    19    1
     8    20    16    1
     9    20    21   ar
    10    27    21   ar
    11    27    22    1
    12    14    13    1
    13    14    12    1
    14    13    17    1
    15    13    10    1
    16    19    17    1
    17    24    22    2
    18    22    23    1
    19     9    10    1
    20     9     8    1
    21    10    11    1
    22    12    11    1
    23     5     8   ar
    24     5     4   ar
    25     8     7   ar
    26     4     3   ar
    27     7     6   ar
    28     3     6   ar
    29     3     2    1
    30    28     2    2
    31     2     1    1
