@<TRIPOS>MOLECULE
1y5b_TL3_T_1.pdb
 28 31 0 0 0
SMALL
GASTEIGER

@<TRIPOS>ATOM
      1  N1        12.0620   31.4870   25.1460 N.pl3 720  TL3720      0.2047
      2  C1        12.2280   30.1880   25.2420 C.2   720  TL3720      0.4766
      3  N2        12.2110   29.5840   26.4790 N.pl3 720  TL3720      0.2047
      4  C2        12.2690   29.2570   24.0770 C.ar  720  TL3720      0.0977
      5  C3        13.1390   28.0850   24.1080 C.ar  720  TL3720      0.0111
      6  C4        13.1320   27.2190   22.9600 C.ar  720  TL3720      0.0372
      7  C5        12.2810   27.5490   21.8120 C.ar  720  TL3720      0.1386
      8  O1        12.1870   26.8070   20.6500 O.3   720  TL3720     -0.4740
      9  C6        12.8830   25.5180   20.5690 C.3   720  TL3720      0.2246
     10  C7        12.8120   25.1970   19.0520 C.3   720  TL3720      0.1882
     11  O2        11.6590   24.3370   18.8670 O.3   720  TL3720     -0.3459
     12  C8        11.3600   23.6650   20.1520 C.3   720  TL3720      0.1882
     13  C9         9.8610   23.9730   20.4500 C.3   720  TL3720      0.2246
     14  O3         9.3090   22.7510   21.0480 O.3   720  TL3720     -0.4740
     15  C10        9.0600   21.7600   20.0910 C.ar  720  TL3720      0.1386
     16  C11        9.0290   20.4150   20.5530 C.ar  720  TL3720      0.0372
     17  C12        8.7470   19.3830   19.6150 C.ar  720  TL3720      0.0111
     18  C13        8.5350   19.6810   18.2190 C.ar  720  TL3720      0.0977
     19  C14        8.2570   18.5960   17.2470 C.2   720  TL3720      0.4766
     20  N3         8.5150   17.3480   17.5610 N.pl3 720  TL3720      0.2047
     21  N4         7.4230   18.9260   16.1950 N.pl3 720  TL3720      0.2047
     22  C15        8.5650   21.0330   17.7350 C.ar  720  TL3720      0.0111
     23  C16        8.8900   22.0640   18.6700 C.ar  720  TL3720      0.0372
     24  C17        9.8270   25.0280   21.5430 C.3   720  TL3720      0.1882
     25  O4        11.0840   24.7330   22.2640 O.3   720  TL3720     -0.3459
     26  C18       12.1340   24.3270   21.2780 C.3   720  TL3720      0.1882
     27  C19       11.4410   28.6960   21.8130 C.ar  720  TL3720      0.0372
     28  C20       11.4290   29.5280   22.9430 C.ar  720  TL3720      0.0111
@<TRIPOS>BOND
     1    21    19    2
     2    19    20    1
     3    19    18    1
     4    22    18   ar
     5    22    23   ar
     6    18    17   ar
     7    23    15   ar
     8    11    10    1
     9    11    12    1
    10    10     9    1
    11    17    16   ar
    12    15    16   ar
    13    15    14    1
    14    12    13    1
    15    12    26    1
    16    13    14    1
    17    13    24    1
    18     9     8    1
    19     9    26    1
    20     8     7    1
    21    26    25    1
    22    24    25    1
    23     7    27   ar
    24     7     6   ar
    25    27    28   ar
    26    28     4   ar
    27     6     5   ar
    28     4     5   ar
    29     4     2    1
    30     1     2    2
    31     2     3    1
