@<TRIPOS>MOLECULE
1y5f_HEM_A_1.pdb
 43 50 0 0 0
SMALL
GASTEIGER

@<TRIPOS>ATOM
      1 FE          8.0800   40.4400  -15.3520 Fe    142  HEM142      0.0000
      2  CHA        6.5960   43.2270  -16.5990 C.2   142  HEM142      0.0000
      3  CHB        6.0300   40.6500  -12.5300 C.2   142  HEM142      0.0000
      4  CHC       10.0460   38.1430  -13.6550 C.2   142  HEM142      0.0000
      5  CHD       10.7720   40.9630  -17.5540 C.2   142  HEM142      0.0000
      6  NA         6.6350   41.6970  -14.6870 N.2   142  HEM142      0.0000
      7  C1A        6.1210   42.7490  -15.3840 C.2   142  HEM142      0.0000
      8  C2A        5.0130   43.2990  -14.6520 C.2   142  HEM142      0.0000
      9  C3A        4.8440   42.5870  -13.5510 C.2   142  HEM142      0.0000
     10  C4A        5.8500   41.5670  -13.5460 C.2   142  HEM142      0.0000
     11  CMA        3.8110   42.7450  -12.3950 C.3   142  HEM142      0.0000
     12  CAA        4.2510   44.5130  -15.2240 C.3   142  HEM142      0.0000
     13  CBA        3.1040   44.1610  -16.1820 C.3   142  HEM142      0.0000
     14  CGA        2.1980   45.3700  -16.3860 C.2   142  HEM142      0.0000
     15  O1A        1.2190   45.4280  -15.6060 O.co2 142  HEM142      0.0000
     16  O2A        2.5340   46.1980  -17.2690 O.co2 142  HEM142      0.0000
     17  NB         8.0650   39.6020  -13.4660 N.ar  142  HEM142      0.0000
     18  C1B        7.1460   39.8160  -12.4680 C.ar  142  HEM142      0.0000
     19  C2B        7.4400   38.9380  -11.3470 C.ar  142  HEM142      0.0000
     20  C3B        8.5280   38.2420  -11.6450 C.ar  142  HEM142      0.0000
     21  C4B        8.9460   38.6580  -12.9800 C.ar  142  HEM142      0.0000
     22  CMB        6.5630   38.9130  -10.0750 C.3   142  HEM142      0.0000
     23  CAB        9.3440   37.2170  -10.8440 C.2   142  HEM142      0.0000
     24  CBB        8.8880   36.4970   -9.8500 C.2   142  HEM142      0.0000
     25  NC         9.9780   39.6760  -15.5950 N.2   142  HEM142      0.0000
     26  C1C       10.6050   38.7410  -14.7750 C.2   142  HEM142      0.0000
     27  C2C       11.9620   38.5240  -15.2240 C.2   142  HEM142      0.0000
     28  C3C       12.1680   39.3170  -16.2710 C.2   142  HEM142      0.0000
     29  C4C       10.9300   40.0490  -16.5260 C.2   142  HEM142      0.0000
     30  CMC       12.9330   37.5310  -14.5460 C.3   142  HEM142      0.0000
     31  CAC       13.4390   39.4740  -17.1340 C.2   142  HEM142      0.0000
     32  CBC       14.6480   39.5520  -16.5630 C.2   142  HEM142      0.0000
     33  ND         8.6070   41.8450  -16.7480 N.ar  142  HEM142      0.0000
     34  C1D        9.6860   41.8100  -17.6240 C.ar  142  HEM142      0.0000
     35  C2D        9.5200   42.8370  -18.6430 C.ar  142  HEM142      0.0000
     36  C3D        8.3700   43.4540  -18.3900 C.ar  142  HEM142      0.0000
     37  C4D        7.7920   42.8600  -17.2030 C.ar  142  HEM142      0.0000
     38  CMD       10.5380   43.0860  -19.7740 C.3   142  HEM142      0.0000
     39  CAD        7.6990   44.6510  -19.1290 C.3   142  HEM142      0.0000
     40  CBD        8.0790   45.9850  -18.4750 C.3   142  HEM142      0.0000
     41  CGD        7.6430   47.2440  -19.1460 C.2   142  HEM142      0.0000
     42  O1D        7.1270   48.1470  -18.4350 O.co2 142  HEM142      0.0000
     43  O2D        7.8440   47.3280  -20.3820 O.co2 142  HEM142      0.0000
@<TRIPOS>BOND
     1    43    41   ar
     2    38    35    1
     3    41    40    1
     4    41    42   ar
     5    39    40    1
     6    39    36    1
     7    35    36   ar
     8    35    34   ar
     9    36    37   ar
    10    34     5    2
    11    34    33   ar
    12     5    29    1
    13    16    14   ar
    14    37    33   ar
    15    37     2    2
    16    31    32    2
    17    31    28    1
    18    33     1    1
    19     2     7    1
    20    29    28    1
    21    29    25    2
    22    14    13    1
    23    14    15   ar
    24    28    27    2
    25    13    12    1
    26    25     1    1
    27    25    26    1
    28     7     6    2
    29     7     8    1
    30     1     6    1
    31     1    17    1
    32    12     8    1
    33    27    26    1
    34    27    30    1
    35    26     4    2
    36     6    10    1
    37     8     9    2
    38     4    21    1
    39     9    10    1
    40     9    11    1
    41    10     3    2
    42    17    21   ar
    43    17    18   ar
    44    21    20   ar
    45     3    18    1
    46    18    19   ar
    47    20    19   ar
    48    20    23    1
    49    19    22    1
    50    23    24    2
