@<TRIPOS>MOLECULE
1y5i_MD1_A_1.pdb
 47 51 0 0 0
SMALL
GASTEIGER

@<TRIPOS>ATOM
      1  PB      -124.6970  -63.5560  -24.0190 P.3   1800  MD11800     0.2189
      2  O3B     -125.9900  -62.6020  -23.8710 O.3   1800  MD11800    -0.2703
      3  O1B     -125.0420  -64.6870  -24.8940 O.2   1800  MD11800    -0.5170
      4  O2B     -123.5510  -62.7390  -24.3690 O.3   1800  MD11800    -0.4371
      5  O3A     -124.4730  -64.1480  -22.5670 O.3   1800  MD11800    -0.3108
      6  C10     -125.3610  -64.9940  -21.8690 C.3   1800  MD11800     0.1870
      7  C11     -124.4120  -65.5990  -20.7980 C.3   1800  MD11800     0.2107
      8  O11     -123.8880  -64.4470  -20.1000 O.3   1800  MD11800    -0.2150
      9  C12     -125.2170  -66.5670  -19.8110 C.2   1800  MD11800     0.0503
     10  S12     -126.8050  -67.1810  -20.2780 S.3   1800  MD11800    -0.0525
     11  C13     -124.7680  -66.9990  -18.5220 C.2   1800  MD11800     0.0425
     12  S13     -125.8540  -67.9900  -17.5780 S.3   1800  MD11800    -0.0531
     13  C14     -123.4560  -66.7210  -17.8220 C.3   1800  MD11800     0.1588
     14  N15     -123.8200  -66.0140  -16.5890 N.2   1800  MD11800    -0.2437
     15  C16     -122.7580  -65.5550  -15.8040 C.2   1800  MD11800     0.2466
     16  C15     -122.8810  -65.3470  -14.4000 C.1   1800  MD11800     0.2441
     17  O14     -123.9350  -65.5830  -13.8200 O.2   1800  MD11800    -0.2063
     18  N17     -121.7240  -64.8520  -13.7290 N.2   1800  MD11800    -0.2474
     19  C17     -120.4910  -64.5680  -14.3730 C.1   1800  MD11800     0.2608
     20  N16     -119.4510  -64.1070  -13.6900 N.pl3 1800  MD11800    -0.0220
     21  N18     -120.3960  -64.7760  -15.6910 N.2   1800  MD11800    -0.2683
     22  C20     -121.4450  -65.2480  -16.4360 C.1   1800  MD11800     0.1270
     23  N8      -121.2560  -65.4270  -17.7970 N.2   1800  MD11800    -0.2051
     24  C7      -122.3980  -65.9210  -18.5850 C.3   1800  MD11800     0.1666
     25  PA      -126.1290  -61.0530  -23.9770 P.3   1800  MD11800     0.2189
     26  O1A     -125.2020  -60.4170  -23.0200 O.3   1800  MD11800    -0.4371
     27  O2A     -127.6320  -60.8290  -23.8220 O.2   1800  MD11800    -0.5170
     28  O5'     -125.6220  -60.9300  -25.4960 O.3   1800  MD11800    -0.3112
     29  C5'     -126.5730  -60.7580  -26.5550 C.3   1800  MD11800     0.1813
     30  C4'     -126.0230  -59.8820  -27.6310 C.3   1800  MD11800     0.1799
     31  O4'     -126.6190  -60.2300  -28.9100 O.3   1800  MD11800    -0.3326
     32  C1'     -127.3170  -59.0710  -29.4510 C.3   1800  MD11800     0.2293
     33  N9      -128.4870  -59.6440  -30.1240 N.pl3 1800  MD11800    -0.2354
     34  C4      -128.4490  -60.0710  -31.4440 C.2   1800  MD11800     0.2300
     35  N3      -127.3400  -60.0170  -32.3120 N.2   1800  MD11800    -0.3074
     36  C2      -127.5590  -60.5260  -33.5520 C.1   1800  MD11800     0.2531
     37  N2      -126.5980  -60.5450  -34.4720 N.pl3 1800  MD11800    -0.0226
     38  N1      -128.8240  -61.0610  -33.9090 N.2   1800  MD11800    -0.2485
     39  C6      -129.9540  -61.1160  -33.0250 C.1   1800  MD11800     0.2372
     40  O6      -131.0370  -61.6000  -33.3660 O.2   1800  MD11800    -0.2069
     41  C5      -129.7200  -60.5790  -31.7180 C.2   1800  MD11800     0.2182
     42  N7      -130.5490  -60.4640  -30.6120 N.2   1800  MD11800    -0.2322
     43  C8      -129.7670  -59.9080  -29.6990 C.3   1800  MD11800     0.2246
     44  C2'     -127.6090  -58.1720  -28.2440 C.3   1800  MD11800     0.2310
     45  O2'     -127.7130  -56.8130  -28.5660 O.3   1800  MD11800    -0.2158
     46  C3'     -126.3760  -58.4330  -27.3120 C.3   1800  MD11800     0.2158
     47  O3'     -125.2790  -57.5760  -27.5190 O.3   1800  MD11800    -0.2175
@<TRIPOS>BOND
     1    37    36    1
     2    38    36    2
     3    38    39    2
     4    36    35    2
     5    40    39    2
     6    39    41    1
     7    35    34    2
     8    41    34    1
     9    41    42    2
    10    34    33    1
    11    42    43    1
    12    33    43    1
    13    33    32    1
    14    32    31    1
    15    32    44    1
    16    31    30    1
    17    45    44    1
    18    44    46    1
    19    30    46    1
    20    30    29    1
    21    47    46    1
    22    29    28    1
    23    28    25    1
    24     3     1    2
    25     4     1    1
    26     1     2    1
    27     1     5    1
    28    25     2    1
    29    25    27    2
    30    25    26    1
    31     5     6    1
    32     6     7    1
    33     7     8    1
    34     7     9    1
    35    10     9    1
    36     9    11    2
    37    24    13    1
    38    24    23    1
    39    11    13    1
    40    11    12    1
    41    13    14    1
    42    23    22    2
    43    14    15    2
    44    22    15    1
    45    22    21    2
    46    15    16    1
    47    21    19    2
    48    16    17    2
    49    16    18    2
    50    19    18    2
    51    19    20    1
