@<TRIPOS>MOLECULE
1y5i_HEM_C_1.pdb
 43 50 0 0 0
SMALL
GASTEIGER

@<TRIPOS>ATOM
      1 FE       -147.8110  -13.6130  -13.4850 Fe    806  HEM806      0.0000
      2  CHA     -145.2880  -15.7980  -13.8900 C.2   806  HEM806      0.0000
      3  CHB     -149.6760  -16.0100  -11.8570 C.2   806  HEM806      0.0000
      4  CHC     -150.3210  -11.3450  -13.0860 C.2   806  HEM806      0.0000
      5  CHD     -146.0290  -11.1980  -15.2020 C.2   806  HEM806      0.0000
      6  NA      -147.5360  -15.5290  -12.9780 N.2   806  HEM806      0.0000
      7  C1A     -146.4200  -16.2780  -13.2270 C.2   806  HEM806      0.0000
      8  C2A     -146.6250  -17.6130  -12.7010 C.2   806  HEM806      0.0000
      9  C3A     -147.8390  -17.6790  -12.1350 C.2   806  HEM806      0.0000
     10  C4A     -148.4260  -16.3630  -12.3030 C.2   806  HEM806      0.0000
     11  CMA     -148.5740  -18.8840  -11.4180 C.3   806  HEM806      0.0000
     12  CAA     -145.5890  -18.7240  -12.8130 C.3   806  HEM806      0.0000
     13  CBA     -144.5480  -18.6570  -11.6110 C.3   806  HEM806      0.0000
     14  CGA     -143.7220  -19.9490  -11.5010 C.2   806  HEM806      0.0000
     15  O1A     -144.1490  -20.8640  -10.7100 O.co2 806  HEM806      0.0000
     16  O2A     -142.7090  -20.0140  -12.2600 O.co2 806  HEM806      0.0000
     17  NB      -149.6230  -13.6670  -12.6440 N.ar  806  HEM806      0.0000
     18  C1B     -150.2400  -14.7470  -12.0140 C.ar  806  HEM806      0.0000
     19  C2B     -151.5680  -14.3670  -11.5540 C.ar  806  HEM806      0.0000
     20  C3B     -151.7460  -13.0570  -11.9020 C.ar  806  HEM806      0.0000
     21  C4B     -150.5370  -12.6190  -12.5760 C.ar  806  HEM806      0.0000
     22  CMB     -152.5370  -15.3670  -10.8110 C.3   806  HEM806      0.0000
     23  CAB     -152.9940  -12.1170  -11.6760 C.2   806  HEM806      0.0000
     24  CBB     -153.7720  -12.1270  -10.5480 C.2   806  HEM806      0.0000
     25  NC      -148.1020  -11.6550  -14.0280 N.2   806  HEM806      0.0000
     26  C1C     -149.2130  -10.8760  -13.7580 C.2   806  HEM806      0.0000
     27  C2C     -149.0240   -9.5150  -14.2890 C.2   806  HEM806      0.0000
     28  C3C     -147.8280   -9.4950  -14.8990 C.2   806  HEM806      0.0000
     29  C4C     -147.2530  -10.8330  -14.7290 C.2   806  HEM806      0.0000
     30  CMC     -150.0820   -8.3680  -14.1320 C.3   806  HEM806      0.0000
     31  CAC     -147.0480   -8.3640  -15.6680 C.3   806  HEM806      0.0000
     32  CBC     -147.7570   -7.4250  -16.4060 C.3   806  HEM806      0.0000
     33  ND      -146.0320  -13.5210  -14.3590 N.ar  806  HEM806      0.0000
     34  C1D     -145.4510  -12.4260  -15.0320 C.ar  806  HEM806      0.0000
     35  C2D     -144.1350  -12.7640  -15.5230 C.ar  806  HEM806      0.0000
     36  C3D     -143.9010  -14.0430  -15.1400 C.ar  806  HEM806      0.0000
     37  C4D     -145.1100  -14.5260  -14.4200 C.ar  806  HEM806      0.0000
     38  CMD     -143.2010  -11.7910  -16.3210 C.3   806  HEM806      0.0000
     39  CAD     -142.6450  -14.9490  -15.3490 C.3   806  HEM806      0.0000
     40  CBD     -141.4560  -14.7090  -14.3080 C.3   806  HEM806      0.0000
     41  CGD     -140.1840  -15.4790  -14.7000 C.2   806  HEM806      0.0000
     42  O1D     -139.9020  -16.5110  -14.0100 O.co2 806  HEM806      0.0000
     43  O2D     -139.5310  -15.0010  -15.6990 O.co2 806  HEM806      0.0000
@<TRIPOS>BOND
     1    32    31    1
     2    38    35    1
     3    43    41   ar
     4    31    28    1
     5    35    36   ar
     6    35    34   ar
     7    39    36    1
     8    39    40    1
     9     5    34    2
    10     5    29    1
    11    36    37   ar
    12    34    33   ar
    13    28    29    1
    14    28    27    2
    15    29    25    2
    16    41    40    1
    17    41    42   ar
    18    37    33   ar
    19    37     2    2
    20    33     1    1
    21    27    30    1
    22    27    26    1
    23    25    26    1
    24    25     1    1
    25     2     7    1
    26    26     4    2
    27     1     6    1
    28     1    17    1
    29     7     6    2
    30     7     8    1
    31     4    21    1
    32     6    10    1
    33    12     8    1
    34    12    13    1
    35     8     9    2
    36    17    21   ar
    37    17    18   ar
    38    21    20   ar
    39    10     9    1
    40    10     3    2
    41    16    14   ar
    42     9    11    1
    43    18     3    1
    44    18    19   ar
    45    20    23    1
    46    20    19   ar
    47    23    24    2
    48    13    14    1
    49    19    22    1
    50    14    15   ar
