@<TRIPOS>MOLECULE
1y5j_HEM_A_1.pdb
 43 50 0 0 0
SMALL
GASTEIGER

@<TRIPOS>ATOM
      1 FE          8.5930   40.6060  -15.4080 Fe    142  HEM142      0.0000
      2  CHA        7.0070   43.3760  -16.7060 C.2   142  HEM142      0.0000
      3  CHB        6.4700   40.7760  -12.6430 C.2   142  HEM142      0.0000
      4  CHC       10.5360   38.2960  -13.7010 C.2   142  HEM142      0.0000
      5  CHD       11.2350   41.1930  -17.5740 C.2   142  HEM142      0.0000
      6  NA         7.0740   41.8320  -14.7900 N.2   142  HEM142      0.0000
      7  C1A        6.5610   42.9050  -15.4860 C.2   142  HEM142      0.0000
      8  C2A        5.4440   43.4600  -14.7580 C.2   142  HEM142      0.0000
      9  C3A        5.2740   42.7370  -13.6550 C.2   142  HEM142      0.0000
     10  C4A        6.2870   41.7020  -13.6510 C.2   142  HEM142      0.0000
     11  CMA        4.2440   42.9500  -12.5150 C.3   142  HEM142      0.0000
     12  CAA        4.6450   44.6840  -15.2870 C.3   142  HEM142      0.0000
     13  CBA        3.4240   44.2910  -16.1330 C.3   142  HEM142      0.0000
     14  CGA        2.5280   45.4840  -16.4080 C.2   142  HEM142      0.0000
     15  O1A        1.4900   45.5610  -15.7010 O.co2 142  HEM142      0.0000
     16  O2A        2.9260   46.2920  -17.2920 O.co2 142  HEM142      0.0000
     17  NB         8.5210   39.7360  -13.5330 N.ar  142  HEM142      0.0000
     18  C1B        7.5720   39.9380  -12.5540 C.ar  142  HEM142      0.0000
     19  C2B        7.8940   39.1130  -11.4050 C.ar  142  HEM142      0.0000
     20  C3B        9.0130   38.4460  -11.6910 C.ar  142  HEM142      0.0000
     21  C4B        9.4240   38.8220  -13.0240 C.ar  142  HEM142      0.0000
     22  CMB        7.0350   39.0680  -10.1190 C.3   142  HEM142      0.0000
     23  CAB        9.8170   37.4220  -10.8400 C.2   142  HEM142      0.0000
     24  CBB        9.1290   36.6410  -10.0090 C.2   142  HEM142      0.0000
     25  NC        10.4830   39.8750  -15.6140 N.2   142  HEM142      0.0000
     26  C1C       11.1040   38.9020  -14.8280 C.2   142  HEM142      0.0000
     27  C2C       12.4500   38.6970  -15.2900 C.2   142  HEM142      0.0000
     28  C3C       12.6460   39.5050  -16.3370 C.2   142  HEM142      0.0000
     29  C4C       11.4230   40.2570  -16.5600 C.2   142  HEM142      0.0000
     30  CMC       13.4130   37.6720  -14.6390 C.3   142  HEM142      0.0000
     31  CAC       13.8860   39.6640  -17.2440 C.2   142  HEM142      0.0000
     32  CBC       15.1150   39.7370  -16.7740 C.2   142  HEM142      0.0000
     33  ND         9.0610   42.0330  -16.8210 N.ar  142  HEM142      0.0000
     34  C1D       10.1460   42.0320  -17.6860 C.ar  142  HEM142      0.0000
     35  C2D        9.9550   43.0580  -18.7050 C.ar  142  HEM142      0.0000
     36  C3D        8.7830   43.6420  -18.4640 C.ar  142  HEM142      0.0000
     37  C4D        8.2130   43.0280  -17.2780 C.ar  142  HEM142      0.0000
     38  CMD       10.9760   43.3600  -19.8350 C.3   142  HEM142      0.0000
     39  CAD        8.0900   44.8420  -19.1910 C.3   142  HEM142      0.0000
     40  CBD        8.5250   46.2040  -18.6240 C.3   142  HEM142      0.0000
     41  CGD        8.0540   47.4770  -19.2590 C.2   142  HEM142      0.0000
     42  O1D        7.4850   48.3560  -18.5390 O.co2 142  HEM142      0.0000
     43  O2D        8.2680   47.6130  -20.4890 O.co2 142  HEM142      0.0000
@<TRIPOS>BOND
     1    43    41   ar
     2    38    35    1
     3    41    40    1
     4    41    42   ar
     5    39    40    1
     6    39    36    1
     7    35    36   ar
     8    35    34   ar
     9    36    37   ar
    10    34     5    2
    11    34    33   ar
    12     5    29    1
    13    16    14   ar
    14    37    33   ar
    15    37     2    2
    16    31    32    2
    17    31    28    1
    18    33     1    1
    19     2     7    1
    20    29    28    1
    21    29    25    2
    22    14    13    1
    23    14    15   ar
    24    28    27    2
    25    13    12    1
    26    25     1    1
    27    25    26    1
    28     7     6    2
    29     7     8    1
    30     1     6    1
    31     1    17    1
    32    27    26    1
    33    27    30    1
    34    12     8    1
    35    26     4    2
    36     6    10    1
    37     8     9    2
    38     4    21    1
    39     9    10    1
    40     9    11    1
    41    10     3    2
    42    17    21   ar
    43    17    18   ar
    44    21    20   ar
    45     3    18    1
    46    18    19   ar
    47    20    19   ar
    48    20    23    1
    49    19    22    1
    50    23    24    2
