@<TRIPOS>MOLECULE
1y5k_HEM_A_1.pdb
 43 50 0 0 0
SMALL
GASTEIGER

@<TRIPOS>ATOM
      1 FE          8.2740   40.6240  -15.3310 Fe    142  HEM142      0.0000
      2  CHA        6.7110   43.3730  -16.6210 C.2   142  HEM142      0.0000
      3  CHB        6.1230   40.7650  -12.6650 C.2   142  HEM142      0.0000
      4  CHC       10.3040   38.5680  -13.5150 C.2   142  HEM142      0.0000
      5  CHD       10.8390   41.0820  -17.5770 C.2   142  HEM142      0.0000
      6  NA         6.7070   41.8550  -14.7310 N.2   142  HEM142      0.0000
      7  C1A        6.2080   42.8860  -15.4560 C.2   142  HEM142      0.0000
      8  C2A        5.0850   43.4370  -14.7770 C.2   142  HEM142      0.0000
      9  C3A        4.8970   42.7290  -13.6770 C.2   142  HEM142      0.0000
     10  C4A        5.9170   41.7270  -13.6210 C.2   142  HEM142      0.0000
     11  CMA        3.7810   43.0180  -12.6610 C.3   142  HEM142      0.0000
     12  CAA        4.2630   44.6440  -15.2590 C.3   142  HEM142      0.0000
     13  CBA        3.4330   44.3490  -16.4960 C.3   142  HEM142      0.0000
     14  CGA        2.3030   45.3670  -16.6190 C.2   142  HEM142      0.0000
     15  O1A        1.1650   44.9010  -16.6120 O.co2 142  HEM142      0.0000
     16  O2A        2.4680   46.6240  -16.7200 O.co2 142  HEM142      0.0000
     17  NB         8.2850   39.8680  -13.4390 N.ar  142  HEM142      0.0000
     18  C1B        7.2290   39.9520  -12.5510 C.ar  142  HEM142      0.0000
     19  C2B        7.4520   38.9660  -11.5230 C.ar  142  HEM142      0.0000
     20  C3B        8.6180   38.3770  -11.6980 C.ar  142  HEM142      0.0000
     21  C4B        9.1310   38.8990  -12.9370 C.ar  142  HEM142      0.0000
     22  CMB        6.5230   38.7650  -10.3350 C.3   142  HEM142      0.0000
     23  CAB        9.2240   37.2480  -10.8310 C.2   142  HEM142      0.0000
     24  CBB        9.6070   37.4070   -9.5560 C.2   142  HEM142      0.0000
     25  NC        10.1390   39.9890  -15.5170 N.2   142  HEM142      0.0000
     26  C1C       10.7590   39.0970  -14.6990 C.2   142  HEM142      0.0000
     27  C2C       12.0770   38.8610  -15.1970 C.2   142  HEM142      0.0000
     28  C3C       12.2020   39.5100  -16.3380 C.2   142  HEM142      0.0000
     29  C4C       11.0190   40.2570  -16.5240 C.2   142  HEM142      0.0000
     30  CMC       13.0140   37.8220  -14.5780 C.3   142  HEM142      0.0000
     31  CAC       13.3990   39.5100  -17.3060 C.2   142  HEM142      0.0000
     32  CBC       14.6340   39.5930  -16.7910 C.2   142  HEM142      0.0000
     33  ND         8.7380   42.0250  -16.7910 N.ar  142  HEM142      0.0000
     34  C1D        9.8300   42.0040  -17.6590 C.ar  142  HEM142      0.0000
     35  C2D        9.7160   43.0190  -18.6700 C.ar  142  HEM142      0.0000
     36  C3D        8.4360   43.7140  -18.3480 C.ar  142  HEM142      0.0000
     37  C4D        7.8930   43.0480  -17.1850 C.ar  142  HEM142      0.0000
     38  CMD       10.6300   43.4640  -19.8200 C.3   142  HEM142      0.0000
     39  CAD        7.9220   44.9130  -19.1380 C.3   142  HEM142      0.0000
     40  CBD        8.7220   46.1410  -18.7140 C.3   142  HEM142      0.0000
     41  CGD        7.9870   47.3140  -19.2570 C.2   142  HEM142      0.0000
     42  O1D        7.2770   47.9450  -18.4760 O.co2 142  HEM142      0.0000
     43  O2D        8.0590   47.5640  -20.4680 O.co2 142  HEM142      0.0000
@<TRIPOS>BOND
     1    43    41   ar
     2    38    35    1
     3    41    40    1
     4    41    42   ar
     5    39    40    1
     6    39    36    1
     7    35    36   ar
     8    35    34   ar
     9    36    37   ar
    10    34     5    2
    11    34    33   ar
    12     5    29    1
    13    31    32    2
    14    31    28    1
    15    37    33   ar
    16    37     2    2
    17    33     1    1
    18    16    14   ar
    19     2     7    1
    20    14    15   ar
    21    14    13    1
    22    29    28    1
    23    29    25    2
    24    13    12    1
    25    28    27    2
    26    25     1    1
    27    25    26    1
    28     7     8    1
    29     7     6    2
    30     1     6    1
    31     1    17    1
    32    12     8    1
    33    27    26    1
    34    27    30    1
    35     8     9    2
    36     6    10    1
    37    26     4    2
    38     9    10    1
    39     9    11    1
    40    10     3    2
    41     4    21    1
    42    17    21   ar
    43    17    18   ar
    44    21    20   ar
    45     3    18    1
    46    18    19   ar
    47    20    19   ar
    48    20    23    1
    49    19    22    1
    50    23    24    2
