@<TRIPOS>MOLECULE
1y5l_MD1_A_1.pdb
 47 51 0 0 0
SMALL
GASTEIGER

@<TRIPOS>ATOM
      1  PB      -124.2860  -63.4330  -24.0380 P.3   1800  MD11800     0.2189
      2  O3B     -125.5680  -62.4990  -23.8180 O.3   1800  MD11800    -0.2703
      3  O1B     -124.6480  -64.4690  -25.0260 O.2   1800  MD11800    -0.5170
      4  O2B     -123.1480  -62.6000  -24.4040 O.3   1800  MD11800    -0.4371
      5  O3A     -123.9840  -64.1690  -22.6500 O.3   1800  MD11800    -0.3108
      6  C10     -124.8710  -65.0370  -21.9850 C.3   1800  MD11800     0.1870
      7  C11     -124.0690  -65.4270  -20.7230 C.3   1800  MD11800     0.2107
      8  O11     -123.7730  -64.2090  -20.0300 O.3   1800  MD11800    -0.2150
      9  C12     -124.9030  -66.3700  -19.7750 C.2   1800  MD11800     0.0503
     10  S12     -126.5280  -66.8590  -20.2240 S.3   1800  MD11800    -0.0525
     11  C13     -124.4500  -66.8630  -18.5120 C.2   1800  MD11800     0.0425
     12  S13     -125.6150  -67.8390  -17.6280 S.3   1800  MD11800    -0.0531
     13  C14     -123.0840  -66.6450  -17.8130 C.3   1800  MD11800     0.1588
     14  N15     -123.4320  -65.9030  -16.5850 N.2   1800  MD11800    -0.2437
     15  C16     -122.3870  -65.4790  -15.7620 C.2   1800  MD11800     0.2466
     16  C15     -122.5630  -65.2940  -14.3560 C.1   1800  MD11800     0.2441
     17  O14     -123.6420  -65.5140  -13.8180 O.2   1800  MD11800    -0.2063
     18  N17     -121.4360  -64.8390  -13.6160 N.2   1800  MD11800    -0.2474
     19  C17     -120.1780  -64.5680  -14.1870 C.1   1800  MD11800     0.2608
     20  N16     -119.1840  -64.1390  -13.4070 N.pl3 1800  MD11800    -0.0220
     21  N18     -120.0230  -64.7530  -15.5250 N.2   1800  MD11800    -0.2683
     22  C20     -121.0610  -65.1940  -16.3400 C.1   1800  MD11800     0.1270
     23  N8      -120.8470  -65.3620  -17.7150 N.2   1800  MD11800    -0.2051
     24  C7      -121.9970  -65.8310  -18.5540 C.3   1800  MD11800     0.1666
     25  PA      -125.7280  -60.9270  -23.9460 P.3   1800  MD11800     0.2189
     26  O1A     -124.6890  -60.3290  -23.1170 O.3   1800  MD11800    -0.4371
     27  O2A     -127.1540  -60.5540  -23.6700 O.2   1800  MD11800    -0.5170
     28  O5'     -125.3390  -60.8680  -25.5080 O.3   1800  MD11800    -0.3112
     29  C5'     -126.2900  -60.5240  -26.4940 C.3   1800  MD11800     0.1813
     30  C4'     -125.6230  -59.6850  -27.5540 C.3   1800  MD11800     0.1799
     31  O4'     -126.1570  -60.0710  -28.8150 O.3   1800  MD11800    -0.3326
     32  C1'     -126.8130  -58.9530  -29.4240 C.3   1800  MD11800     0.2293
     33  N9      -127.9970  -59.5130  -30.1010 N.pl3 1800  MD11800    -0.2354
     34  C4      -127.9950  -59.9090  -31.4180 C.2   1800  MD11800     0.2300
     35  N3      -126.9140  -59.8520  -32.3040 N.2   1800  MD11800    -0.3074
     36  C2      -127.1760  -60.3080  -33.5490 C.1   1800  MD11800     0.2531
     37  N2      -126.2600  -60.3160  -34.4950 N.pl3 1800  MD11800    -0.0226
     38  N1      -128.4430  -60.7940  -33.8860 N.2   1800  MD11800    -0.2485
     39  C6      -129.5470  -60.8640  -33.0130 C.1   1800  MD11800     0.2372
     40  O6      -130.6300  -61.3110  -33.3880 O.2   1800  MD11800    -0.2069
     41  C5      -129.2900  -60.3840  -31.6900 C.2   1800  MD11800     0.2182
     42  N7      -130.0950  -60.2890  -30.5740 N.2   1800  MD11800    -0.2322
     43  C8      -129.2940  -59.7730  -29.6630 C.3   1800  MD11800     0.2246
     44  C2'     -127.1220  -57.9630  -28.2700 C.3   1800  MD11800     0.2310
     45  O2'     -127.2320  -56.5860  -28.6460 O.3   1800  MD11800    -0.2158
     46  C3'     -125.9340  -58.1950  -27.3250 C.3   1800  MD11800     0.2158
     47  O3'     -124.8000  -57.3730  -27.5970 O.3   1800  MD11800    -0.2175
@<TRIPOS>BOND
     1    37    36    1
     2    38    36    2
     3    38    39    2
     4    36    35    2
     5    40    39    2
     6    39    41    1
     7    35    34    2
     8    41    34    1
     9    41    42    2
    10    34    33    1
    11    42    43    1
    12    33    43    1
    13    33    32    1
    14    32    31    1
    15    32    44    1
    16    31    30    1
    17    45    44    1
    18    44    46    1
    19    47    46    1
    20    30    46    1
    21    30    29    1
    22    29    28    1
    23    28    25    1
    24     3     1    2
    25     4     1    1
    26     1     2    1
    27     1     5    1
    28    25     2    1
    29    25    27    2
    30    25    26    1
    31     5     6    1
    32     6     7    1
    33     7     8    1
    34     7     9    1
    35    10     9    1
    36     9    11    2
    37    24    13    1
    38    24    23    1
    39    11    13    1
    40    11    12    1
    41    13    14    1
    42    23    22    2
    43    14    15    2
    44    22    15    1
    45    22    21    2
    46    15    16    1
    47    21    19    2
    48    16    17    2
    49    16    18    2
    50    19    18    2
    51    19    20    1
