@<TRIPOS>MOLECULE
1y5l_HEM_C_1.pdb
 43 50 0 0 0
SMALL
GASTEIGER

@<TRIPOS>ATOM
      1 FE       -147.3600  -13.4620  -13.5010 Fe    806  HEM806      0.0000
      2  CHA     -144.8250  -15.6100  -13.9690 C.2   806  HEM806      0.0000
      3  CHB     -149.2020  -15.9160  -11.9220 C.2   806  HEM806      0.0000
      4  CHC     -149.9190  -11.2460  -13.0410 C.2   806  HEM806      0.0000
      5  CHD     -145.5540  -10.9460  -15.0970 C.2   806  HEM806      0.0000
      6  NA      -147.0670  -15.3780  -13.0440 N.2   806  HEM806      0.0000
      7  C1A     -145.9330  -16.1180  -13.3210 C.2   806  HEM806      0.0000
      8  C2A     -146.1200  -17.4840  -12.8220 C.2   806  HEM806      0.0000
      9  C3A     -147.3260  -17.5680  -12.2560 C.2   806  HEM806      0.0000
     10  C4A     -147.9420  -16.2450  -12.3850 C.2   806  HEM806      0.0000
     11  CMA     -148.0280  -18.7840  -11.5740 C.3   806  HEM806      0.0000
     12  CAA     -145.0660  -18.6110  -12.9570 C.3   806  HEM806      0.0000
     13  CBA     -144.1310  -18.6200  -11.6780 C.3   806  HEM806      0.0000
     14  CGA     -143.2060  -19.8190  -11.5180 C.2   806  HEM806      0.0000
     15  O1A     -143.5230  -20.6820  -10.6440 O.co2 806  HEM806      0.0000
     16  O2A     -142.1990  -19.8560  -12.2910 O.co2 806  HEM806      0.0000
     17  NB      -149.1950  -13.5590  -12.6510 N.ar  806  HEM806      0.0000
     18  C1B     -149.7940  -14.6630  -12.0440 C.ar  806  HEM806      0.0000
     19  C2B     -151.1350  -14.3070  -11.5620 C.ar  806  HEM806      0.0000
     20  C3B     -151.3390  -12.9990  -11.8770 C.ar  806  HEM806      0.0000
     21  C4B     -150.1230  -12.5280  -12.5580 C.ar  806  HEM806      0.0000
     22  CMB     -152.0760  -15.3170  -10.8380 C.3   806  HEM806      0.0000
     23  CAB     -152.6080  -12.1010  -11.6030 C.2   806  HEM806      0.0000
     24  CBB     -153.0910  -11.7810  -10.3580 C.2   806  HEM806      0.0000
     25  NC      -147.6780  -11.4880  -13.9700 N.2   806  HEM806      0.0000
     26  C1C     -148.8150  -10.7380  -13.6910 C.2   806  HEM806      0.0000
     27  C2C     -148.6530   -9.3640  -14.1800 C.2   806  HEM806      0.0000
     28  C3C     -147.4320   -9.2810  -14.7560 C.2   806  HEM806      0.0000
     29  C4C     -146.8140  -10.6080  -14.6330 C.2   806  HEM806      0.0000
     30  CMC     -149.7450   -8.2410  -14.0270 C.3   806  HEM806      0.0000
     31  CAC     -146.7130   -8.0700  -15.4400 C.2   806  HEM806      0.0000
     32  CBC     -147.1540   -7.6480  -16.6570 C.2   806  HEM806      0.0000
     33  ND      -145.5540  -13.3040  -14.3620 N.ar  806  HEM806      0.0000
     34  C1D     -144.9660  -12.1890  -14.9750 C.ar  806  HEM806      0.0000
     35  C2D     -143.6120  -12.5400  -15.4680 C.ar  806  HEM806      0.0000
     36  C3D     -143.4170  -13.8410  -15.1390 C.ar  806  HEM806      0.0000
     37  C4D     -144.6400  -14.3180  -14.4520 C.ar  806  HEM806      0.0000
     38  CMD     -142.6360  -11.5730  -16.2050 C.3   806  HEM806      0.0000
     39  CAD     -142.1850  -14.8070  -15.3620 C.3   806  HEM806      0.0000
     40  CBD     -141.0090  -14.6650  -14.3040 C.3   806  HEM806      0.0000
     41  CGD     -139.6940  -15.3520  -14.7240 C.2   806  HEM806      0.0000
     42  O1D     -139.3340  -16.3580  -14.0250 O.co2 806  HEM806      0.0000
     43  O2D     -139.0840  -14.8270  -15.7270 O.co2 806  HEM806      0.0000
@<TRIPOS>BOND
     1    32    31    2
     2    38    35    1
     3    43    41   ar
     4    35    36   ar
     5    35    34   ar
     6    31    28    1
     7    39    36    1
     8    39    40    1
     9    36    37   ar
    10     5    34    2
    11     5    29    1
    12    34    33   ar
    13    28    29    1
    14    28    27    2
    15    41    40    1
    16    41    42   ar
    17    29    25    2
    18    37    33   ar
    19    37     2    2
    20    33     1    1
    21    27    30    1
    22    27    26    1
    23    25    26    1
    24    25     1    1
    25     2     7    1
    26    26     4    2
    27     1     6    1
    28     1    17    1
    29     7     6    2
    30     7     8    1
    31     6    10    1
    32     4    21    1
    33    12     8    1
    34    12    13    1
    35     8     9    2
    36    17    21   ar
    37    17    18   ar
    38    21    20   ar
    39    10     9    1
    40    10     3    2
    41    16    14   ar
    42     9    11    1
    43    18     3    1
    44    18    19   ar
    45    20    23    1
    46    20    19   ar
    47    13    14    1
    48    23    24    2
    49    19    22    1
    50    14    15   ar
