@<TRIPOS>MOLECULE
1y5n_HEM_C_1.pdb
 43 50 0 0 0
SMALL
GASTEIGER

@<TRIPOS>ATOM
      1 FE       -147.4830  -13.5160  -13.5640 Fe    806  HEM806      0.0000
      2  CHA     -144.9190  -15.5970  -14.0450 C.2   806  HEM806      0.0000
      3  CHB     -149.2650  -15.9900  -11.9520 C.2   806  HEM806      0.0000
      4  CHC     -150.0750  -11.3430  -13.1050 C.2   806  HEM806      0.0000
      5  CHD     -145.7660  -10.9580  -15.2040 C.2   806  HEM806      0.0000
      6  NA      -147.1470  -15.4160  -13.0960 N.2   806  HEM806      0.0000
      7  C1A     -146.0050  -16.1290  -13.3800 C.2   806  HEM806      0.0000
      8  C2A     -146.1470  -17.4880  -12.8700 C.2   806  HEM806      0.0000
      9  C3A     -147.3440  -17.6020  -12.2880 C.2   806  HEM806      0.0000
     10  C4A     -147.9970  -16.2960  -12.4250 C.2   806  HEM806      0.0000
     11  CMA     -148.0020  -18.8370  -11.5850 C.3   806  HEM806      0.0000
     12  CAA     -145.0620  -18.5830  -13.0110 C.3   806  HEM806      0.0000
     13  CBA     -144.1680  -18.6760  -11.7120 C.3   806  HEM806      0.0000
     14  CGA     -143.3550  -19.9780  -11.5560 C.2   806  HEM806      0.0000
     15  O1A     -143.8500  -20.8860  -10.8060 O.co2 806  HEM806      0.0000
     16  O2A     -142.2580  -20.0430  -12.2180 O.co2 806  HEM806      0.0000
     17  NB      -149.3060  -13.6390  -12.7000 N.ar  806  HEM806      0.0000
     18  C1B     -149.8830  -14.7470  -12.0820 C.ar  806  HEM806      0.0000
     19  C2B     -151.2390  -14.4020  -11.5930 C.ar  806  HEM806      0.0000
     20  C3B     -151.4590  -13.0930  -11.9250 C.ar  806  HEM806      0.0000
     21  C4B     -150.2490  -12.6190  -12.6150 C.ar  806  HEM806      0.0000
     22  CMB     -152.1660  -15.4220  -10.8510 C.3   806  HEM806      0.0000
     23  CAB     -152.7340  -12.1810  -11.6700 C.2   806  HEM806      0.0000
     24  CBB     -153.4220  -12.0670  -10.4870 C.2   806  HEM806      0.0000
     25  NC      -147.8480  -11.5440  -14.0480 N.2   806  HEM806      0.0000
     26  C1C     -148.9950  -10.8210  -13.7660 C.2   806  HEM806      0.0000
     27  C2C     -148.8700   -9.4450  -14.2680 C.2   806  HEM806      0.0000
     28  C3C     -147.6650   -9.3390  -14.8570 C.2   806  HEM806      0.0000
     29  C4C     -147.0180  -10.6500  -14.7290 C.2   806  HEM806      0.0000
     30  CMC     -149.9800   -8.3410  -14.1160 C.3   806  HEM806      0.0000
     31  CAC     -146.9980   -8.1100  -15.5620 C.2   806  HEM806      0.0000
     32  CBC     -147.2110   -7.9380  -16.8960 C.2   806  HEM806      0.0000
     33  ND      -145.7050  -13.3140  -14.4460 N.ar  806  HEM806      0.0000
     34  C1D     -145.1530  -12.1860  -15.0790 C.ar  806  HEM806      0.0000
     35  C2D     -143.8070  -12.5030  -15.5930 C.ar  806  HEM806      0.0000
     36  C3D     -143.5770  -13.7930  -15.2570 C.ar  806  HEM806      0.0000
     37  C4D     -144.7720  -14.3000  -14.5440 C.ar  806  HEM806      0.0000
     38  CMD     -142.8750  -11.5110  -16.3580 C.3   806  HEM806      0.0000
     39  CAD     -142.3430  -14.7270  -15.4990 C.3   806  HEM806      0.0000
     40  CBD     -141.1450  -14.5850  -14.4920 C.3   806  HEM806      0.0000
     41  CGD     -139.9780  -15.4960  -14.8760 C.2   806  HEM806      0.0000
     42  O1D     -139.9660  -16.6630  -14.3270 O.co2 806  HEM806      0.0000
     43  O2D     -139.1420  -14.9860  -15.7220 O.co2 806  HEM806      0.0000
@<TRIPOS>BOND
     1    32    31    2
     2    38    35    1
     3    43    41   ar
     4    35    36   ar
     5    35    34   ar
     6    31    28    1
     7    39    36    1
     8    39    40    1
     9    36    37   ar
    10     5    34    2
    11     5    29    1
    12    34    33   ar
    13    41    40    1
    14    41    42   ar
    15    28    29    1
    16    28    27    2
    17    29    25    2
    18    37    33   ar
    19    37     2    2
    20    33     1    1
    21    27    30    1
    22    27    26    1
    23    25    26    1
    24    25     1    1
    25     2     7    1
    26    26     4    2
    27     1     6    1
    28     1    17    1
    29     7     6    2
    30     7     8    1
    31     4    21    1
    32     6    10    1
    33    12     8    1
    34    12    13    1
    35     8     9    2
    36    17    21   ar
    37    17    18   ar
    38    21    20   ar
    39    10     9    1
    40    10     3    2
    41     9    11    1
    42    16    14   ar
    43    18     3    1
    44    18    19   ar
    45    20    23    1
    46    20    19   ar
    47    13    14    1
    48    23    24    2
    49    19    22    1
    50    14    15   ar
