@<TRIPOS>MOLECULE
1y5n_MD1_A_1.pdb
 47 51 0 0 0
SMALL
GASTEIGER

@<TRIPOS>ATOM
      1  PB      -124.3860  -63.6620  -24.0030 P.3   1800  MD11800     0.2189
      2  O3B     -125.6530  -62.6940  -23.8520 O.3   1800  MD11800    -0.2703
      3  O1B     -124.7200  -64.7040  -24.9890 O.2   1800  MD11800    -0.5170
      4  O2B     -123.2170  -62.8520  -24.3180 O.3   1800  MD11800    -0.4371
      5  O3A     -124.1720  -64.3950  -22.5990 O.3   1800  MD11800    -0.3108
      6  C10     -125.0880  -65.2650  -21.9430 C.3   1800  MD11800     0.1870
      7  C11     -124.2790  -65.6210  -20.6770 C.3   1800  MD11800     0.2107
      8  O11     -124.0060  -64.3770  -20.0240 O.3   1800  MD11800    -0.2150
      9  C12     -125.0630  -66.5730  -19.6780 C.2   1800  MD11800     0.0503
     10  S12     -126.6830  -67.1610  -20.0310 S.3   1800  MD11800    -0.0525
     11  C13     -124.5590  -67.0100  -18.4220 C.2   1800  MD11800     0.0425
     12  S13     -125.6660  -68.0040  -17.4910 S.3   1800  MD11800    -0.0531
     13  C14     -123.1950  -66.7260  -17.7570 C.3   1800  MD11800     0.1588
     14  N15     -123.5420  -65.9970  -16.5280 N.2   1800  MD11800    -0.2437
     15  C16     -122.4970  -65.5440  -15.7350 C.2   1800  MD11800     0.2466
     16  C15     -122.6580  -65.3770  -14.3310 C.1   1800  MD11800     0.2441
     17  O14     -123.7260  -65.6430  -13.7870 O.2   1800  MD11800    -0.2063
     18  N17     -121.5340  -64.8890  -13.6020 N.2   1800  MD11800    -0.2474
     19  C17     -120.2850  -64.5690  -14.1940 C.1   1800  MD11800     0.2608
     20  N16     -119.2870  -64.1120  -13.4290 N.pl3 1800  MD11800    -0.0220
     21  N18     -120.1480  -64.7410  -15.5390 N.2   1800  MD11800    -0.2683
     22  C20     -121.1930  -65.2130  -16.3380 C.1   1800  MD11800     0.1270
     23  N8      -121.0040  -65.3710  -17.7180 N.2   1800  MD11800    -0.2051
     24  C7      -122.1580  -65.8810  -18.5300 C.3   1800  MD11800     0.1666
     25  PA      -125.8300  -61.1110  -23.9850 P.3   1800  MD11800     0.2189
     26  O1A     -124.8470  -60.4590  -23.1220 O.3   1800  MD11800    -0.4371
     27  O2A     -127.2800  -60.7990  -23.7550 O.2   1800  MD11800    -0.5170
     28  O5'     -125.4070  -60.9890  -25.5340 O.3   1800  MD11800    -0.3112
     29  C5'     -126.3750  -60.6410  -26.5160 C.3   1800  MD11800     0.1813
     30  C4'     -125.7420  -59.7980  -27.5900 C.3   1800  MD11800     0.1799
     31  O4'     -126.2690  -60.2080  -28.8470 O.3   1800  MD11800    -0.3326
     32  C1'     -126.9460  -59.1150  -29.4730 C.3   1800  MD11800     0.2293
     33  N9      -128.1240  -59.7090  -30.1340 N.pl3 1800  MD11800    -0.2354
     34  C4      -128.1250  -60.1190  -31.4560 C.2   1800  MD11800     0.2300
     35  N3      -127.0540  -60.0480  -32.3580 N.2   1800  MD11800    -0.3074
     36  C2      -127.3240  -60.5270  -33.6050 C.1   1800  MD11800     0.2531
     37  N2      -126.4210  -60.5320  -34.5630 N.pl3 1800  MD11800    -0.0226
     38  N1      -128.5870  -61.0380  -33.9250 N.2   1800  MD11800    -0.2485
     39  C6      -129.6760  -61.1160  -33.0330 C.1   1800  MD11800     0.2372
     40  O6      -130.7470  -61.5760  -33.3920 O.2   1800  MD11800    -0.2069
     41  C5      -129.4140  -60.6230  -31.7100 C.2   1800  MD11800     0.2182
     42  N7      -130.2110  -60.5390  -30.5820 N.2   1800  MD11800    -0.2322
     43  C8      -129.4140  -59.9960  -29.6800 C.3   1800  MD11800     0.2246
     44  C2'     -127.2660  -58.1110  -28.3370 C.3   1800  MD11800     0.2310
     45  O2'     -127.3840  -56.7410  -28.7390 O.3   1800  MD11800    -0.2158
     46  C3'     -126.0800  -58.3210  -27.3820 C.3   1800  MD11800     0.2158
     47  O3'     -124.9490  -57.4880  -27.6590 O.3   1800  MD11800    -0.2175
@<TRIPOS>BOND
     1    37    36    1
     2    38    36    2
     3    38    39    2
     4    36    35    2
     5    40    39    2
     6    39    41    1
     7    35    34    2
     8    41    34    1
     9    41    42    2
    10    34    33    1
    11    42    43    1
    12    33    43    1
    13    33    32    1
    14    32    31    1
    15    32    44    1
    16    31    30    1
    17    45    44    1
    18    44    46    1
    19    47    46    1
    20    30    46    1
    21    30    29    1
    22    29    28    1
    23    28    25    1
    24     3     1    2
    25     4     1    1
    26     1     2    1
    27     1     5    1
    28    25     2    1
    29    25    27    2
    30    25    26    1
    31     5     6    1
    32     6     7    1
    33     7     8    1
    34     7     9    1
    35    10     9    1
    36     9    11    2
    37    24    13    1
    38    24    23    1
    39    11    13    1
    40    11    12    1
    41    13    14    1
    42    23    22    2
    43    14    15    2
    44    22    15    1
    45    22    21    2
    46    15    16    1
    47    21    19    2
    48    16    17    2
    49    16    18    2
    50    19    18    2
    51    19    20    1
