@<TRIPOS>MOLECULE
1y5n_PCI_C_1.pdb
 12 12 0 0 0
SMALL
GASTEIGER

@<TRIPOS>ATOM
      1  O1      -150.3520    6.1950  -12.7950 O.3   808  PCI808     -0.2847
      2  C1      -151.0130    6.3780  -11.5690 C.ar  808  PCI808      0.2182
      3  C2      -150.6790    5.5260  -10.4530 C.ar  808  PCI808      0.1087
      4 CL1      -149.7000    4.5490  -10.6520 Cl    808  PCI808     -0.0780
      5  C3      -151.3590    5.6970   -9.1550 C.ar  808  PCI808      0.0827
      6 CL2      -151.0250    4.8490   -8.0470 Cl    808  PCI808     -0.0803
      7  C4      -152.3870    6.7580   -9.0210 C.ar  808  PCI808      0.0806
      8 CL3      -153.0600    6.9410   -7.7720 Cl    808  PCI808     -0.0804
      9  C5      -152.7150    7.6260  -10.1820 C.ar  808  PCI808      0.0827
     10 CL4      -153.6980    8.6510  -10.0760 Cl    808  PCI808     -0.0803
     11  C6      -152.0060    7.4140  -11.4600 C.ar  808  PCI808      0.1087
     12 CL5      -152.2580    8.1940  -12.6080 Cl    808  PCI808     -0.0780
@<TRIPOS>BOND
     1     1     2    1
     2    12    11    1
     3     2    11   ar
     4     2     3   ar
     5    11     9   ar
     6     4     3    1
     7     3     5   ar
     8     9    10    1
     9     9     7   ar
    10     5     7   ar
    11     5     6    1
    12     7     8    1
