@<TRIPOS>MOLECULE
1y5r_C0R_A_1.pdb
 25 28 0 0 0
SMALL
GASTEIGER

@<TRIPOS>ATOM
      1  C1        73.2830   46.7690   41.8820 C.3    11  C0R11       0.0119
      2  C2        71.8920   46.1700   41.7890 C.3    11  C0R11       0.0694
      3  C3        71.2940   46.2630   43.1900 C.2    11  C0R11       0.1725
      4  C4        71.3940   47.5150   44.0060 C.2    11  C0R11       0.0289
      5  C5        72.2320   48.5630   43.4660 C.2    11  C0R11      -0.0419
      6  C6        72.2640   49.9230   44.0730 C.3    11  C0R11       0.0221
      7  C7        73.7250   50.2550   44.3840 C.3    11  C0R11       0.0044
      8  C8        74.6430   50.1420   43.1700 C.3    11  C0R11       0.0031
      9  C9        74.6510   48.6780   42.6590 C.3    11  C0R11       0.0339
     10  C10       73.1780   48.2510   42.2970 C.3    11  C0R11       0.0181
     11  C11       75.6980   48.3890   41.5520 C.3    11  C0R11       0.1522
     12  C12       77.0910   48.8270   42.0220 C.3    11  C0R11       0.0333
     13  C13       77.2160   50.2910   42.4580 C.3    11  C0R11       0.0091
     14  C14       76.1130   50.3050   43.5710 C.3    11  C0R11       0.0006
     15  C15       76.4160   51.6280   44.2560 C.3    11  C0R11       0.0004
     16  C16       77.8920   51.8510   44.1310 C.3    11  C0R11       0.0074
     17  C17       78.4900   50.6960   43.3140 C.3    11  C0R11       0.0604
     18  C18       76.9830   51.3540   41.3640 C.3    11  C0R11       0.0005
     19  C19       72.5710   49.0610   41.1300 C.3    11  C0R11       0.0041
     20  C20       79.7620   51.1380   42.5590 C.2    11  C0R11       0.1834
     21  C21       80.4170   50.0320   41.7570 C.3    11  C0R11       0.2458
     22  O1        70.6890   45.3130   43.6790 O.2    11  C0R11      -0.2914
     23  O2        75.4590   48.9690   40.3990 O.3    11  C0R11      -0.2231
     24  O3        80.0060   52.2840   42.2950 O.2    11  C0R11      -0.2933
     25  O4        80.3390   48.8640   42.3490 O.3    11  C0R11      -0.2119
@<TRIPOS>BOND
     1    23    11    1
     2    19    10    1
     3    18    13    1
     4    11    12    1
     5    11     9    1
     6    21    25    1
     7    21    20    1
     8     2     1    1
     9     2     3    1
    10     1    10    1
    11    12    13    1
    12    24    20    2
    13    10     9    1
    14    10     5    1
    15    13    17    1
    16    13    14    1
    17    20    17    1
    18     9     8    1
    19     8    14    1
    20     8     7    1
    21     3    22    2
    22     3     4    1
    23    17    16    1
    24     5     4    2
    25     5     6    1
    26    14    15    1
    27     6     7    1
    28    16    15    1
