@<TRIPOS>MOLECULE
1y5u_TL4_T_1.pdb
 28 31 0 0 0
SMALL
GASTEIGER

@<TRIPOS>ATOM
      1  C4        37.8850   24.3890   55.9930 C.ar  360  TL4360      0.0977
      2  C5        39.3170   24.4820   56.2280 C.ar  360  TL4360      0.0111
      3  C6        40.2320   25.0160   55.2300 C.ar  360  TL4360      0.0372
      4  C7        39.7510   25.5330   53.9400 C.ar  360  TL4360      0.1386
      5  O8        40.8550   26.0150   53.0510 O.3   360  TL4360     -0.4740
      6  C9        42.3200   26.3380   53.5330 C.3   360  TL4360      0.2246
      7  C10       42.8650   27.2040   52.3260 C.3   360  TL4360      0.1882
      8  O11       43.2490   26.1770   51.3880 O.3   360  TL4360     -0.3459
      9  C12       43.9640   25.2880   52.2680 C.3   360  TL4360      0.1882
     10  C13       44.1420   23.8710   51.5910 C.3   360  TL4360      0.2246
     11  O14       45.2310   23.0400   52.2450 O.3   360  TL4360     -0.4740
     12  C15       45.1660   21.6660   51.8040 C.ar  360  TL4360      0.1389
     13  C16       44.7350   21.2590   50.4560 C.ar  360  TL4360      0.0369
     14  C17       44.7000   19.8400   50.1160 C.ar  360  TL4360      0.0034
     15  C18       45.0590   18.8430   51.0940 C.ar  360  TL4360      0.0082
     16  C19       45.4670   19.2200   52.4470 C.ar  360  TL4360      0.1005
     17  C20       45.8410   18.1890   53.4900 C.2   360  TL4360      0.4767
     18  N21       46.6950   18.5210   54.4330 N.pl3 360  TL4360      0.2047
     19  N22       45.2790   16.9400   53.4370 N.pl3 360  TL4360      0.2047
     20  C23       45.5260   20.6480   52.8020 C.ar  360  TL4360      0.0449
     21  C24       42.6280   23.4760   51.7670 C.3   360  TL4360      0.1882
     22  O25       42.3780   23.8060   53.1540 O.3   360  TL4360     -0.3459
     23  C26       43.0720   25.0020   53.4740 C.3   360  TL4360      0.1882
     24  C27       38.2530   25.4690   53.8040 C.ar  360  TL4360      0.0372
     25  C28       37.3460   24.8940   54.7420 C.ar  360  TL4360      0.0111
     26  N1        35.7720   23.2830   56.6570 N.pl3 360  TL4360      0.2047
     27  C2        36.8550   23.9020   57.0530 C.2   360  TL4360      0.4766
     28  N3        37.0150   24.1000   58.4110 N.pl3 360  TL4360      0.2047
@<TRIPOS>BOND
     1    14    13   ar
     2    14    15   ar
     3    13    12   ar
     4    15    16   ar
     5     8     9    1
     6     8     7    1
     7    10    21    1
     8    10    11    1
     9    10     9    1
    10    21    22    1
    11    12    11    1
    12    12    20   ar
    13     9    23    1
    14     7     6    1
    15    16    20   ar
    16    16    17    1
    17     5     6    1
    18     5     4    1
    19    22    23    1
    20    19    17    2
    21    23     6    1
    22    17    18    1
    23    24     4   ar
    24    24    25   ar
    25     4     3   ar
    26    25     1   ar
    27     3     2   ar
    28     1     2   ar
    29     1    27    1
    30    26    27    2
    31    27    28    1
