@<TRIPOS>MOLECULE
1y5v_NE8_A_1.pdb
 23 26 0 0 0
SMALL
GASTEIGER

@<TRIPOS>ATOM
      1  C15       14.6410   14.8030   18.5710 C.3   500  NE8500      0.0272
      2  C14       14.6130   16.3060   18.9700 C.3   500  NE8500      0.0178
      3  C5        16.0180   16.7540   19.4430 C.3   500  NE8500      0.0957
      4  C4        16.4090   16.7720   20.7970 C.2   500  NE8500      0.1398
      5  N10       15.5610   16.3980   21.7880 N.2   500  NE8500     -0.3286
      6  C9        15.8860   16.4030   23.0260 C.1   500  NE8500      0.2515
      7  N23       14.9970   16.0260   23.9110 N.pl3 500  NE8500     -0.0226
      8  N8        17.0700   16.7860   23.4930 N.2   500  NE8500     -0.2501
      9  C7        18.0070   17.1580   22.6480 C.1   500  NE8500      0.2180
     10  O22       19.1280   17.4890   23.0200 O.2   500  NE8500     -0.2085
     11  C3        17.6990   17.1630   21.1690 C.2   500  NE8500      0.1236
     12  C2        18.6480   17.5720   20.2250 C.2   500  NE8500      0.0349
     13  C1        18.2660   17.5560   18.8930 C.2   500  NE8500      0.0926
     14  N11       18.9520   17.9010   17.7650 N.2   500  NE8500     -0.2431
     15  C12       18.1270   17.7140   16.7820 C.3   500  NE8500      0.2505
     16  N13       16.9990   17.2880   17.1760 N.2   500  NE8500     -0.2467
     17  C6        16.9950   17.1620   18.5190 C.2   500  NE8500      0.0795
     18  C16       13.2470   14.2260   18.3680 C.ar  500  NE8500     -0.0222
     19  C17       12.2280   14.9980   17.8270 C.ar  500  NE8500     -0.0043
     20  C18       10.9500   14.4580   17.6460 C.ar  500  NE8500     -0.0003
     21  C19       10.7160   13.1330   18.0160 C.ar  500  NE8500     -0.0000
     22  C20       11.7380   12.3470   18.5600 C.ar  500  NE8500     -0.0003
     23  C21       13.0040   12.8940   18.7400 C.ar  500  NE8500     -0.0043
@<TRIPOS>BOND
     1    15    16    1
     2    15    14    1
     3    16    17    2
     4    20    19   ar
     5    20    21   ar
     6    14    13    2
     7    19    18   ar
     8    21    22   ar
     9    18     1    1
    10    18    23   ar
    11    17    13    1
    12    17     3    1
    13    22    23   ar
    14     1     2    1
    15    13    12    1
    16     2     3    1
    17     3     4    1
    18    12    11    2
    19     4    11    1
    20     4     5    2
    21    11     9    1
    22     5     6    2
    23     9    10    2
    24     9     8    2
    25     6     8    2
    26     6     7    1
