@<TRIPOS>MOLECULE
1y5w_NEZ_A_1.pdb
 24 27 0 0 0
SMALL
GASTEIGER

@<TRIPOS>ATOM
      1  C14       14.7330   16.1440   19.0610 C.3   500  NEZ500      0.0178
      2  C5        16.0700   16.6260   19.5240 C.3   500  NEZ500      0.0957
      3  C4        16.4210   16.7110   20.9230 C.2   500  NEZ500      0.1398
      4  N10       15.4640   16.4110   21.9110 N.2   500  NEZ500     -0.3286
      5  C9        15.7490   16.4950   23.1670 C.1   500  NEZ500      0.2515
      6  N23       14.8070   16.1600   24.0500 N.pl3 500  NEZ500     -0.0226
      7  N8        16.9260   16.9340   23.6970 N.2   500  NEZ500     -0.2501
      8  C7        17.9200   17.2490   22.8520 C.1   500  NEZ500      0.2180
      9  O22       19.0490   17.6060   23.1840 O.2   500  NEZ500     -0.2085
     10  C3        17.6970   17.1760   21.3290 C.2   500  NEZ500      0.1236
     11  C2        18.7050   17.5310   20.3690 C.2   500  NEZ500      0.0349
     12  C1        18.3570   17.4220   19.0010 C.2   500  NEZ500      0.0926
     13  N11       19.0580   17.7160   17.8700 N.2   500  NEZ500     -0.2431
     14  C12       18.2640   17.4690   16.8750 C.3   500  NEZ500      0.2505
     15  N13       17.1140   17.0790   17.2520 N.2   500  NEZ500     -0.2467
     16  C6        17.0770   17.0010   18.5920 C.2   500  NEZ500      0.0795
     17  C15       13.8570   17.2790   18.5770 C.3   500  NEZ500      0.0272
     18  C16       12.6410   16.6190   17.9110 C.ar  500  NEZ500     -0.0222
     19  C17       12.2140   15.2840   18.2620 C.ar  500  NEZ500     -0.0046
     20  C18       11.0670   14.8150   17.5630 C.ar  500  NEZ500     -0.0046
     21  C19       10.4480   15.6380   16.6050 C.ar  500  NEZ500     -0.0219
     22  C24        9.2510   15.1890   15.8300 C.3   500  NEZ500      0.0310
     23  C20       10.8840   16.9480   16.2670 C.ar  500  NEZ500     -0.0046
     24  C21       12.0140   17.4480   16.9450 C.ar  500  NEZ500     -0.0046
@<TRIPOS>BOND
     1    22    21    1
     2    23    21   ar
     3    23    24   ar
     4    21    20   ar
     5    14    15    1
     6    14    13    1
     7    24    18   ar
     8    15    16    2
     9    20    19   ar
    10    13    12    2
    11    18    19   ar
    12    18    17    1
    13    17     1    1
    14    16    12    1
    15    16     2    1
    16    12    11    1
    17     1     2    1
    18     2     3    1
    19    11    10    2
    20     3    10    1
    21     3     4    2
    22    10     8    1
    23     4     5    2
    24     8     9    2
    25     8     7    2
    26     5     7    2
    27     5     6    1
