@<TRIPOS>MOLECULE
1y5x_E89_A_1.pdb
 25 28 0 0 0
SMALL
GASTEIGER

@<TRIPOS>ATOM
      1  C2        18.5380   -8.3130   20.7480 C.2   500  E89500      0.0349
      2  C3        19.5580   -7.9610   19.8060 C.2   500  E89500      0.1236
      3  C7        21.0340   -7.9440   20.1950 C.1   500  E89500      0.2180
      4  O24       21.3620   -8.2380   21.3440 O.2   500  E89500     -0.2085
      5  N8        21.9460   -7.5970   19.2190 N.2   500  E89500     -0.2501
      6  C9        21.5500   -7.2780   17.9470 C.1   500  E89500      0.2515
      7  N25       22.5160   -6.9560   17.0630 N.pl3 500  E89500     -0.0226
      8  N10       20.3070   -7.2840   17.5910 N.2   500  E89500     -0.3286
      9  C4        19.2680   -7.6050   18.4320 C.2   500  E89500      0.1398
     10  C5        17.9250   -7.5850   17.9310 C.3   500  E89500      0.0957
     11  C14       17.6220   -7.2150   16.4750 C.3   500  E89500      0.0178
     12  C15       17.0330   -5.7870   16.3090 C.3   500  E89500      0.0272
     13  C16       16.4910   -5.6360   14.8790 C.ar  500  E89500     -0.0220
     14  C21       15.2860   -6.2860   14.4880 C.ar  500  E89500     -0.0012
     15  C20       14.7850   -6.1580   13.1670 C.ar  500  E89500      0.0366
     16  C19       15.4940   -5.3660   12.1990 C.ar  500  E89500      0.1387
     17  O22       15.0180   -5.2160   10.8700 O.3   500  E89500     -0.4714
     18  C23       14.5760   -6.4600   10.2750 C.3   500  E89500      0.2525
     19  C18       16.7000   -4.7120   12.5900 C.ar  500  E89500      0.0366
     20  C17       17.1950   -4.8480   13.9250 C.ar  500  E89500     -0.0012
     21  C6        16.9240   -7.9430   18.8860 C.2   500  E89500      0.0795
     22  N13       15.5880   -8.0510   18.8210 N.2   500  E89500     -0.2467
     23  C12       15.0800   -8.4120   19.9450 C.3   500  E89500      0.2505
     24  N11       16.0170   -8.5900   20.9050 N.2   500  E89500     -0.2431
     25  C1        17.2190   -8.2870   20.2200 C.2   500  E89500      0.0926
@<TRIPOS>BOND
     1    18    17    1
     2    17    16    1
     3    16    19   ar
     4    16    15   ar
     5    19    20   ar
     6    15    14   ar
     7    20    13   ar
     8    14    13   ar
     9    13    12    1
    10    12    11    1
    11    11    10    1
    12     7     6    1
    13     8     6    2
    14     8     9    2
    15    10     9    1
    16    10    21    1
    17     6     5    2
    18     9     2    1
    19    22    21    2
    20    22    23    1
    21    21    25    1
    22     5     3    2
    23     2     3    1
    24     2     1    2
    25    23    24    1
    26     3     4    2
    27    25     1    1
    28    25    24    2
