@<TRIPOS>MOLECULE
1y60_H4M_B_1.pdb
 45 49 0 0 0
SMALL
GASTEIGER

@<TRIPOS>ATOM
      1  N1        13.9540   49.9750   -3.1920 N.2   998  H4M998     -0.2726
      2  C2        12.9870   51.0790   -2.9740 C.1   998  H4M998      0.2603
      3  NA2       11.7360   50.8670   -2.6620 N.pl3 998  H4M998     -0.0221
      4  N3        13.4800   52.3840   -3.1230 N.2   998  H4M998     -0.2515
      5  C4        14.7890   52.7680   -3.4560 C.1   998  H4M998      0.2219
      6  OH4       15.0930   53.9970   -3.5540 O.2   998  H4M998     -0.2109
      7  C4A       15.7440   51.7230   -3.6810 C.3   998  H4M998      0.2774
      8  N5        17.2090   51.9630   -4.0620 N.3   998  H4M998     -0.2276
      9  C6        18.2000   50.7650   -4.2780 C.3   998  H4M998      0.1021
     10  C7        17.4740   49.3890   -4.6520 C.3   998  H4M998      0.1303
     11  C7M       17.0080   49.3740   -6.1480 C.3   998  H4M998      0.0287
     12  N8        16.2470   49.2040   -3.7560 N.2   998  H4M998     -0.2117
     13  C8A       15.2920   50.2860   -3.5330 C.1   998  H4M998      0.1049
     14  C9        19.0400   50.6840   -2.8780 C.3   998  H4M998      0.0907
     15  C9M       20.5190   50.8350   -3.1310 C.3   998  H4M998      0.0230
     16  C10       18.0840   52.7770   -3.1640 C.3   998  H4M998      0.1705
     17  N10       18.3930   51.7970   -2.1180 N.pl3 998  H4M998     -0.2940
     18  C11       20.1190   53.5360    1.5540 C.ar  998  H4M998     -0.0195
     19  C12       19.7700   54.4010    0.4510 C.ar  998  H4M998     -0.0029
     20  C13       19.2220   53.8390   -0.7620 C.ar  998  H4M998      0.0142
     21  C14       19.0120   52.3950   -0.8900 C.ar  998  H4M998      0.0488
     22  C15       19.3760   51.5440    0.2240 C.ar  998  H4M998      0.0142
     23  C16       19.9260   52.1080    1.4340 C.ar  998  H4M998     -0.0029
     24  CX1       20.6730   54.1260    2.8690 C.3   998  H4M998      0.0620
     25  CX2       22.1470   54.4950    2.8350 C.3   998  H4M998      0.1891
     26  CX3       22.4870   55.1680    4.1920 C.3   998  H4M998      0.2150
     27  CX4       23.4380   54.3680    5.1210 C.3   998  H4M998      0.2141
     28  CX5       24.8640   54.2620    4.5410 C.3   998  H4M998      0.1803
     29  OX2       22.8830   53.3020    2.6400 O.3   998  H4M998     -0.2200
     30  OX3       22.9990   56.4590    3.9330 O.3   998  H4M998     -0.2176
     31  OX4       22.8920   53.0740    5.4000 O.3   998  H4M998     -0.2176
     32  OX5       25.7110   55.2010    5.2090 O.3   998  H4M998     -0.3257
     33  O5J       30.0540   53.4210    1.6170 O.3   998  H4M998     -0.2675
     34  C5J       29.4830   53.4400    2.9180 C.3   998  H4M998      0.1859
     35  C4J       28.0480   53.8400    2.8940 C.3   998  H4M998      0.1808
     36  O4J       27.4960   53.8060    4.2200 O.3   998  H4M998     -0.3257
     37  C3J       27.9560   55.2570    2.3310 C.3   998  H4M998      0.2167
     38  O3J       27.2110   55.2590    1.1280 O.3   998  H4M998     -0.2175
     39  C2J       27.3010   56.0930    3.4390 C.3   998  H4M998      0.2404
     40  O2J       26.0940   56.6830    2.9800 O.3   998  H4M998     -0.2149
     41  C1J       27.0460   55.1150    4.6220 C.3   998  H4M998      0.2695
     42  PA        31.2460   52.4370    1.3390 P.3   998  H4M998      0.5327
     43  O1A       32.1470   53.0220    0.2820 O.2   998  H4M998     -0.2224
     44  O2A       32.0580   52.2040    2.6250 O.3   998  H4M998     -0.1145
     45  O3A       30.6880   51.0630    0.8410 O.3   998  H4M998     -0.1145
@<TRIPOS>BOND
     1    11    10    1
     2    10     9    1
     3    10    12    1
     4     9     8    1
     5     9    14    1
     6     8     7    1
     7     8    16    1
     8    12    13    2
     9     7    13    1
    10     7     5    1
    11     6     5    2
    12    13     1    2
    13     5     4    2
    14     1     2    2
    15    16    17    1
    16    15    14    1
    17     4     2    2
    18     2     3    1
    19    14    17    1
    20    17    21    1
    21    21    20   ar
    22    21    22   ar
    23    20    19   ar
    24    22    23   ar
    25    43    42    2
    26    19    18   ar
    27    45    42    1
    28    38    37    1
    29    42    33    1
    30    42    44    1
    31    23    18   ar
    32    18    24    1
    33    33    34    1
    34    37    35    1
    35    37    39    1
    36    29    25    1
    37    25    24    1
    38    25    26    1
    39    35    34    1
    40    35    36    1
    41    40    39    1
    42    39    41    1
    43    30    26    1
    44    26    27    1
    45    36    41    1
    46    28    27    1
    47    28    32    1
    48    41    32    1
    49    27    31    1
