@<TRIPOS>MOLECULE
1y63_ADP_A_1.pdb
 27 29 0 0 0
SMALL
GASTEIGER

@<TRIPOS>ATOM
      1  PB        36.3480    5.1420   17.0850 P.3   301  ADP301      0.5373
      2  O1B       37.1830    6.1570   16.3290 O.3   301  ADP301     -0.1143
      3  O2B       35.5260    5.8280   18.1560 O.3   301  ADP301     -0.1143
      4  O3B       35.5430    4.2030   16.1910 O.2   301  ADP301     -0.2221
      5  PA        37.8560    2.7280   17.6670 P.3   301  ADP301      0.2231
      6  O1A       36.7930    1.7130   18.0300 O.3   301  ADP301     -0.4370
      7  O2A       38.3900    2.6620   16.2370 O.2   301  ADP301     -0.5169
      8  O3A       37.3690    4.2110   17.9680 O.3   301  ADP301     -0.2261
      9  O5'       39.0840    2.6150   18.6920 O.3   301  ADP301     -0.3111
     10  C5'       40.4010    2.8660   18.2230 C.3   301  ADP301      0.1813
     11  C4'       41.2990    1.9350   19.0010 C.3   301  ADP301      0.1821
     12  O4'       41.1620    2.1960   20.3950 O.3   301  ADP301     -0.3135
     13  C3'       40.9490    0.4650   18.8480 C.3   301  ADP301      0.2184
     14  O3'       41.4760   -0.1230   17.6620 O.3   301  ADP301     -0.2174
     15  C2'       41.5490   -0.1130   20.1000 C.3   301  ADP301      0.2570
     16  O2'       42.9650   -0.1960   19.9810 O.3   301  ADP301     -0.2130
     17  C1'       41.2920    0.9710   21.1120 C.3   301  ADP301      0.3186
     18  N9        40.0880    0.8440   21.9520 N.pl3 301  ADP301     -0.1439
     19  C8        38.7800    1.1520   21.6660 C.3   301  ADP301      0.3377
     20  N7        37.9900    0.9590   22.7450 N.2   301  ADP301     -0.2095
     21  C5        38.8200    0.5360   23.7600 C.2   301  ADP301      0.2526
     22  C6        38.6100    0.1700   25.1510 C.2   301  ADP301      0.4393
     23  N6        37.3800    0.2330   25.6970 N.pl3 301  ADP301      0.2180
     24  N1        39.7050   -0.2040   25.8470 N.2   301  ADP301      0.0021
     25  C2        40.9360   -0.2390   25.2710 C.3   301  ADP301      0.5254
     26  N3        41.2330    0.0810   23.9980 N.2   301  ADP301     -0.0055
     27  C4        40.1850    0.4680   23.2180 C.2   301  ADP301      0.3518
@<TRIPOS>BOND
     1     4     1    2
     2     7     5    2
     3     2     1    1
     4     1     8    1
     5     1     3    1
     6    14    13    1
     7     5     8    1
     8     5     6    1
     9     5     9    1
    10    10     9    1
    11    10    11    1
    12    13    11    1
    13    13    15    1
    14    11    12    1
    15    16    15    1
    16    15    17    1
    17    12    17    1
    18    17    18    1
    19    19    18    1
    20    19    20    1
    21    18    27    1
    22    20    21    2
    23    27    21    1
    24    27    26    2
    25    21    22    1
    26    26    25    1
    27    22    23    1
    28    22    24    2
    29    25    24    1
