@<TRIPOS>MOLECULE
1y64_ATP_A_1.pdb
 31 33 0 0 0
SMALL
GASTEIGER

@<TRIPOS>ATOM
      1  PG       149.6940   30.5670   59.2000 P.3   2000  ATP2000     0.5373
      2  O1G      149.7850   31.9990   58.8480 O.3   2000  ATP2000    -0.1143
      3  O2G      148.4260   29.8510   58.5370 O.2   2000  ATP2000    -0.2221
      4  O3G      150.9780   29.7270   58.7410 O.3   2000  ATP2000    -0.1143
      5  PB       149.2570   28.8480   61.3530 P.3   2000  ATP2000     0.2277
      6  O1B      147.9850   28.8740   62.1180 O.3   2000  ATP2000    -0.4368
      7  O2B      149.3500   27.9290   60.1860 O.2   2000  ATP2000    -0.5168
      8  O3B      149.5370   30.3340   60.7800 O.3   2000  ATP2000    -0.2258
      9  PA       150.7570   28.9080   63.8590 P.3   2000  ATP2000     0.2189
     10  O1A      150.7350   30.3800   64.0280 O.2   2000  ATP2000    -0.5170
     11  O2A      149.8840   28.1010   64.7140 O.3   2000  ATP2000    -0.4371
     12  O3A      150.5270   28.5390   62.3060 O.3   2000  ATP2000    -0.2700
     13  O5'      152.2710   28.3930   64.0100 O.3   2000  ATP2000    -0.3112
     14  C5'      152.5370   26.9900   64.0880 C.3   2000  ATP2000     0.1813
     15  C4'      153.8690   26.5900   63.4520 C.3   2000  ATP2000     0.1821
     16  O4'      155.0000   27.2810   64.0070 O.3   2000  ATP2000    -0.3135
     17  C3'      154.1020   25.1000   63.7000 C.3   2000  ATP2000     0.2184
     18  O3'      153.6200   24.3480   62.5880 O.3   2000  ATP2000    -0.2174
     19  C2'      155.6280   25.0440   63.7500 C.3   2000  ATP2000     0.2570
     20  O2'      156.1750   25.1830   62.4380 O.3   2000  ATP2000    -0.2130
     21  C1'      155.9020   26.3050   64.5590 C.3   2000  ATP2000     0.3186
     22  N9       155.5820   26.1420   65.9990 N.pl3 2000  ATP2000    -0.1439
     23  C8       154.4290   25.6830   66.4970 C.3   2000  ATP2000     0.3377
     24  N7       154.5110   25.7220   67.8290 N.2   2000  ATP2000    -0.2095
     25  C5       155.6930   26.1930   68.1780 C.2   2000  ATP2000     0.2526
     26  C6       156.3370   26.4590   69.5190 C.2   2000  ATP2000     0.4393
     27  N6       155.6970   26.2040   70.6270 N.pl3 2000  ATP2000     0.2180
     28  N1       157.6080   26.9650   69.4700 N.2   2000  ATP2000     0.0021
     29  C2       158.2510   27.2190   68.1750 C.3   2000  ATP2000     0.5254
     30  N3       157.6260   26.9580   67.0320 N.2   2000  ATP2000    -0.0055
     31  C4       156.3910   26.4610   67.0030 C.2   2000  ATP2000     0.3518
@<TRIPOS>BOND
     1     3     1    2
     2     4     1    1
     3     2     1    1
     4     1     8    1
     5     7     5    2
     6     8     5    1
     7     5     6    1
     8     5    12    1
     9    12     9    1
    10    20    19    1
    11    18    17    1
    12    15    17    1
    13    15    16    1
    14    15    14    1
    15    17    19    1
    16    19    21    1
    17     9    13    1
    18     9    10    2
    19     9    11    1
    20    16    21    1
    21    13    14    1
    22    21    22    1
    23    22    23    1
    24    22    31    1
    25    23    24    1
    26    31    30    2
    27    31    25    1
    28    30    29    1
    29    24    25    2
    30    29    28    1
    31    25    26    1
    32    28    26    2
    33    26    27    1
