@<TRIPOS>MOLECULE
1y65_NAG_A_1.pdb
 15 15 0 0 0
SMALL
GASTEIGER

@<TRIPOS>ATOM
      1  C1        10.0560   10.3190   37.6640 C.2   501  NAG501      0.3397
      2  C2         9.1450    9.7650   36.5450 C.3   501  NAG501      0.2261
      3  C3        10.0470    9.4060   35.3560 C.3   501  NAG501      0.2164
      4  C4        10.9900   10.5950   35.0000 C.3   501  NAG501      0.2267
      5  C5        11.6910   11.1670   36.2670 C.3   501  NAG501      0.2343
      6  C6        12.5240   12.4170   35.9760 C.3   501  NAG501      0.2281
      7  C7         7.1430    8.4140   36.6270 C.2   501  NAG501      0.2424
      8  C8         6.4310    7.2210   37.1860 C.3   501  NAG501      0.0964
      9  N2         8.4040    8.6150   37.0100 N.am  501  NAG501     -0.1930
     10  O1        10.6080    9.3060   38.4930 O.2   501  NAG501     -0.2481
     11  O3         9.3170    8.9540   34.2360 O.3   501  NAG501     -0.2178
     12  O4        11.9000   10.1820   33.9700 O.3   501  NAG501     -0.2163
     13  O5        10.7540   11.5160   37.3180 O.3   501  NAG501     -0.4455
     14  O6        11.6180   13.4750   35.7380 O.3   501  NAG501     -0.2163
     15  O7         6.5690    9.1640   35.8460 O.2   501  NAG501     -0.2733
@<TRIPOS>BOND
     1    12     4    1
     2    11     3    1
     3     4     3    1
     4     4     5    1
     5     3     2    1
     6    14     6    1
     7    15     7    2
     8     6     5    1
     9     5    13    1
    10     2     9    1
    11     2     1    1
    12     7     9   am
    13     7     8    1
    14    13     1    1
    15     1    10    2
