@<TRIPOS>MOLECULE
1y6a_AAZ_A_1.pdb
 31 34 0 0 0
SMALL
GASTEIGER

@<TRIPOS>ATOM
      1  O4        -0.2730   29.6670   22.7710 O.2   201  AAZ201     -0.1686
      2  S3        -0.4270   29.9540   21.3770 S.O2  201  AAZ201      0.0087
      3  O5         0.0570   31.2530   21.0240 O.2   201  AAZ201     -0.1686
      4  C2        -2.0600   29.9360   21.0470 C.3   201  AAZ201      0.1560
      5  C1        -2.3170   29.7940   19.5600 C.3   201  AAZ201      0.0276
      6  C6         0.3640   28.7510   20.6130 C.ar  201  AAZ201      0.1072
      7  C7         0.0070   27.4350   20.9020 C.ar  201  AAZ201      0.0215
      8  C8         0.6640   26.3600   20.2920 C.ar  201  AAZ201      0.0396
      9  C9         1.6950   26.5740   19.3650 C.ar  201  AAZ201      0.1540
     10  O10        2.3450   25.5330   18.7420 O.3   201  AAZ201     -0.4701
     11  C11        2.1930   24.1360   19.0580 C.3   201  AAZ201      0.2525
     12  C12        2.0920   27.8870   19.0640 C.ar  201  AAZ201      0.1102
     13  C31        1.4050   28.9620   19.6890 C.ar  201  AAZ201      0.0381
     14  N13        3.0060   28.0930   18.0510 N.pl3 201  AAZ201     -0.1585
     15  C14        2.9010   29.1020   17.1830 C.ar  201  AAZ201      0.3135
     16  N15        3.7780   29.4660   16.2370 N.ar  201  AAZ201     -0.1914
     17  C16        3.3460   30.5380   15.6730 C.ar  201  AAZ201      0.1409
     18  C17        2.1770   30.9240   16.2160 C.ar  201  AAZ201      0.1676
     19  O18        1.7930   30.0030   17.2280 O.2   201  AAZ201     -0.4225
     20  C19        1.2200   32.0310   15.9260 C.ar  201  AAZ201      0.0363
     21  C20        1.3680   32.9450   14.8930 C.ar  201  AAZ201      0.0031
     22  C21        0.3690   33.9030   14.7000 C.ar  201  AAZ201      0.0001
     23  C22       -0.7820   33.9220   15.5170 C.ar  201  AAZ201      0.0015
     24  C23       -0.9380   32.9730   16.5340 C.ar  201  AAZ201      0.0177
     25  C24        0.0620   32.0450   16.7200 C.ar  201  AAZ201      0.0046
     26  C25       -2.1340   32.9830   17.4360 C.ar  201  AAZ201      0.0813
     27  C26       -3.3510   32.3840   17.0640 C.ar  201  AAZ201      0.0191
     28  C27       -4.4450   32.4480   17.9270 C.ar  201  AAZ201      0.0031
     29  C28       -4.3030   33.0910   19.1590 C.ar  201  AAZ201      0.0207
     30  C29       -3.0840   33.6790   19.5030 C.ar  201  AAZ201      0.0988
     31  N30       -2.0350   33.6120   18.6520 N.ar  201  AAZ201     -0.2438
@<TRIPOS>BOND
     1    22    21   ar
     2    22    23   ar
     3    21    20   ar
     4    23    24   ar
     5    17    18   ar
     6    17    16   ar
     7    20    18    1
     8    20    25   ar
     9    18    19   ar
    10    16    15   ar
    11    24    25   ar
    12    24    26    1
    13    27    26   ar
    14    27    28   ar
    15    15    19   ar
    16    15    14    1
    17    26    31   ar
    18    28    29   ar
    19    14    12    1
    20    31    30   ar
    21    10    11    1
    22    10     9    1
    23    12     9   ar
    24    12    13   ar
    25    29    30   ar
    26     9     8   ar
    27     5     4    1
    28    13     6   ar
    29     8     7   ar
    30     6     7   ar
    31     6     2    1
    32     3     2    2
    33     4     2    1
    34     2     1    2
