@<TRIPOS>MOLECULE
1y6b_AAX_A_1.pdb
 34 38 0 0 0
SMALL
GASTEIGER

@<TRIPOS>ATOM
      1  O29       -0.0370   31.0440   21.3050 O.2   201  AAX201     -0.1516
      2  S27       -0.6050   29.7780   21.5610 S.O2  201  AAX201      0.0769
      3  O28       -0.4770   29.4350   22.9410 O.2   201  AAX201     -0.1516
      4  N30       -2.1000   29.8570   21.0210 N.3   201  AAX201     -0.0778
      5  C31       -2.2810   30.1240   19.5940 C.3   201  AAX201      0.1154
      6  C32       -3.6970   30.5820   19.2470 C.3   201  AAX201      0.0194
      7  C34       -3.8610   31.1220   17.8270 C.3   201  AAX201      0.0015
      8  C33       -3.9060   32.0700   19.0180 C.3   201  AAX201      0.0015
      9  C6         0.2570   28.6170   20.7720 C.ar  201  AAX201      0.1250
     10  C5         0.0050   27.2850   21.0760 C.ar  201  AAX201      0.0232
     11  C4         0.7400   26.2640   20.4720 C.ar  201  AAX201      0.0396
     12  C7         1.2700   28.8870   19.8200 C.ar  201  AAX201      0.0397
     13  C8         2.0060   27.8680   19.1720 C.ar  201  AAX201      0.1102
     14  C3         1.7270   26.5530   19.5100 C.ar  201  AAX201      0.1540
     15  O2         2.4440   25.5730   18.8760 O.3   201  AAX201     -0.4701
     16  C1         2.2720   24.1640   19.0970 C.3   201  AAX201      0.2525
     17  N9         2.9390   28.1000   18.1570 N.pl3 201  AAX201     -0.1585
     18  C10        2.8590   29.1080   17.2510 C.ar  201  AAX201      0.3135
     19  O14        1.8350   29.9810   17.2650 O.2   201  AAX201     -0.4225
     20  C13        2.1640   30.9010   16.3250 C.ar  201  AAX201      0.1676
     21  C12        3.3500   30.5130   15.7030 C.ar  201  AAX201      0.1409
     22  N11        3.8110   29.3800   16.3060 N.ar  201  AAX201     -0.1914
     23  C15        1.2040   31.9670   16.0500 C.ar  201  AAX201      0.0362
     24  C20        1.1520   32.5770   14.7970 C.ar  201  AAX201      0.0031
     25  C19        0.1910   33.5550   14.5390 C.ar  201  AAX201      0.0016
     26  C18       -0.7690   33.8790   15.5200 C.ar  201  AAX201      0.0001
     27  C17       -0.7460   33.1990   16.7340 C.ar  201  AAX201      0.0001
     28  C16        0.2190   32.2500   17.0030 C.ar  201  AAX201      0.0031
     29  C21        0.1890   34.2330   13.2050 C.ar  201  AAX201      0.0192
     30  C26        0.0020   35.6210   13.0930 C.ar  201  AAX201      0.0988
     31  N25        0.0310   36.2500   11.8970 N.ar  201  AAX201     -0.2423
     32  C24        0.2250   35.5520   10.7720 C.ar  201  AAX201      0.0989
     33  C23        0.4280   34.1700   10.8220 C.ar  201  AAX201      0.0207
     34  C22        0.3910   33.4920   12.0440 C.ar  201  AAX201      0.0031
@<TRIPOS>BOND
     1    32    33   ar
     2    32    31   ar
     3    33    34   ar
     4    31    30   ar
     5    34    29   ar
     6    30    29   ar
     7    29    25    1
     8    25    24   ar
     9    25    26   ar
    10    24    23   ar
    11    26    27   ar
    12    21    22   ar
    13    21    20   ar
    14    23    20    1
    15    23    28   ar
    16    22    18   ar
    17    20    19   ar
    18    27    28   ar
    19    18    19   ar
    20    18    17    1
    21     7     8    1
    22     7     6    1
    23    17    13    1
    24    15    16    1
    25    15    14    1
    26     8     6    1
    27    13    14   ar
    28    13    12   ar
    29     6     5    1
    30    14    11   ar
    31     5     4    1
    32    12     9   ar
    33    11    10   ar
    34     9    10   ar
    35     9     2    1
    36     4     2    1
    37     1     2    2
    38     2     3    2
