@<TRIPOS>MOLECULE
1y6f_UPG_A_1.pdb
 36 38 0 0 0
SMALL
GASTEIGER

@<TRIPOS>ATOM
      1  N1        26.0560  -13.0340   51.5280 N.am  501  UPG501     -0.1766
      2  C2        27.3790  -12.8790   51.8820 C.1   501  UPG501      0.2845
      3  N3        27.5830  -12.3600   53.1340 N.2   501  UPG501     -0.2452
      4  C4        26.6190  -11.9990   54.0480 C.1   501  UPG501      0.2182
      5  C5        25.2750  -12.2190   53.6170 C.2   501  UPG501      0.1242
      6  C6        25.0460  -12.7200   52.4020 C.2   501  UPG501      0.0929
      7  O2        28.3020  -13.1840   51.1450 O.2   501  UPG501     -0.1918
      8  O4        26.9590  -11.4840   55.1080 O.2   501  UPG501     -0.2085
      9  C1C       25.7660  -13.5100   50.1720 C.3   501  UPG501      0.2401
     10  C2C       24.9920  -14.8210   50.0690 C.3   501  UPG501      0.2319
     11  O2C       25.8880  -15.9090   50.0890 O.3   501  UPG501     -0.2157
     12  C3C       24.3290  -14.6520   48.7040 C.3   501  UPG501      0.2158
     13  C4C       23.9730  -13.1720   48.7010 C.3   501  UPG501      0.1799
     14  O4C       24.9560  -12.5330   49.5550 O.3   501  UPG501     -0.3320
     15  O3C       25.2690  -14.9140   47.6680 O.3   501  UPG501     -0.2175
     16  C5C       22.5860  -12.8440   49.2030 C.3   501  UPG501      0.1813
     17  O5C       21.6370  -13.1120   48.1820 O.3   501  UPG501     -0.3112
     18  PA        20.2290  -13.7820   48.4870 P.3   501  UPG501      0.2189
     19  O1A       19.4590  -13.6930   47.2300 O.2   501  UPG501     -0.5170
     20  O2A       20.4720  -15.1140   49.0990 O.3   501  UPG501     -0.4371
     21  O3A       19.5670  -12.8250   49.6310 O.3   501  UPG501     -0.2703
     22  PB        19.1400  -11.2510   49.5860 P.3   501  UPG501      0.2208
     23  O1B       17.8260  -11.1280   50.2530 O.3   501  UPG501     -0.4371
     24  O2B       20.2880  -10.4880   50.1140 O.2   501  UPG501     -0.5170
     25  O3B       18.9620  -10.9620   48.0250 O.3   501  UPG501     -0.2857
     26  C1'       17.9730  -10.0750   47.3990 C.3   501  UPG501      0.2742
     27  C2'       16.5170  -10.5310   47.5150 C.3   501  UPG501      0.2409
     28  C3'       16.4340  -11.9500   46.9410 C.3   501  UPG501      0.2198
     29  C4'       16.8870  -11.9440   45.4680 C.3   501  UPG501      0.2144
     30  C5'       18.2610  -11.2570   45.3030 C.3   501  UPG501      0.1835
     31  C6'       18.6170  -10.9900   43.8490 C.3   501  UPG501      0.2142
     32  O2'       16.0810  -10.4930   48.8650 O.3   501  UPG501     -0.2149
     33  O3'       15.1090  -12.4550   47.0460 O.3   501  UPG501     -0.2174
     34  O4'       16.9760  -13.2850   45.0030 O.3   501  UPG501     -0.2176
     35  O5'       18.3030   -9.9740   45.9970 O.3   501  UPG501     -0.3254
     36  O6'       17.4740  -11.0610   43.0000 O.3   501  UPG501     -0.2176
@<TRIPOS>BOND
     1    36    31    1
     2    31    30    1
     3    34    29    1
     4    30    29    1
     5    30    35    1
     6    29    28    1
     7    35    26    1
     8    28    33    1
     9    28    27    1
    10    19    18    2
    11    26    27    1
    12    26    25    1
    13    27    32    1
    14    15    12    1
    15    25    22    1
    16    17    18    1
    17    17    16    1
    18    18    20    1
    19    18    21    1
    20    13    12    1
    21    13    16    1
    22    13    14    1
    23    12    10    1
    24    14     9    1
    25    22    21    1
    26    22    24    2
    27    22    23    1
    28    10    11    1
    29    10     9    1
    30     9     1    1
    31     7     2    2
    32     1     2   am
    33     1     6    1
    34     2     3    2
    35     6     5    2
    36     3     4    2
    37     5     4    1
    38     4     8    2
