@<TRIPOS>MOLECULE
1y6f_UDP_B_1.pdb
 25 26 0 0 0
SMALL
GASTEIGER

@<TRIPOS>ATOM
      1  N1        50.5110   16.2710   73.8090 N.am  601  UDP601     -0.1766
      2  C2        51.7940   16.4500   73.3550 C.1   601  UDP601      0.2845
      3  N3        52.0400   15.9490   72.1010 N.2   601  UDP601     -0.2452
      4  C4        51.1360   15.3210   71.2690 C.1   601  UDP601      0.2182
      5  C5        49.8070   15.2110   71.8010 C.2   601  UDP601      0.1242
      6  C6        49.5470   15.6820   73.0270 C.2   601  UDP601      0.0929
      7  O2        52.6470   17.0240   74.0170 O.2   601  UDP601     -0.1918
      8  O4        51.5170   14.8900   70.1860 O.2   601  UDP601     -0.2085
      9  C1'       50.2410   16.7150   75.1770 C.3   601  UDP601      0.2401
     10  C2'       49.2560   17.8640   75.3410 C.3   601  UDP601      0.2319
     11  O2'       49.8860   19.1100   75.1200 O.3   601  UDP601     -0.2157
     12  C3'       48.8560   17.6620   76.7970 C.3   601  UDP601      0.2158
     13  C4'       48.7830   16.1370   76.9030 C.3   601  UDP601      0.1799
     14  O4'       49.6810   15.6320   75.8830 O.3   601  UDP601     -0.3320
     15  O3'       49.8950   18.1690   77.6360 O.3   601  UDP601     -0.2175
     16  C5'       47.4150   15.5280   76.6950 C.3   601  UDP601      0.1813
     17  O5'       46.5830   15.8050   77.8170 O.3   601  UDP601     -0.3111
     18  PA        45.0660   16.2520   77.6410 P.3   601  UDP601      0.2231
     19  O1A       44.4020   16.0560   78.9520 O.3   601  UDP601     -0.4370
     20  O2A       45.0310   17.5950   77.0030 O.2   601  UDP601     -0.5169
     21  O3A       44.4830   15.1910   76.5500 O.3   601  UDP601     -0.2261
     22  PB        44.3900   13.5640   76.5970 P.3   601  UDP601      0.5373
     23  O1B       42.9970   13.1950   76.2450 O.3   601  UDP601     -0.1143
     24  O2B       45.5240   12.9980   75.8190 O.2   601  UDP601     -0.2221
     25  O3B       44.6280   13.2370   78.1390 O.3   601  UDP601     -0.1143
@<TRIPOS>BOND
     1     8     4    2
     2     4     5    1
     3     4     3    2
     4     5     6    2
     5     3     2    2
     6     6     1    1
     7     2     1   am
     8     2     7    2
     9     1     9    1
    10    11    10    1
    11     9    10    1
    12     9    14    1
    13    10    12    1
    14    24    22    2
    15    14    13    1
    16    23    22    1
    17    21    22    1
    18    21    18    1
    19    22    25    1
    20    16    13    1
    21    16    17    1
    22    12    13    1
    23    12    15    1
    24    20    18    2
    25    18    17    1
    26    18    19    1
