@<TRIPOS>MOLECULE
1y6g_UDP_A_1.pdb
 25 26 0 0 0
SMALL
GASTEIGER

@<TRIPOS>ATOM
      1  N1        28.8090   88.2300   10.2270 N.am  1404  UDP1404    -0.1766
      2  C2        27.6080   88.2870   10.8870 C.1   1404  UDP1404     0.2845
      3  N3        27.6250   87.7660   12.1560 N.2   1404  UDP1404    -0.2452
      4  C4        28.7130   87.2220   12.8120 C.1   1404  UDP1404     0.2182
      5  C5        29.9190   87.2110   12.0540 C.2   1404  UDP1404     0.1242
      6  C6        29.9250   87.7050   10.8200 C.2   1404  UDP1404     0.0929
      7  O2        26.6060   88.7690   10.3920 O.2   1404  UDP1404    -0.1918
      8  O4        28.6020   86.8760   13.9870 O.2   1404  UDP1404    -0.2085
      9  C1'       28.8610   88.7400    8.8570 C.3   1404  UDP1404     0.2401
     10  C2'       29.8590   89.8830    8.6900 C.3   1404  UDP1404     0.2319
     11  O2'       29.2720   91.1330    8.9930 O.3   1404  UDP1404    -0.2157
     12  C3'       30.2250   89.7410    7.2180 C.3   1404  UDP1404     0.2158
     13  C4'       30.2400   88.2270    7.0300 C.3   1404  UDP1404     0.1799
     14  O4'       29.3370   87.6910    8.0380 O.3   1404  UDP1404    -0.3320
     15  O3'       29.2280   90.3480    6.4020 O.3   1404  UDP1404    -0.2175
     16  C5'       31.6100   87.5930    7.1470 C.3   1404  UDP1404     0.1813
     17  O5'       32.3920   87.9620    6.0240 O.3   1404  UDP1404    -0.3111
     18  PA        33.9810   87.9170    6.0470 P.3   1404  UDP1404     0.2231
     19  O1A       34.4560   87.3680    4.7530 O.2   1404  UDP1404    -0.5169
     20  O2A       34.4880   89.2300    6.5080 O.3   1404  UDP1404    -0.4370
     21  O3A       34.2920   86.8190    7.2050 O.3   1404  UDP1404    -0.2261
     22  PB        34.4420   85.2030    7.0920 P.3   1404  UDP1404     0.5373
     23  O1B       35.8820   84.8780    6.9230 O.3   1404  UDP1404    -0.1143
     24  O2B       33.6780   84.5990    8.2130 O.3   1404  UDP1404    -0.1143
     25  O3B       33.6860   84.8860    5.7290 O.2   1404  UDP1404    -0.2221
@<TRIPOS>BOND
     1    19    18    2
     2    25    22    2
     3    17    18    1
     4    17    16    1
     5    18    20    1
     6    18    21    1
     7    15    12    1
     8    23    22    1
     9    13    16    1
    10    13    12    1
    11    13    14    1
    12    22    21    1
    13    22    24    1
    14    12    10    1
    15    14     9    1
    16    10     9    1
    17    10    11    1
    18     9     1    1
    19     1     6    1
    20     1     2   am
    21     7     2    2
    22     6     5    2
    23     2     3    2
    24     5     4    1
    25     3     4    2
    26     4     8    2
