@<TRIPOS>MOLECULE
1y6o_MJI_A_1.pdb
 17 16 0 0 0
SMALL
GASTEIGER

@<TRIPOS>ATOM
      1  C1        -1.3820   -7.5270   40.0340 C.3   217  MJI217      0.1747
      2  O1        -1.5160   -8.6670   39.2240 O.3   217  MJI217     -0.3484
      3  C2        -0.5360   -6.4600   39.3670 C.3   217  MJI217      0.1806
      4  O2        -0.0840   -5.5370   40.3770 O.3   217  MJI217     -0.3114
      5  C3         0.6810   -7.0560   38.7080 C.3   217  MJI217      0.1749
      6  O3         1.4100   -6.0450   38.0600 O.3   217  MJI217     -0.3430
      7  C31        2.6040   -6.5870   37.5400 C.3   217  MJI217      0.2459
      8  C32        2.8850   -6.0820   36.1200 C.3   217  MJI217      0.4248
      9  F31        1.8210   -6.0080   35.2750 F     217  MJI217     -0.1674
     10  F32        3.7390   -6.8830   35.5350 F     217  MJI217     -0.1674
     11  F33        3.4560   -4.8760   36.1490 F     217  MJI217     -0.1674
     12  P2        -0.7400   -4.0810   40.5450 P.3   217  MJI217      0.2141
     13  O21       -0.5320   -3.6230   41.9720 O.3   217  MJI217     -0.4373
     14  O22       -2.1440   -4.0990   39.9790 O.2   217  MJI217     -0.5172
     15  C2P        1.6040   -3.1780   39.7070 C.3   217  MJI217      0.1815
     16  O23        0.1750   -3.1690   39.5900 O.3   217  MJI217     -0.3114
     17  C11       -1.3830   -9.8300   40.0020 C.3   217  MJI217      0.1742
@<TRIPOS>BOND
     1     9     8    1
     2    10     8    1
     3     8    11    1
     4     8     7    1
     5     7     6    1
     6     6     5    1
     7     5     3    1
     8     2    17    1
     9     2     1    1
    10     3     1    1
    11     3     4    1
    12    16    15    1
    13    16    12    1
    14    14    12    2
    15     4    12    1
    16    12    13    1
