@<TRIPOS>MOLECULE
1y6q_TDI_A_1.pdb
 20 22 0 0 0
SMALL
GASTEIGER

@<TRIPOS>ATOM
      1  C2        53.7900   75.1190   21.0330 C.3   233  TDI233      0.3922
      2  C4        55.6790   74.3550   19.8430 C.2   233  TDI233      0.1045
      3  C5        54.8770   74.0900   18.7010 C.2   233  TDI233      0.1884
      4  C6        53.4970   74.3660   18.7960 C.2   233  TDI233      0.4315
      5  CS5       56.5700   68.2030   23.2220 C.3   233  TDI233      0.0692
      6  S         55.7080   69.7770   23.5630 S.3   233  TDI233     -0.1392
      7  C5'       56.9130   70.5670   22.4960 C.3   233  TDI233      0.0615
      8  C4'       58.2510   71.2650   22.3400 C.3   233  TDI233      0.0586
      9  C1'       58.5780   72.0500   21.0660 C.3   233  TDI233      0.0759
     10  N1'       58.8430   73.4480   21.5300 N.3   233  TDI233     -0.2666
     11  C10       58.2450   74.0610   20.3350 C.3   233  TDI233      0.1023
     12  C9        57.0260   73.9740   19.4560 C.2   233  TDI233      0.0321
     13  C8        56.9820   73.5270   18.1810 C.2   233  TDI233      0.0978
     14  N7        55.7000   73.5930   17.7220 N.2   233  TDI233     -0.2350
     15  N6        52.6690   74.1190   17.7070 N.pl3 233  TDI233      0.2177
     16  N1        52.9990   74.8770   19.9740 N.2   233  TDI233     -0.0278
     17  N3        55.1080   74.8660   20.9800 N.2   233  TDI233     -0.2171
     18  C2'       57.8580   73.6670   22.6390 C.3   233  TDI233      0.1057
     19  C3'       57.8620   72.3290   23.4120 C.3   233  TDI233      0.1700
     20  O3'       59.1610   72.3450   24.0480 O.3   233  TDI233     -0.2216
@<TRIPOS>BOND
     1    15     4    1
     2    14    13    1
     3    14     3    2
     4    13    12    2
     5     3     4    1
     6     3     2    1
     7     4    16    2
     8    12     2    1
     9    12    11    1
    10     2    17    2
    11    16     1    1
    12    11    10    1
    13    17     1    1
    14     9    10    1
    15     9     8    1
    16    10    18    1
    17     8     7    1
    18     8    19    1
    19     7     6    1
    20    18    19    1
    21     5     6    1
    22    19    20    1
