@<TRIPOS>MOLECULE
1y6r_MTM_A_1.pdb
 20 22 0 0 0
SMALL
GASTEIGER

@<TRIPOS>ATOM
      1  CS        56.1860   68.8130   22.6840 C.3   233  MTM233      0.0692
      2  S5'       55.5290   70.4750   23.0530 S.3   233  MTM233     -0.1378
      3  C5'       56.3140   71.4030   21.7230 C.3   233  MTM233      0.0776
      4  C4'       57.7350   71.8840   22.0160 C.3   233  MTM233      0.1168
      5  N4'       58.2590   72.4490   20.7680 N.3   233  MTM233     -0.2101
      6  C2'       57.6410   74.2710   22.1260 C.3   233  MTM233      0.2035
      7  O2'       58.5200   75.3560   22.5470 O.3   233  MTM233     -0.2185
      8  C3'       57.8380   72.9880   23.0550 C.3   233  MTM233      0.2005
      9  O3'       59.1850   72.9790   23.6720 O.3   233  MTM233     -0.2188
     10  C1'       57.9360   73.8660   20.6330 C.3   233  MTM233      0.1309
     11  C9        56.7680   73.9840   19.6620 C.2   233  MTM233      0.0343
     12  C8        56.8230   73.7360   18.2890 C.2   233  MTM233      0.0978
     13  N7        55.6520   73.9030   17.6480 N.2   233  MTM233     -0.2350
     14  C5        54.7790   74.2740   18.6310 C.2   233  MTM233      0.1884
     15  C6        53.3840   74.5950   18.6450 C.2   233  MTM233      0.4315
     16  N6        52.6230   74.5700   17.5430 N.pl3 233  MTM233      0.2177
     17  N1        52.8250   74.9360   19.8680 N.2   233  MTM233     -0.0278
     18  C2        53.5740   74.9600   20.9940 C.3   233  MTM233      0.3922
     19  N3        54.8910   74.6740   21.0960 N.2   233  MTM233     -0.2171
     20  C4        55.4340   74.3380   19.8780 C.2   233  MTM233      0.1045
@<TRIPOS>BOND
     1    16    15    1
     2    13    12    1
     3    13    14    2
     4    12    11    2
     5    14    15    1
     6    14    20    1
     7    15    17    2
     8    11    20    1
     9    11    10    1
    10    17    18    1
    11    20    19    2
    12    10     5    1
    13    10     6    1
    14     5     4    1
    15    18    19    1
    16     3     4    1
    17     3     2    1
    18     4     8    1
    19     6     7    1
    20     6     8    1
    21     1     2    1
    22     8     9    1
