@<TRIPOS>MOLECULE
1y75_NAG_A_1.pdb
 15 15 0 0 0
SMALL
GASTEIGER

@<TRIPOS>ATOM
      1  C1        65.6630   55.0560   19.4440 C.3   301  NAG301      0.2917
      2  C2        67.1730   54.7850   19.5420 C.3   301  NAG301      0.1871
      3  C3        67.4790   53.9010   20.7530 C.3   301  NAG301      0.2095
      4  C4        66.8850   54.5180   22.0130 C.3   301  NAG301      0.2136
      5  C5        65.3860   54.7200   21.8080 C.3   301  NAG301      0.1835
      6  C6        64.6880   55.3240   23.0150 C.3   301  NAG301      0.2142
      7  C7        68.9360   54.1080   18.0390 C.2   301  NAG301      0.2421
      8  C8        69.3440   53.4040   16.7620 C.3   301  NAG301      0.0964
      9  N2        67.6380   54.1320   18.3310 N.am  301  NAG301     -0.1991
     10  O1        65.4280   55.9840   18.4410 O.3   301  NAG301     -0.1879
     11  O3        68.8820   53.7650   20.9050 O.3   301  NAG301     -0.2183
     12  O4        67.1140   53.6590   23.1170 O.3   301  NAG301     -0.2176
     13  O5        65.1640   55.5990   20.6820 O.3   301  NAG301     -0.3242
     14  O6        64.8950   56.5620   23.6230 O.3   301  NAG301     -0.2176
     15  O7        69.7950   54.6240   18.7520 O.2   301  NAG301     -0.2733
@<TRIPOS>BOND
     1     8     7    1
     2     7     9   am
     3     7    15    2
     4     9     2    1
     5    10     1    1
     6     1     2    1
     7     1    13    1
     8     2     3    1
     9    13     5    1
    10     3    11    1
    11     3     4    1
    12     5     4    1
    13     5     6    1
    14     4    12    1
    15     6    14    1
