@<TRIPOS>MOLECULE
1y77_G2P_B_1.pdb
 32 34 0 0 0
SMALL
GASTEIGER

@<TRIPOS>ATOM
      1  PG       109.4850   50.7130   14.2880 P.3   1308  G2P1308     0.5389
      2  O1G      110.7540   50.5360   13.4480 O.2   1308  G2P1308    -0.2220
      3  O2G      109.6130   51.7680   15.3600 O.3   1308  G2P1308    -0.1143
      4  O3G      109.0010   49.3830   14.8450 O.3   1308  G2P1308    -0.1143
      5  O3B      108.3740   51.3080   13.3310 O.3   1308  G2P1308    -0.2026
      6  PB       106.7860   51.3170   13.4580 P.3   1308  G2P1308     0.3895
      7  O1B      106.3720   49.9280   13.5920 O.2   1308  G2P1308    -0.2544
      8  O2B      106.3640   52.2530   14.4660 O.3   1308  G2P1308    -0.1388
      9  C3A      106.4330   52.0190   12.0860 C.3   1308  G2P1308     0.2357
     10  PA       106.9810   51.7830   10.5780 P.3   1308  G2P1308     0.3820
     11  O1A      106.0930   52.4580    9.5980 O.2   1308  G2P1308    -0.2548
     12  O2A      107.2990   50.3390   10.4260 O.3   1308  G2P1308    -0.1392
     13  O5'      108.3650   52.4390   10.2410 O.3   1308  G2P1308    -0.2896
     14  C5'      109.2550   51.7250    9.3970 C.3   1308  G2P1308     0.1836
     15  C4'      109.0350   50.9380    7.9350 C.3   1308  G2P1308     0.1800
     16  O4'      108.7980   49.8350    7.1920 O.3   1308  G2P1308    -0.3326
     17  C3'      108.5590   52.1070    7.3640 C.3   1308  G2P1308     0.2158
     18  O3'      109.3870   53.1380    7.4010 O.3   1308  G2P1308    -0.2175
     19  C2'      108.7270   51.7810    5.8450 C.3   1308  G2P1308     0.2310
     20  O2'      110.2420   51.9340    5.5670 O.3   1308  G2P1308    -0.2158
     21  C1'      108.6020   50.3180    5.8680 C.3   1308  G2P1308     0.2293
     22  N9       107.3020   50.2410    5.5760 N.pl3 1308  G2P1308    -0.2354
     23  C8       106.3850   50.4360    6.5960 C.3   1308  G2P1308     0.2246
     24  N7       105.1420   50.4270    6.1850 N.2   1308  G2P1308    -0.2322
     25  C5       105.2350   50.2700    4.8010 C.2   1308  G2P1308     0.2182
     26  C6       104.2190   50.1910    3.8150 C.1   1308  G2P1308     0.2372
     27  O6       102.9910   50.2770    3.9610 O.2   1308  G2P1308    -0.2069
     28  N1       104.7550   49.9850    2.5450 N.2   1308  G2P1308    -0.2485
     29  C2       106.0960   49.8680    2.2520 C.1   1308  G2P1308     0.2531
     30  N2       106.4090   49.6910    0.9710 N.pl3 1308  G2P1308    -0.0226
     31  N3       107.0500   49.9290    3.1530 N.2   1308  G2P1308    -0.3074
     32  C4       106.5530   50.1440    4.4050 C.2   1308  G2P1308     0.2300
@<TRIPOS>BOND
     1    30    29    1
     2    29    28    2
     3    29    31    2
     4    28    26    2
     5    31    32    2
     6    26    27    2
     7    26    25    1
     8    32    25    1
     9    32    22    1
    10    25    24    2
    11    20    19    1
    12    22    21    1
    13    22    23    1
    14    19    21    1
    15    19    17    1
    16    21    16    1
    17    24    23    1
    18    16    15    1
    19    17    18    1
    20    17    15    1
    21    15    14    1
    22    14    13    1
    23    11    10    2
    24    13    10    1
    25    12    10    1
    26    10     9    1
    27     9     6    1
    28     5     6    1
    29     5     1    1
    30     2     1    2
    31     6     7    2
    32     6     8    1
    33     1     4    1
    34     1     3    1
