@<TRIPOS>MOLECULE
1y7c_HEM_A_1.pdb
 43 50 0 0 0
SMALL
GASTEIGER

@<TRIPOS>ATOM
      1 FE          7.9640   40.8750  -15.1230 Fe    142  HEM142      0.0000
      2  CHA        6.4520   43.6500  -16.3500 C.2   142  HEM142      0.0000
      3  CHB        5.9080   41.0170  -12.3320 C.2   142  HEM142      0.0000
      4  CHC        9.9170   38.5470  -13.4800 C.2   142  HEM142      0.0000
      5  CHD       10.6460   41.4420  -17.3100 C.2   142  HEM142      0.0000
      6  NA         6.4870   42.0930  -14.4780 N.2   142  HEM142      0.0000
      7  C1A        5.9820   43.1740  -15.1480 C.2   142  HEM142      0.0000
      8  C2A        4.8600   43.7020  -14.4270 C.2   142  HEM142      0.0000
      9  C3A        4.6940   42.9800  -13.3260 C.2   142  HEM142      0.0000
     10  C4A        5.7040   41.9570  -13.3210 C.2   142  HEM142      0.0000
     11  CMA        3.6360   43.1630  -12.1940 C.3   142  HEM142      0.0000
     12  CAA        4.0680   44.9140  -14.9590 C.3   142  HEM142      0.0000
     13  CBA        2.8410   44.5430  -15.8290 C.3   142  HEM142      0.0000
     14  CGA        1.8580   45.6910  -15.8960 C.2   142  HEM142      0.0000
     15  O1A        0.8830   45.6360  -15.1040 O.co2 142  HEM142      0.0000
     16  O2A        2.1220   46.6060  -16.7090 O.co2 142  HEM142      0.0000
     17  NB         7.9270   39.9840  -13.2790 N.ar  142  HEM142      0.0000
     18  C1B        7.0030   40.1720  -12.2610 C.ar  142  HEM142      0.0000
     19  C2B        7.3370   39.3230  -11.1340 C.ar  142  HEM142      0.0000
     20  C3B        8.4290   38.6300  -11.4440 C.ar  142  HEM142      0.0000
     21  C4B        8.8190   39.0530  -12.7940 C.ar  142  HEM142      0.0000
     22  CMB        6.5310   39.2620   -9.8370 C.3   142  HEM142      0.0000
     23  CAB        9.2740   37.6230  -10.6670 C.2   142  HEM142      0.0000
     24  CBB        8.9450   36.8850   -9.6470 C.2   142  HEM142      0.0000
     25  NC         9.8700   40.1360  -15.3690 N.2   142  HEM142      0.0000
     26  C1C       10.4930   39.1780  -14.5840 C.2   142  HEM142      0.0000
     27  C2C       11.8500   38.9560  -15.0390 C.2   142  HEM142      0.0000
     28  C3C       12.0550   39.7620  -16.0790 C.2   142  HEM142      0.0000
     29  C4C       10.8240   40.5240  -16.2950 C.2   142  HEM142      0.0000
     30  CMC       12.7950   37.9470  -14.3630 C.3   142  HEM142      0.0000
     31  CAC       13.2970   39.9270  -16.9540 C.2   142  HEM142      0.0000
     32  CBC       14.5500   40.0040  -16.5380 C.2   142  HEM142      0.0000
     33  ND         8.4760   42.2910  -16.4920 N.ar  142  HEM142      0.0000
     34  C1D        9.5540   42.2760  -17.3830 C.ar  142  HEM142      0.0000
     35  C2D        9.3750   43.3160  -18.3780 C.ar  142  HEM142      0.0000
     36  C3D        8.2090   43.9130  -18.1290 C.ar  142  HEM142      0.0000
     37  C4D        7.6490   43.3050  -16.9450 C.ar  142  HEM142      0.0000
     38  CMD       10.3750   43.6150  -19.5190 C.3   142  HEM142      0.0000
     39  CAD        7.5380   45.0950  -18.8610 C.3   142  HEM142      0.0000
     40  CBD        8.0000   46.4170  -18.2630 C.3   142  HEM142      0.0000
     41  CGD        7.5630   47.6610  -18.9360 C.2   142  HEM142      0.0000
     42  O1D        7.1450   48.6050  -18.2260 O.co2 142  HEM142      0.0000
     43  O2D        7.6530   47.6610  -20.1840 O.co2 142  HEM142      0.0000
@<TRIPOS>BOND
     1    43    41   ar
     2    38    35    1
     3    41    40    1
     4    41    42   ar
     5    39    40    1
     6    39    36    1
     7    35    36   ar
     8    35    34   ar
     9    36    37   ar
    10    34     5    2
    11    34    33   ar
    12     5    29    1
    13    31    32    2
    14    31    28    1
    15    37    33   ar
    16    37     2    2
    17    16    14   ar
    18    33     1    1
    19     2     7    1
    20    29    28    1
    21    29    25    2
    22    28    27    2
    23    14    13    1
    24    14    15   ar
    25    13    12    1
    26    25     1    1
    27    25    26    1
    28     7     6    2
    29     7     8    1
    30     1     6    1
    31     1    17    1
    32    27    26    1
    33    27    30    1
    34    12     8    1
    35    26     4    2
    36     6    10    1
    37     8     9    2
    38     4    21    1
    39     9    10    1
    40     9    11    1
    41    10     3    2
    42    17    21   ar
    43    17    18   ar
    44    21    20   ar
    45     3    18    1
    46    18    19   ar
    47    20    19   ar
    48    20    23    1
    49    19    22    1
    50    23    24    2
