@<TRIPOS>MOLECULE
1y7d_HEM_A_1.pdb
 43 50 0 0 0
SMALL
GASTEIGER

@<TRIPOS>ATOM
      1 FE          7.9720   40.8790  -15.1820 Fe    142  HEM142      0.0000
      2  CHA        6.4400   43.6960  -16.3970 C.2   142  HEM142      0.0000
      3  CHB        5.9390   41.0130  -12.4040 C.2   142  HEM142      0.0000
      4  CHC        9.9690   38.5840  -13.5310 C.2   142  HEM142      0.0000
      5  CHD       10.6180   41.4690  -17.3850 C.2   142  HEM142      0.0000
      6  NA         6.5000   42.1200  -14.5210 N.2   142  HEM142      0.0000
      7  C1A        5.9890   43.1950  -15.1940 C.2   142  HEM142      0.0000
      8  C2A        4.8900   43.7430  -14.4470 C.2   142  HEM142      0.0000
      9  C3A        4.7230   43.0110  -13.3530 C.2   142  HEM142      0.0000
     10  C4A        5.7270   41.9700  -13.3750 C.2   142  HEM142      0.0000
     11  CMA        3.6860   43.2100  -12.2160 C.3   142  HEM142      0.0000
     12  CAA        4.1020   44.9690  -14.9660 C.3   142  HEM142      0.0000
     13  CBA        2.8870   44.6090  -15.8410 C.3   142  HEM142      0.0000
     14  CGA        1.8980   45.7430  -15.9490 C.2   142  HEM142      0.0000
     15  O1A        0.9190   45.7030  -15.1510 O.co2 142  HEM142      0.0000
     16  O2A        2.1360   46.6470  -16.7830 O.co2 142  HEM142      0.0000
     17  NB         7.9650   39.9900  -13.3350 N.ar  142  HEM142      0.0000
     18  C1B        7.0300   40.1640  -12.3220 C.ar  142  HEM142      0.0000
     19  C2B        7.3580   39.3030  -11.2010 C.ar  142  HEM142      0.0000
     20  C3B        8.4580   38.6210  -11.5080 C.ar  142  HEM142      0.0000
     21  C4B        8.8610   39.0600  -12.8460 C.ar  142  HEM142      0.0000
     22  CMB        6.5280   39.2490   -9.9040 C.3   142  HEM142      0.0000
     23  CAB        9.3160   37.6250  -10.7270 C.2   142  HEM142      0.0000
     24  CBB        8.9940   36.8200   -9.7570 C.2   142  HEM142      0.0000
     25  NC         9.8970   40.1790  -15.4240 N.2   142  HEM142      0.0000
     26  C1C       10.5210   39.2110  -14.6520 C.2   142  HEM142      0.0000
     27  C2C       11.8720   38.9920  -15.1420 C.2   142  HEM142      0.0000
     28  C3C       12.0570   39.7830  -16.1940 C.2   142  HEM142      0.0000
     29  C4C       10.8250   40.5530  -16.3710 C.2   142  HEM142      0.0000
     30  CMC       12.8160   37.9750  -14.4750 C.3   142  HEM142      0.0000
     31  CAC       13.2850   39.9720  -17.1040 C.2   142  HEM142      0.0000
     32  CBC       14.5420   39.8060  -16.7130 C.2   142  HEM142      0.0000
     33  ND         8.4430   42.3190  -16.5490 N.ar  142  HEM142      0.0000
     34  C1D        9.5280   42.3060  -17.4430 C.ar  142  HEM142      0.0000
     35  C2D        9.3460   43.3290  -18.4450 C.ar  142  HEM142      0.0000
     36  C3D        8.1830   43.9250  -18.1870 C.ar  142  HEM142      0.0000
     37  C4D        7.6330   43.3320  -16.9950 C.ar  142  HEM142      0.0000
     38  CMD       10.3700   43.5970  -19.5720 C.3   142  HEM142      0.0000
     39  CAD        7.5210   45.1300  -18.9090 C.3   142  HEM142      0.0000
     40  CBD        7.9630   46.4380  -18.2700 C.3   142  HEM142      0.0000
     41  CGD        7.4950   47.7330  -18.8290 C.2   142  HEM142      0.0000
     42  O1D        7.0420   48.5860  -18.0030 O.co2 142  HEM142      0.0000
     43  O2D        7.5970   47.8830  -20.0670 O.co2 142  HEM142      0.0000
@<TRIPOS>BOND
     1    43    41   ar
     2    38    35    1
     3    39    40    1
     4    39    36    1
     5    41    40    1
     6    41    42   ar
     7    35    36   ar
     8    35    34   ar
     9    36    37   ar
    10    34     5    2
    11    34    33   ar
    12     5    29    1
    13    31    32    2
    14    31    28    1
    15    37    33   ar
    16    37     2    2
    17    16    14   ar
    18    33     1    1
    19     2     7    1
    20    29    28    1
    21    29    25    2
    22    28    27    2
    23    14    13    1
    24    14    15   ar
    25    13    12    1
    26    25     1    1
    27    25    26    1
    28     7     6    2
    29     7     8    1
    30     1     6    1
    31     1    17    1
    32    27    26    1
    33    27    30    1
    34    12     8    1
    35    26     4    2
    36     6    10    1
    37     8     9    2
    38     4    21    1
    39    10     9    1
    40    10     3    2
    41     9    11    1
    42    17    21   ar
    43    17    18   ar
    44    21    20   ar
    45     3    18    1
    46    18    19   ar
    47    20    19   ar
    48    20    23    1
    49    19    22    1
    50    23    24    2
