@<TRIPOS>MOLECULE
1y7g_HEM_A_1.pdb
 43 50 0 0 0
SMALL
GASTEIGER

@<TRIPOS>ATOM
      1 FE          8.2610   40.6560  -15.2970 Fe    142  HEM142      0.0000
      2  CHA        6.7440   43.4570  -16.5490 C.2   142  HEM142      0.0000
      3  CHB        6.1630   40.7720  -12.5480 C.2   142  HEM142      0.0000
      4  CHC       10.2030   38.3210  -13.6400 C.2   142  HEM142      0.0000
      5  CHD       10.9310   41.2030  -17.4840 C.2   142  HEM142      0.0000
      6  NA         6.7720   41.8780  -14.6640 N.2   142  HEM142      0.0000
      7  C1A        6.2690   42.9610  -15.3460 C.2   142  HEM142      0.0000
      8  C2A        5.1700   43.5060  -14.5970 C.2   142  HEM142      0.0000
      9  C3A        4.9850   42.7640  -13.5240 C.2   142  HEM142      0.0000
     10  C4A        5.9860   41.7240  -13.5340 C.2   142  HEM142      0.0000
     11  CMA        3.9520   42.9180  -12.3750 C.3   142  HEM142      0.0000
     12  CAA        4.3860   44.7300  -15.1230 C.3   142  HEM142      0.0000
     13  CBA        3.2200   44.3520  -16.0870 C.3   142  HEM142      0.0000
     14  CGA        2.3380   45.5700  -16.3380 C.2   142  HEM142      0.0000
     15  O1A        1.3110   45.6430  -15.6130 O.co2 142  HEM142      0.0000
     16  O2A        2.7480   46.3910  -17.2030 O.co2 142  HEM142      0.0000
     17  NB         8.1950   39.7270  -13.4710 N.ar  142  HEM142      0.0000
     18  C1B        7.2640   39.9420  -12.4640 C.ar  142  HEM142      0.0000
     19  C2B        7.5880   39.1050  -11.3190 C.ar  142  HEM142      0.0000
     20  C3B        8.6990   38.4240  -11.6190 C.ar  142  HEM142      0.0000
     21  C4B        9.0940   38.8070  -12.9670 C.ar  142  HEM142      0.0000
     22  CMB        6.7420   39.0890  -10.0340 C.3   142  HEM142      0.0000
     23  CAB        9.5150   37.4180  -10.7980 C.2   142  HEM142      0.0000
     24  CBB        9.0410   36.6170   -9.8740 C.2   142  HEM142      0.0000
     25  NC        10.1670   39.8970  -15.5380 N.2   142  HEM142      0.0000
     26  C1C       10.7910   38.9500  -14.7390 C.2   142  HEM142      0.0000
     27  C2C       12.1450   38.7410  -15.2020 C.2   142  HEM142      0.0000
     28  C3C       12.3490   39.5360  -16.2540 C.2   142  HEM142      0.0000
     29  C4C       11.1090   40.2720  -16.4820 C.2   142  HEM142      0.0000
     30  CMC       13.0920   37.7250  -14.5370 C.3   142  HEM142      0.0000
     31  CAC       13.5890   39.7480  -17.1480 C.2   142  HEM142      0.0000
     32  CBC       14.8460   39.7600  -16.6720 C.2   142  HEM142      0.0000
     33  ND         8.7610   42.0780  -16.6840 N.ar  142  HEM142      0.0000
     34  C1D        9.8510   42.0510  -17.5590 C.ar  142  HEM142      0.0000
     35  C2D        9.6880   43.0730  -18.5690 C.ar  142  HEM142      0.0000
     36  C3D        8.5240   43.6800  -18.3220 C.ar  142  HEM142      0.0000
     37  C4D        7.9450   43.0970  -17.1330 C.ar  142  HEM142      0.0000
     38  CMD       10.7090   43.3430  -19.6940 C.3   142  HEM142      0.0000
     39  CAD        7.8810   44.8750  -19.0690 C.3   142  HEM142      0.0000
     40  CBD        8.2210   46.1920  -18.3760 C.3   142  HEM142      0.0000
     41  CGD        7.7990   47.4450  -19.0680 C.2   142  HEM142      0.0000
     42  O1D        7.3030   48.3740  -18.3750 O.co2 142  HEM142      0.0000
     43  O2D        7.9780   47.4530  -20.3050 O.co2 142  HEM142      0.0000
@<TRIPOS>BOND
     1    43    41   ar
     2    38    35    1
     3    39    40    1
     4    39    36    1
     5    41    40    1
     6    41    42   ar
     7    35    36   ar
     8    35    34   ar
     9    36    37   ar
    10    34     5    2
    11    34    33   ar
    12     5    29    1
    13    16    14   ar
    14    31    32    2
    15    31    28    1
    16    37    33   ar
    17    37     2    2
    18    33     1    1
    19     2     7    1
    20    29    28    1
    21    29    25    2
    22    14    13    1
    23    14    15   ar
    24    28    27    2
    25    13    12    1
    26    25     1    1
    27    25    26    1
    28     7     6    2
    29     7     8    1
    30     1     6    1
    31     1    17    1
    32    27    26    1
    33    27    30    1
    34    12     8    1
    35    26     4    2
    36     6    10    1
    37     8     9    2
    38     4    21    1
    39    10     9    1
    40    10     3    2
    41     9    11    1
    42    17    21   ar
    43    17    18   ar
    44    21    20   ar
    45     3    18    1
    46    18    19   ar
    47    20    19   ar
    48    20    23    1
    49    19    22    1
    50    23    24    2
