@<TRIPOS>MOLECULE
1y7i_SAL_A_1.pdb
 10 10 0 0 0
SMALL
GASTEIGER

@<TRIPOS>ATOM
      1  C1'       22.9100    1.0580    9.3070 C.2   501  SAL501      0.3909
      2  O1'       21.7790    0.5660    8.8440 O.co2 501  SAL501     -0.2404
      3  O2'       23.3270    0.7180   10.4200 O.co2 501  SAL501     -0.2404
      4  C1        23.6380    2.0190    8.4440 C.ar  501  SAL501      0.1186
      5  C2        24.8760    2.5870    8.8980 C.ar  501  SAL501      0.2020
      6  C3        25.5700    3.5050    8.0900 C.ar  501  SAL501      0.0422
      7  C4        25.0590    3.8710    6.8260 C.ar  501  SAL501      0.0033
      8  C5        23.8450    3.3220    6.3530 C.ar  501  SAL501      0.0004
      9  C6        23.1470    2.4120    7.1520 C.ar  501  SAL501      0.0098
     10  O2        25.4270    2.2800   10.0980 O.3   501  SAL501     -0.2863
@<TRIPOS>BOND
     1     8     7   ar
     2     8     9   ar
     3     7     6   ar
     4     9     4   ar
     5     6     5   ar
     6     4     5   ar
     7     4     1    1
     8     2     1   ar
     9     5    10    1
    10     1     3   ar
