@<TRIPOS>MOLECULE
1y7l_III_P_1.pdb
 33 32 0 0 0
SMALL
GASTEIGER

@<TRIPOS>ATOM
      1  N         21.0670    3.8800   44.8260 N.3   264  ASN264     -0.1225
      2  CA        20.5660    4.3580   43.5450 C.3   264  ASN264      0.1785
      3  C         21.0740    3.4510   42.3870 C.2   264  ASN264      0.2597
      4  O         21.1680    3.7650   41.2520 O.2   264  ASN264     -0.2718
      5  CB        20.8620    5.8670   43.4590 C.3   264  ASN264      0.1169
      6  CG        19.8950    6.6030   44.3500 C.2   264  ASN264      0.2627
      7  OD1       20.2960    7.2900   45.2650 O.2   264  ASN264     -0.2716
      8  ND2       18.5980    6.4450   44.0780 N.am  264  ASN264     -0.0877
      9  N         21.4310    2.3070   42.5150 N.am  265  LEU265     -0.1966
     10  CA        21.9060    1.2050   41.6590 C.3   265  LEU265      0.1728
     11  C         20.7800    0.2000   41.4840 C.2   265  LEU265      0.2616
     12  O         20.8180   -0.7030   40.6470 O.2   265  LEU265     -0.2715
     13  CB        23.0890    0.5300   42.3590 C.3   265  LEU265      0.0311
     14  CG        24.2750    1.4670   42.5820 C.3   265  LEU265      0.0022
     15  CD1       25.2580    0.8460   43.5480 C.3   265  LEU265      0.0001
     16  CD2       24.9490    1.8190   41.2640 C.3   265  LEU265      0.0001
     17  N         19.7500    0.4200   42.3210 N.am  266  ASN266     -0.1958
     18  CA        18.5620   -0.4180   42.2950 C.3   266  ASN266      0.1819
     19  C         17.6310    0.0660   41.2430 C.2   266  ASN266      0.2622
     20  O         16.4730    0.3880   41.4610 O.2   266  ASN266     -0.2715
     21  CB        17.8050   -0.4380   43.6030 C.3   266  ASN266      0.1195
     22  CG        17.0630   -1.7480   43.7290 C.2   266  ASN266      0.2630
     23  OD1       17.5300   -2.7640   43.2190 O.2   266  ASN266     -0.2716
     24  ND2       15.9110   -1.7380   44.3860 N.am  266  ASN266     -0.0877
     25  N         18.2020    0.1170   40.0930 N.am  267  ILE267     -0.1938
     26  CA        17.4470    0.5300   38.9710 C.3   267  ILE267      0.2017
     27  C         16.8480   -0.6590   38.2400 C.2   267  ILE267      0.3845
     28  O         15.7120   -0.6120   37.7800 O.co2 267  ILE267     -0.2437
     29  CB        18.3460    1.3400   38.0420 C.3   267  ILE267      0.0531
     30  CG1       18.7150    2.6730   38.6950 C.2   267  ILE267     -0.0242
     31  CG2       17.6510    1.5770   36.7220 C.3   267  ILE267      0.0070
     32  CD1       19.7540    3.3990   38.1840 C.2   267  ILE267     -0.0048
     33  OXT       17.4370   -1.7270   38.1390 O.co2 267  ILE267     -0.2437
@<TRIPOS>BOND
     1    31    29    1
     2    28    27   ar
     3    29    30    1
     4    29    26    1
     5    33    27   ar
     6    32    30    2
     7    27    26    1
     8    26    25    1
     9    25    19   am
    10    12    11    2
    11    19    20    2
    12    19    18    1
    13     4     3    2
    14    16    14    1
    15    11    10    1
    16    11    17   am
    17    10    13    1
    18    10     9    1
    19    18    17    1
    20    18    21    1
    21    13    14    1
    22     3     9   am
    23     3     2    1
    24    14    15    1
    25    23    22    2
    26     5     2    1
    27     5     6    1
    28     2     1    1
    29    21    22    1
    30    22    24   am
    31     8     6   am
    32     6     7    2
