@<TRIPOS>MOLECULE
1y7p_RIP_A_1.pdb
 10 10 0 0 0
SMALL
GASTEIGER

@<TRIPOS>ATOM
      1  C1        33.9870   39.4960   51.4810 C.3   4182  RIP4182     0.3024
      2  C2        32.4830   39.6370   51.6080 C.3   4182  RIP4182     0.2434
      3  C3        31.8700   39.6510   50.1790 C.3   4182  RIP4182     0.2199
      4  C4        32.4630   40.8400   49.3930 C.3   4182  RIP4182     0.2143
      5  C5        33.9710   40.7340   49.3410 C.3   4182  RIP4182     0.1804
      6  O1        34.5620   39.4660   52.7490 O.3   4182  RIP4182    -0.1869
      7  O2        31.9740   38.5400   52.3640 O.3   4182  RIP4182    -0.2148
      8  O3        32.1830   38.4110   49.5140 O.3   4182  RIP4182    -0.2174
      9  O4        31.9570   40.8910   48.0670 O.3   4182  RIP4182    -0.2176
     10  O5        34.4900   40.6380   50.7080 O.3   4182  RIP4182    -0.3237
@<TRIPOS>BOND
     1     9     4    1
     2     5     4    1
     3     5    10    1
     4     4     3    1
     5     8     3    1
     6     3     2    1
     7    10     1    1
     8     1     2    1
     9     1     6    1
    10     2     7    1
