@<TRIPOS>MOLECULE
1y7t_NDP_A_1.pdb
 48 52 0 0 0
SMALL
GASTEIGER

@<TRIPOS>ATOM
      1  PA        44.4920   59.3090   25.9370 P.3   1334  NDP1334     0.2189
      2  O1A       43.5270   58.2280   26.0990 O.2   1334  NDP1334    -0.5170
      3  O2A       44.6390   60.1730   27.1330 O.3   1334  NDP1334    -0.4371
      4  O5B       45.8860   58.7540   25.5850 O.3   1334  NDP1334    -0.3112
      5  C5B       47.1040   59.6700   25.4910 C.3   1334  NDP1334     0.1813
      6  C4B       48.3050   58.6970   25.3360 C.3   1334  NDP1334     0.1820
      7  O4B       48.3720   57.5410   26.3670 O.3   1334  NDP1334    -0.3136
      8  C3B       48.2270   57.9590   23.9050 C.3   1334  NDP1334     0.2157
      9  O3B       49.5520   58.0710   23.2780 O.3   1334  NDP1334    -0.2175
     10  C2B       47.8330   56.5230   24.3230 C.3   1334  NDP1334     0.2314
     11  O2B       48.3100   55.5210   23.3420 O.3   1334  NDP1334    -0.2630
     12  C1B       48.5550   56.3550   25.6420 C.3   1334  NDP1334     0.3158
     13  N9A       48.1200   55.2710   26.5330 N.pl3 1334  NDP1334    -0.1439
     14  C8A       48.9420   54.3130   27.1010 C.3   1334  NDP1334     0.3377
     15  N7A       48.2160   53.5090   27.8240 N.2   1334  NDP1334    -0.2095
     16  C5A       46.8950   53.9040   27.7610 C.2   1334  NDP1334     0.2526
     17  C6A       45.6690   53.4360   28.3180 C.2   1334  NDP1334     0.4393
     18  N6A       45.6060   52.3630   29.1180 N.pl3 1334  NDP1334     0.2180
     19  N1A       44.4980   54.1150   28.0200 N.2   1334  NDP1334     0.0021
     20  C2A       44.5640   55.2100   27.2010 C.3   1334  NDP1334     0.5254
     21  N3A       45.6780   55.7380   26.6150 N.2   1334  NDP1334    -0.0055
     22  C4A       46.8000   55.0360   26.9400 C.2   1334  NDP1334     0.3518
     23  O3        44.1230   60.1530   24.6740 O.3   1334  NDP1334    -0.2703
     24  PN        43.2420   61.2700   23.9800 P.3   1334  NDP1334     0.2189
     25  O1N       41.9870   61.3380   24.8390 O.3   1334  NDP1334    -0.4371
     26  O2N       43.1510   61.0800   22.6640 O.2   1334  NDP1334    -0.5170
     27  O5D       44.1650   62.5920   24.3960 O.3   1334  NDP1334    -0.3112
     28  C5D       45.4030   62.8650   23.7390 C.3   1334  NDP1334     0.1813
     29  C4D       45.5530   64.3700   24.1080 C.3   1334  NDP1334     0.1799
     30  O4D       46.9050   64.8360   23.9910 O.3   1334  NDP1334    -0.3327
     31  C3D       44.6420   65.1770   23.1310 C.3   1334  NDP1334     0.2158
     32  O3D       43.8340   65.9720   24.0010 O.3   1334  NDP1334    -0.2175
     33  C2D       45.6490   65.9520   22.2810 C.3   1334  NDP1334     0.2309
     34  O2D       45.0630   67.1800   21.8850 O.3   1334  NDP1334    -0.2158
     35  C1D       46.8450   66.1360   23.2380 C.3   1334  NDP1334     0.2263
     36  N1N       48.1600   66.2120   22.6300 N.pl3 1334  NDP1334    -0.2787
     37  C2N       49.0190   67.1200   23.2990 C.3   1334  NDP1334     0.1244
     38  C3N       50.2790   67.3620   22.9170 C.2   1334  NDP1334     0.0544
     39  C7N       51.2060   68.3340   23.6380 C.2   1334  NDP1334     0.2818
     40  O7N       52.3300   68.5490   23.2590 O.2   1334  NDP1334    -0.2670
     41  N7N       50.6030   68.8760   24.7720 N.am  1334  NDP1334    -0.0839
     42  C4N       50.9940   66.6340   21.6340 C.2   1334  NDP1334     0.0033
     43  C5N       49.9080   65.6660   21.0180 C.2   1334  NDP1334     0.0157
     44  C6N       48.6520   65.4890   21.4690 C.2   1334  NDP1334     0.0633
     45  P2B       47.2600   54.8240   22.4160 P.3   1334  NDP1334     0.5328
     46  O1X       47.7900   53.4550   21.9940 O.3   1334  NDP1334    -0.1145
     47  O2X       46.0390   54.7750   23.1970 O.3   1334  NDP1334    -0.1145
     48  O3X       47.1890   55.6680   21.1340 O.2   1334  NDP1334    -0.2224
@<TRIPOS>BOND
     1    43    44    2
     2    43    42    1
     3    48    45    2
     4    44    36    1
     5    42    38    2
     6    34    33    1
     7    46    45    1
     8    33    31    1
     9    33    35    1
    10    45    47    1
    11    45    11    1
    12    36    35    1
    13    36    37    1
    14    26    24    2
    15    38    37    1
    16    38    39    1
    17    31    32    1
    18    31    29    1
    19    35    30    1
    20    40    39    2
    21     9     8    1
    22    11    10    1
    23    39    41   am
    24    28    29    1
    25    28    27    1
    26     8    10    1
    27     8     6    1
    28    24    27    1
    29    24    23    1
    30    24    25    1
    31    30    29    1
    32    10    12    1
    33    23     1    1
    34     6     5    1
    35     6     7    1
    36     5     4    1
    37     4     1    1
    38    12     7    1
    39    12    13    1
    40     1     2    2
    41     1     3    1
    42    13    22    1
    43    13    14    1
    44    21    22    2
    45    21    20    1
    46    22    16    1
    47    14    15    1
    48    20    19    1
    49    16    15    2
    50    16    17    1
    51    19    17    2
    52    17    18    1
