@<TRIPOS>MOLECULE
1y7u_COA_A_1.pdb
 48 50 0 0 0
SMALL
GASTEIGER

@<TRIPOS>ATOM
      1  N1A       -1.4530   10.6740   25.6730 N.2   201  COA201      0.0021
      2  C2A       -0.8800   11.5910   26.4840 C.3   201  COA201      0.5254
      3  N3A       -0.0140   11.1960   27.4550 N.2   201  COA201     -0.0055
      4  C4A        0.2710    9.9200   27.6120 C.2   201  COA201      0.3518
      5  C5A       -0.2640    9.0000   26.7820 C.2   201  COA201      0.2526
      6  C6A       -1.1450    9.3630   25.7850 C.2   201  COA201      0.4393
      7  N6A       -1.4550    8.5680   24.7630 N.pl3 201  COA201      0.2180
      8  N7A        0.1960    7.8400   27.1670 N.2   201  COA201     -0.2095
      9  C8A        1.0180    8.0040   28.1730 C.3   201  COA201      0.3377
     10  N9A        1.0630    9.2850   28.4860 N.pl3 201  COA201     -0.1439
     11  C1B        1.9500    9.8460   29.5100 C.3   201  COA201      0.3185
     12  C2B        1.2920   10.1900   30.8210 C.3   201  COA201      0.2543
     13  O2B        0.9790   11.5540   30.7730 O.3   201  COA201     -0.2131
     14  C3B        2.3320    9.9290   31.8870 C.3   201  COA201      0.1928
     15  O3B        2.6590   11.1920   32.3020 O.3   201  COA201     -0.2673
     16  P3B        3.1640   11.7040   33.6400 P.3   201  COA201      0.5327
     17  O7A        3.6790   12.9620   33.3710 O.2   201  COA201     -0.2224
     18  O8A        4.1490   11.0120   34.3410 O.3   201  COA201     -0.1145
     19  O9A        2.1060   11.9380   34.4940 O.3   201  COA201     -0.1145
     20  C4B        3.4630    9.3660   31.0760 C.3   201  COA201      0.1795
     21  O4B        2.8640    8.8870   29.9250 O.3   201  COA201     -0.3136
     22  C5B        4.1820    8.2150   31.6990 C.3   201  COA201      0.1812
     23  O5B        3.6190    7.0210   31.2260 O.3   201  COA201     -0.3112
     24  P1A        3.7920    5.6060   31.9370 P.3   201  COA201      0.2189
     25  O1A        2.5110    5.0580   32.3910 O.2   201  COA201     -0.5170
     26  O2A        4.6700    5.7050   33.1000 O.3   201  COA201     -0.4371
     27  O3A        4.3310    4.5710   30.8650 O.3   201  COA201     -0.2703
     28  P2A        3.8540    4.3060   29.3750 P.3   201  COA201      0.2188
     29  O4A        2.3950    4.2560   29.2110 O.3   201  COA201     -0.4371
     30  O5A        4.4340    3.0370   29.0170 O.2   201  COA201     -0.5170
     31  O6A        4.4770    5.4470   28.4690 O.3   201  COA201     -0.3138
     32  CBP        3.9930    5.2430   26.0650 C.3   201  COA201      0.0645
     33  CCP        5.0310    5.3160   27.1780 C.3   201  COA201      0.1519
     34  CDP        2.6930    4.6190   26.5030 C.3   201  COA201      0.0056
     35  CEP        3.6810    6.6320   25.5740 C.3   201  COA201      0.0056
     36  CAP        4.4460    4.1990   25.0440 C.3   201  COA201      0.2312
     37  OAP        3.5990    3.0760   25.0590 O.3   201  COA201     -0.2131
     38  C9P        5.1990    4.4740   23.7860 C.2   201  COA201      0.2719
     39  O9P        6.5590    4.2530   23.7610 O.2   201  COA201     -0.2706
     40  N8P        4.5620    4.9130   22.7480 N.am  201  COA201     -0.2028
     41  C7P        5.1570    5.8300   21.8320 C.3   201  COA201      0.1248
     42  C6P        6.6130    5.5900   21.4870 C.3   201  COA201      0.1102
     43  C5P        6.9900    6.0970   20.1330 C.2   201  COA201      0.2432
     44  O5P        7.9490    5.5900   19.5150 O.2   201  COA201     -0.2733
     45  N4P        6.2610    7.0720   19.6600 N.am  201  COA201     -0.2044
     46  C3P        6.1490    7.2850   18.2650 C.3   201  COA201      0.1276
     47  C2P        5.1890    6.2830   17.6970 C.3   201  COA201      0.0920
     48  S1P        6.0140    5.1100   16.6790 S.3   201  COA201     -0.0802
@<TRIPOS>BOND
     1    48    47    1
     2    47    46    1
     3    46    45    1
     4    44    43    2
     5    45    43   am
     6    43    42    1
     7    42    41    1
     8    41    40    1
     9    40    38   am
    10    39    38    2
    11    38    36    1
    12     7     6    1
    13    36    37    1
    14    36    32    1
    15    35    32    1
    16     1     6    2
    17     1     2    1
    18     6     5    1
    19    32    34    1
    20    32    33    1
    21     2     3    1
    22     5     8    2
    23     5     4    1
    24     8     9    1
    25    33    31    1
    26     3     4    2
    27     4    10    1
    28     9    10    1
    29    31    28    1
    30    10    11    1
    31    30    28    2
    32    29    28    1
    33    28    27    1
    34    11    21    1
    35    11    12    1
    36    21    20    1
    37    13    12    1
    38    12    14    1
    39    27    24    1
    40    20    22    1
    41    20    14    1
    42    23    22    1
    43    23    24    1
    44    14    15    1
    45    24    25    2
    46    24    26    1
    47    15    16    1
    48    17    16    2
    49    16    18    1
    50    16    19    1
