@<TRIPOS>MOLECULE
1y7v_INS_A_1.pdb
 11 11 0 0 0
SMALL
GASTEIGER

@<TRIPOS>ATOM
      1  C1        13.6840   41.7920   -4.9110 C.3   507  INS507      0.0712
      2  C2        14.0010   40.3290   -5.2320 C.3   507  INS507      0.1874
      3  C3        14.3560   40.2130   -6.7200 C.3   507  INS507      0.2149
      4  C4        13.9100   41.4750   -7.4640 C.3   507  INS507      0.2173
      5  C5        12.4620   41.8070   -7.0940 C.3   507  INS507      0.2149
      6  C6        12.3590   42.1280   -5.6020 C.3   507  INS507      0.1874
      7  O2        15.0370   39.8170   -4.3890 O.3   507  INS507     -0.2202
      8  O3        15.7590   40.0170   -6.9180 O.3   507  INS507     -0.2176
      9  O4        14.0090   41.2730   -8.8740 O.3   507  INS507     -0.2175
     10  O5        11.9800   42.9190   -7.8500 O.3   507  INS507     -0.2176
     11  O6        11.3200   41.3080   -5.0610 O.3   507  INS507     -0.2202
@<TRIPOS>BOND
     1     9     4    1
     2    10     5    1
     3     4     5    1
     4     4     3    1
     5     5     6    1
     6     8     3    1
     7     3     2    1
     8     6    11    1
     9     6     1    1
    10     2     1    1
    11     2     7    1
