@<TRIPOS>MOLECULE
1y7z_HEM_A_1.pdb
 43 50 0 0 0
SMALL
GASTEIGER

@<TRIPOS>ATOM
      1 FE          8.2020   40.5900  -15.3620 Fe    142  HEM142      0.0000
      2  CHA        6.6470   43.3810  -16.6290 C.2   142  HEM142      0.0000
      3  CHB        6.1000   40.7470  -12.5860 C.2   142  HEM142      0.0000
      4  CHC       10.1480   38.2660  -13.6800 C.2   142  HEM142      0.0000
      5  CHD       10.8640   41.1620  -17.5380 C.2   142  HEM142      0.0000
      6  NA         6.6990   41.8120  -14.7290 N.2   142  HEM142      0.0000
      7  C1A        6.1960   42.8850  -15.4170 C.2   142  HEM142      0.0000
      8  C2A        5.1110   43.4510  -14.6650 C.2   142  HEM142      0.0000
      9  C3A        4.9330   42.7250  -13.5700 C.2   142  HEM142      0.0000
     10  C4A        5.9290   41.6880  -13.5800 C.2   142  HEM142      0.0000
     11  CMA        3.9060   42.9230  -12.4260 C.3   142  HEM142      0.0000
     12  CAA        4.3350   44.6790  -15.2000 C.3   142  HEM142      0.0000
     13  CBA        3.1310   44.2940  -16.0920 C.3   142  HEM142      0.0000
     14  CGA        2.2890   45.5220  -16.4080 C.2   142  HEM142      0.0000
     15  O1A        1.2780   45.6870  -15.6860 O.co2 142  HEM142      0.0000
     16  O2A        2.7130   46.2610  -17.3320 O.co2 142  HEM142      0.0000
     17  NB         8.1390   39.6950  -13.5130 N.ar  142  HEM142      0.0000
     18  C1B        7.2050   39.9040  -12.5270 C.ar  142  HEM142      0.0000
     19  C2B        7.5160   39.0580  -11.3870 C.ar  142  HEM142      0.0000
     20  C3B        8.6180   38.3680  -11.6820 C.ar  142  HEM142      0.0000
     21  C4B        9.0410   38.7650  -13.0120 C.ar  142  HEM142      0.0000
     22  CMB        6.6420   39.0360  -10.1120 C.3   142  HEM142      0.0000
     23  CAB        9.4170   37.3630  -10.8390 C.2   142  HEM142      0.0000
     24  CBB        8.8940   36.5380   -9.9680 C.2   142  HEM142      0.0000
     25  NC        10.0980   39.8420  -15.5950 N.2   142  HEM142      0.0000
     26  C1C       10.7200   38.8850  -14.7970 C.2   142  HEM142      0.0000
     27  C2C       12.0670   38.6810  -15.2600 C.2   142  HEM142      0.0000
     28  C3C       12.2740   39.4890  -16.3000 C.2   142  HEM142      0.0000
     29  C4C       11.0460   40.2340  -16.5250 C.2   142  HEM142      0.0000
     30  CMC       13.0390   37.6700  -14.6150 C.3   142  HEM142      0.0000
     31  CAC       13.5390   39.6680  -17.1750 C.2   142  HEM142      0.0000
     32  CBC       14.7590   39.6440  -16.6180 C.2   142  HEM142      0.0000
     33  ND         8.6840   42.0090  -16.7580 N.ar  142  HEM142      0.0000
     34  C1D        9.7730   41.9980  -17.6270 C.ar  142  HEM142      0.0000
     35  C2D        9.6060   43.0370  -18.6270 C.ar  142  HEM142      0.0000
     36  C3D        8.4430   43.6380  -18.3760 C.ar  142  HEM142      0.0000
     37  C4D        7.8600   43.0220  -17.2000 C.ar  142  HEM142      0.0000
     38  CMD       10.6360   43.3500  -19.7370 C.3   142  HEM142      0.0000
     39  CAD        7.7780   44.8400  -19.1080 C.3   142  HEM142      0.0000
     40  CBD        8.2090   46.1830  -18.5180 C.3   142  HEM142      0.0000
     41  CGD        7.7310   47.4330  -19.1940 C.2   142  HEM142      0.0000
     42  O1D        7.1960   48.3210  -18.4830 O.co2 142  HEM142      0.0000
     43  O2D        7.9060   47.4980  -20.4360 O.co2 142  HEM142      0.0000
@<TRIPOS>BOND
     1    43    41   ar
     2    38    35    1
     3    41    40    1
     4    41    42   ar
     5    39    40    1
     6    39    36    1
     7    35    36   ar
     8    35    34   ar
     9    36    37   ar
    10    34     5    2
    11    34    33   ar
    12     5    29    1
    13    16    14   ar
    14    37    33   ar
    15    37     2    2
    16    31    32    2
    17    31    28    1
    18    33     1    1
    19     2     7    1
    20    29    28    1
    21    29    25    2
    22    14    13    1
    23    14    15   ar
    24    28    27    2
    25    13    12    1
    26    25     1    1
    27    25    26    1
    28     7     6    2
    29     7     8    1
    30     1     6    1
    31     1    17    1
    32    27    26    1
    33    27    30    1
    34    12     8    1
    35    26     4    2
    36     6    10    1
    37     8     9    2
    38     4    21    1
    39    10     9    1
    40    10     3    2
    41     9    11    1
    42    17    21   ar
    43    17    18   ar
    44    21    20   ar
    45     3    18    1
    46    18    19   ar
    47    20    19   ar
    48    20    23    1
    49    19    22    1
    50    23    24    2
