@<TRIPOS>MOLECULE
1y81_COA_A_1.pdb
 48 50 0 0 0
SMALL
GASTEIGER

@<TRIPOS>ATOM
      1  N1A       47.2630   13.1250   18.7270 N.2   201  COA201      0.0021
      2  C2A       46.5280   12.9770   17.5780 C.3   201  COA201      0.5254
      3  N3A       45.6760   13.9730   17.1690 N.2   201  COA201     -0.0055
      4  C4A       45.5300   15.0920   17.9270 C.2   201  COA201      0.3518
      5  C5A       46.2580   15.2700   19.1010 C.2   201  COA201      0.2526
      6  C6A       47.1360   14.2740   19.5050 C.2   201  COA201      0.4393
      7  N6A       47.8340   14.4130   20.6220 N.pl3 201  COA201      0.2180
      8  N7A       45.9270   16.4800   19.6170 N.2   201  COA201     -0.2095
      9  C8A       45.0190   17.0590   18.7920 C.3   201  COA201      0.3377
     10  N9A       44.7660   16.2070   17.7520 N.pl3 201  COA201     -0.1439
     11  C1B       43.8200   16.3820   16.6280 C.3   201  COA201      0.3185
     12  C2B       42.7530   17.4420   16.9030 C.3   201  COA201      0.2543
     13  O2B       41.7940   17.0580   17.9200 O.3   201  COA201     -0.2131
     14  C3B       42.2160   17.5930   15.4740 C.3   201  COA201      0.1928
     15  O3B       41.2770   16.5930   15.1260 O.3   201  COA201     -0.2673
     16  P3B       39.6870   16.7960   15.4080 P.3   201  COA201      0.5327
     17  O7A       39.1110   15.5560   16.0260 O.3   201  COA201     -0.1145
     18  O8A       39.0680   17.0810   14.0860 O.2   201  COA201     -0.2224
     19  O9A       39.5290   17.8790   16.4310 O.3   201  COA201     -0.1145
     20  C4B       43.4430   17.3800   14.5770 C.3   201  COA201      0.1795
     21  O4B       44.4310   16.7430   15.4030 O.3   201  COA201     -0.3136
     22  C5B       43.9950   18.6900   13.9810 C.3   201  COA201      0.1812
     23  O5B       44.2860   19.5640   15.0520 O.3   201  COA201     -0.3112
     24  P1A       43.6710   21.0510   15.1050 P.3   201  COA201      0.2189
     25  O1A       43.9760   21.6790   16.4430 O.3   201  COA201     -0.4371
     26  O2A       42.2050   21.0100   14.7350 O.2   201  COA201     -0.5170
     27  O3A       44.5720   21.7570   13.9730 O.3   201  COA201     -0.2703
     28  P2A       44.0320   22.3250   12.5720 P.3   201  COA201      0.2188
     29  O4A       43.1230   23.5030   12.8140 O.3   201  COA201     -0.4371
     30  O5A       43.3970   21.3210   11.6810 O.2   201  COA201     -0.5170
     31  O6A       45.3830   22.8110   11.8710 O.3   201  COA201     -0.3138
     32  CBP       47.7030   22.6740   11.2500 C.3   201  COA201      0.0645
     33  CCP       46.4000   21.8890   11.5220 C.3   201  COA201      0.1519
     34  CDP       48.7850   21.6440   10.9000 C.3   201  COA201      0.0056
     35  CEP       48.1360   23.4070   12.5170 C.3   201  COA201      0.0056
     36  CAP       47.4940   23.7070   10.1190 C.3   201  COA201      0.2312
     37  OAP       48.6550   24.5020    9.9480 O.3   201  COA201     -0.2131
     38  C9P       47.2010   22.9200    8.8730 C.2   201  COA201      0.2719
     39  O9P       45.8710   22.6640    8.5460 O.2   201  COA201     -0.2706
     40  N8P       48.2610   22.4680    8.1890 N.am  201  COA201     -0.2028
     41  C7P       48.2080   21.6060    7.0160 C.3   201  COA201      0.1248
     42  C6P       47.8970   22.3070    5.7490 C.3   201  COA201      0.1102
     43  C5P       47.9690   21.2980    4.6380 C.2   201  COA201      0.2432
     44  O5P       48.0110   20.0620    4.8420 O.2   201  COA201     -0.2733
     45  N4P       47.9620   21.8870    3.4710 N.am  201  COA201     -0.2044
     46  C3P       48.0200   21.2480    2.1970 C.3   201  COA201      0.1276
     47  C2P       49.1800   21.8160    1.3790 C.3   201  COA201      0.0920
     48  S1P       50.7780   21.4250    2.1660 S.3   201  COA201     -0.0802
@<TRIPOS>BOND
     1    47    48    1
     2    47    46    1
     3    46    45    1
     4    45    43   am
     5    43    44    2
     6    43    42    1
     7    42    41    1
     8    41    40    1
     9    40    38   am
    10    39    38    2
    11    38    36    1
    12    37    36    1
    13    36    32    1
    14    34    32    1
    15    32    33    1
    16    32    35    1
    17    33    31    1
    18    30    28    2
    19    31    28    1
    20    28    29    1
    21    28    27    1
    22    27    24    1
    23    22    20    1
    24    22    23    1
    25    18    16    2
    26    20    21    1
    27    20    14    1
    28    26    24    2
    29    23    24    1
    30    24    25    1
    31    15    16    1
    32    15    14    1
    33    21    11    1
    34    16    17    1
    35    16    19    1
    36    14    12    1
    37    11    12    1
    38    11    10    1
    39    12    13    1
    40     3     2    1
    41     3     4    2
    42     2     1    1
    43    10     4    1
    44    10     9    1
    45     4     5    1
    46     1     6    2
    47     9     8    1
    48     5     6    1
    49     5     8    2
    50     6     7    1
