@<TRIPOS>MOLECULE
1y83_HEM_A_1.pdb
 43 50 0 0 0
SMALL
GASTEIGER

@<TRIPOS>ATOM
      1 FE          8.1240   40.5310  -15.3130 Fe    142  HEM142      0.0000
      2  CHA        6.6370   43.3350  -16.5630 C.2   142  HEM142      0.0000
      3  CHB        6.0440   40.7150  -12.5470 C.2   142  HEM142      0.0000
      4  CHC       10.0770   38.2120  -13.5940 C.2   142  HEM142      0.0000
      5  CHD       10.8340   41.0940  -17.4650 C.2   142  HEM142      0.0000
      6  NA         6.6580   41.7860  -14.6700 N.2   142  HEM142      0.0000
      7  C1A        6.1460   42.8500  -15.3670 C.2   142  HEM142      0.0000
      8  C2A        5.0360   43.4030  -14.6380 C.2   142  HEM142      0.0000
      9  C3A        4.8510   42.6760  -13.5460 C.2   142  HEM142      0.0000
     10  C4A        5.8590   41.6540  -13.5330 C.2   142  HEM142      0.0000
     11  CMA        3.7930   42.8520  -12.4220 C.3   142  HEM142      0.0000
     12  CAA        4.2560   44.6250  -15.1900 C.3   142  HEM142      0.0000
     13  CBA        3.0210   44.2640  -16.0250 C.3   142  HEM142      0.0000
     14  CGA        2.1310   45.4670  -16.2700 C.2   142  HEM142      0.0000
     15  O1A        1.1160   45.5460  -15.5370 O.co2 142  HEM142      0.0000
     16  O2A        2.4940   46.2880  -17.1540 O.co2 142  HEM142      0.0000
     17  NB         8.0890   39.6550  -13.4440 N.ar  142  HEM142      0.0000
     18  C1B        7.1430   39.8720  -12.4640 C.ar  142  HEM142      0.0000
     19  C2B        7.4480   39.0230  -11.3200 C.ar  142  HEM142      0.0000
     20  C3B        8.5460   38.3260  -11.6060 C.ar  142  HEM142      0.0000
     21  C4B        8.9710   38.7200  -12.9520 C.ar  142  HEM142      0.0000
     22  CMB        6.5740   39.0080  -10.0500 C.3   142  HEM142      0.0000
     23  CAB        9.3470   37.3220  -10.7720 C.2   142  HEM142      0.0000
     24  CBB        8.8100   36.3410  -10.0880 C.2   142  HEM142      0.0000
     25  NC        10.0330   39.7930  -15.5210 N.2   142  HEM142      0.0000
     26  C1C       10.6420   38.8390  -14.7120 C.2   142  HEM142      0.0000
     27  C2C       11.9970   38.6270  -15.1500 C.2   142  HEM142      0.0000
     28  C3C       12.2190   39.4280  -16.1980 C.2   142  HEM142      0.0000
     29  C4C       10.9950   40.1730  -16.4410 C.2   142  HEM142      0.0000
     30  CMC       12.9420   37.6130  -14.4840 C.3   142  HEM142      0.0000
     31  CAC       13.4900   39.5880  -17.0510 C.2   142  HEM142      0.0000
     32  CBC       14.7190   39.5640  -16.5370 C.2   142  HEM142      0.0000
     33  ND         8.6640   41.9620  -16.6900 N.ar  142  HEM142      0.0000
     34  C1D        9.7560   41.9440  -17.5580 C.ar  142  HEM142      0.0000
     35  C2D        9.5890   42.9700  -18.5710 C.ar  142  HEM142      0.0000
     36  C3D        8.4310   43.5720  -18.3330 C.ar  142  HEM142      0.0000
     37  C4D        7.8450   42.9740  -17.1440 C.ar  142  HEM142      0.0000
     38  CMD       10.6050   43.2780  -19.6920 C.3   142  HEM142      0.0000
     39  CAD        7.7740   44.7820  -19.0600 C.3   142  HEM142      0.0000
     40  CBD        8.1690   46.1050  -18.3900 C.3   142  HEM142      0.0000
     41  CGD        7.7200   47.3790  -19.0380 C.2   142  HEM142      0.0000
     42  O1D        7.1900   48.2680  -18.3150 O.co2 142  HEM142      0.0000
     43  O2D        7.9160   47.4740  -20.2750 O.co2 142  HEM142      0.0000
@<TRIPOS>BOND
     1    43    41   ar
     2    38    35    1
     3    39    40    1
     4    39    36    1
     5    41    40    1
     6    41    42   ar
     7    35    36   ar
     8    35    34   ar
     9    36    37   ar
    10    34     5    2
    11    34    33   ar
    12     5    29    1
    13    16    14   ar
    14    37    33   ar
    15    37     2    2
    16    31    32    2
    17    31    28    1
    18    33     1    1
    19     2     7    1
    20    29    28    1
    21    29    25    2
    22    14    13    1
    23    14    15   ar
    24    28    27    2
    25    13    12    1
    26    25     1    1
    27    25    26    1
    28     7     6    2
    29     7     8    1
    30     1     6    1
    31     1    17    1
    32    12     8    1
    33    27    26    1
    34    27    30    1
    35    26     4    2
    36     6    10    1
    37     8     9    2
    38     4    21    1
    39     9    10    1
    40     9    11    1
    41    10     3    2
    42    17    21   ar
    43    17    18   ar
    44    21    20   ar
    45     3    18    1
    46    18    19   ar
    47    20    19   ar
    48    20    23    1
    49    19    22    1
    50    23    24    2
