@<TRIPOS>MOLECULE
1y85_HEM_A_1.pdb
 43 50 0 0 0
SMALL
GASTEIGER

@<TRIPOS>ATOM
      1 FE          8.1420   40.5970  -15.3300 Fe    142  HEM142      0.0000
      2  CHA        6.5990   43.3700  -16.6420 C.2   142  HEM142      0.0000
      3  CHB        6.0490   40.7660  -12.5990 C.2   142  HEM142      0.0000
      4  CHC       10.0840   38.2690  -13.6720 C.2   142  HEM142      0.0000
      5  CHD       10.8350   41.1810  -17.5380 C.2   142  HEM142      0.0000
      6  NA         6.6560   41.8310  -14.7290 N.2   142  HEM142      0.0000
      7  C1A        6.1450   42.9050  -15.4150 C.2   142  HEM142      0.0000
      8  C2A        5.0380   43.4550  -14.6810 C.2   142  HEM142      0.0000
      9  C3A        4.8640   42.7260  -13.5860 C.2   142  HEM142      0.0000
     10  C4A        5.8620   41.6890  -13.5900 C.2   142  HEM142      0.0000
     11  CMA        3.8430   42.8910  -12.4260 C.3   142  HEM142      0.0000
     12  CAA        4.2490   44.6710  -15.2160 C.3   142  HEM142      0.0000
     13  CBA        3.0550   44.3040  -16.1220 C.3   142  HEM142      0.0000
     14  CGA        2.0890   45.4640  -16.2870 C.2   142  HEM142      0.0000
     15  O1A        1.0170   45.3700  -15.6400 O.co2 142  HEM142      0.0000
     16  O2A        2.4490   46.4180  -17.0190 O.co2 142  HEM142      0.0000
     17  NB         8.0700   39.6900  -13.5090 N.ar  142  HEM142      0.0000
     18  C1B        7.1440   39.9190  -12.5160 C.ar  142  HEM142      0.0000
     19  C2B        7.4370   39.0620  -11.3800 C.ar  142  HEM142      0.0000
     20  C3B        8.5290   38.3490  -11.6740 C.ar  142  HEM142      0.0000
     21  C4B        8.9640   38.7590  -12.9960 C.ar  142  HEM142      0.0000
     22  CMB        6.5600   39.0650  -10.1150 C.3   142  HEM142      0.0000
     23  CAB        9.3210   37.3440  -10.8370 C.2   142  HEM142      0.0000
     24  CBB        8.7660   36.3470  -10.1880 C.2   142  HEM142      0.0000
     25  NC        10.0600   39.8870  -15.5680 N.2   142  HEM142      0.0000
     26  C1C       10.6630   38.9050  -14.7800 C.2   142  HEM142      0.0000
     27  C2C       11.9960   38.6730  -15.2470 C.2   142  HEM142      0.0000
     28  C3C       12.2070   39.4850  -16.2820 C.2   142  HEM142      0.0000
     29  C4C       10.9960   40.2630  -16.4970 C.2   142  HEM142      0.0000
     30  CMC       12.9600   37.6410  -14.6130 C.3   142  HEM142      0.0000
     31  CAC       13.4880   39.6230  -17.1410 C.2   142  HEM142      0.0000
     32  CBC       14.6990   39.5430  -16.5890 C.2   142  HEM142      0.0000
     33  ND         8.6370   41.9970  -16.7720 N.ar  142  HEM142      0.0000
     34  C1D        9.7310   41.9920  -17.6280 C.ar  142  HEM142      0.0000
     35  C2D        9.5710   43.0500  -18.6180 C.ar  142  HEM142      0.0000
     36  C3D        8.3870   43.6240  -18.3830 C.ar  142  HEM142      0.0000
     37  C4D        7.8080   43.0060  -17.2110 C.ar  142  HEM142      0.0000
     38  CMD       10.5790   43.3870  -19.7350 C.3   142  HEM142      0.0000
     39  CAD        7.7180   44.8300  -19.0970 C.3   142  HEM142      0.0000
     40  CBD        8.1570   46.1490  -18.4620 C.3   142  HEM142      0.0000
     41  CGD        7.6980   47.4180  -19.1150 C.2   142  HEM142      0.0000
     42  O1D        7.0990   48.2540  -18.3990 O.co2 142  HEM142      0.0000
     43  O2D        7.9830   47.5580  -20.3250 O.co2 142  HEM142      0.0000
@<TRIPOS>BOND
     1    43    41   ar
     2    38    35    1
     3    41    40    1
     4    41    42   ar
     5    39    40    1
     6    39    36    1
     7    35    36   ar
     8    35    34   ar
     9    36    37   ar
    10    34     5    2
    11    34    33   ar
    12     5    29    1
    13    37    33   ar
    14    37     2    2
    15    31    32    2
    16    31    28    1
    17    16    14   ar
    18    33     1    1
    19     2     7    1
    20    29    28    1
    21    29    25    2
    22    14    13    1
    23    14    15   ar
    24    28    27    2
    25    13    12    1
    26    25     1    1
    27    25    26    1
    28     7     6    2
    29     7     8    1
    30     1     6    1
    31     1    17    1
    32    27    26    1
    33    27    30    1
    34    12     8    1
    35    26     4    2
    36     6    10    1
    37     8     9    2
    38     4    21    1
    39    10     9    1
    40    10     3    2
    41     9    11    1
    42    17    21   ar
    43    17    18   ar
    44    21    20   ar
    45     3    18    1
    46    18    19   ar
    47    20    19   ar
    48    20    23    1
    49    19    22    1
    50    23    24    2
