@<TRIPOS>MOLECULE
1y8h_HEM_A_1.pdb
 43 50 0 0 0
SMALL
GASTEIGER

@<TRIPOS>ATOM
      1 FE         11.7200   88.8050   25.0760 Fe    142  HEM142      0.0000
      2  CHA       11.6230   89.7160   21.7930 C.2   142  HEM142      0.0000
      3  CHB        8.6910   87.2500   24.7680 C.2   142  HEM142      0.0000
      4  CHC       11.6680   88.1040   28.4500 C.2   142  HEM142      0.0000
      5  CHD       14.5510   90.6890   25.5750 C.2   142  HEM142      0.0000
      6  NA        10.4320   88.5610   23.6220 N.ar  142  HEM142      0.0000
      7  C1A       10.5690   88.9390   22.2930 C.ar  142  HEM142      0.0000
      8  C2A        9.4690   88.4160   21.5040 C.ar  142  HEM142      0.0000
      9  C3A        8.5770   87.8480   22.3170 C.ar  142  HEM142      0.0000
     10  C4A        9.2010   87.8890   23.6440 C.ar  142  HEM142      0.0000
     11  CMA        7.1950   87.3410   21.9070 C.3   142  HEM142      0.0000
     12  CAA        9.4860   88.3170   20.0050 C.3   142  HEM142      0.0000
     13  CBA        8.3110   88.9290   19.2760 C.3   142  HEM142      0.0000
     14  CGA        8.6050   89.1320   17.8030 C.2   142  HEM142      0.0000
     15  O1A        8.9490   88.1290   17.1290 O.co2 142  HEM142      0.0000
     16  O2A        8.4950   90.2920   17.3310 O.co2 142  HEM142      0.0000
     17  NB        10.5130   87.8240   26.3010 N.2   142  HEM142      0.0000
     18  C1B        9.3130   87.2140   26.0080 C.2   142  HEM142      0.0000
     19  C2B        8.7040   86.6280   27.1880 C.2   142  HEM142      0.0000
     20  C3B        9.5600   86.8380   28.2300 C.2   142  HEM142      0.0000
     21  C4B       10.6590   87.5980   27.6680 C.2   142  HEM142      0.0000
     22  CMB        7.2890   86.0530   27.2590 C.3   142  HEM142      0.0000
     23  CAB        9.4350   86.4880   29.5840 C.3   142  HEM142      0.0000
     24  CBB        8.3250   85.9600   30.2220 C.3   142  HEM142      0.0000
     25  NC        12.8260   89.2980   26.6590 N.ar  142  HEM142      0.0000
     26  C1C       12.6860   88.8670   27.9860 C.ar  142  HEM142      0.0000
     27  C2C       13.7720   89.2870   28.8180 C.ar  142  HEM142      0.0000
     28  C3C       14.5710   90.0510   28.0310 C.ar  142  HEM142      0.0000
     29  C4C       14.0040   90.0550   26.6860 C.ar  142  HEM142      0.0000
     30  CMC       14.0060   88.9090   30.2680 C.3   142  HEM142      0.0000
     31  CAC       15.6840   90.7430   28.4490 C.3   142  HEM142      0.0000
     32  CBC       15.6490   91.7420   29.4090 C.3   142  HEM142      0.0000
     33  ND        12.8000   89.9900   23.9630 N.2   142  HEM142      0.0000
     34  C1D       13.9700   90.6660   24.3010 C.2   142  HEM142      0.0000
     35  C2D       14.5350   91.3480   23.1350 C.2   142  HEM142      0.0000
     36  C3D       13.7240   91.0700   22.0820 C.2   142  HEM142      0.0000
     37  C4D       12.6520   90.2300   22.5960 C.2   142  HEM142      0.0000
     38  CMD       15.7330   92.2870   23.1010 C.3   142  HEM142      0.0000
     39  CAD       13.8490   91.5710   20.6310 C.3   142  HEM142      0.0000
     40  CBD       13.2690   92.9670   20.3540 C.3   142  HEM142      0.0000
     41  CGD       13.3800   93.3780   18.8880 C.2   142  HEM142      0.0000
     42  O1D       14.5170   93.4460   18.3580 O.co2 142  HEM142      0.0000
     43  O2D       12.3230   93.6320   18.2670 O.co2 142  HEM142      0.0000
@<TRIPOS>BOND
     1    15    14   ar
     2    16    14   ar
     3    14    13    1
     4    43    41   ar
     5    42    41   ar
     6    41    40    1
     7    13    12    1
     8    12     8    1
     9    40    39    1
    10    39    36    1
    11     8     7   ar
    12     8     9   ar
    13     2     7    2
    14     2    37    1
    15    11     9    1
    16    36    37    1
    17    36    35    2
    18     7     6   ar
    19     9    10   ar
    20    37    33    2
    21    38    35    1
    22    35    34    1
    23     6    10   ar
    24     6     1    1
    25    10     3    2
    26    33    34    1
    27    33     1    1
    28    34     5    2
    29     3    18    1
    30     1    17    1
    31     1    25    1
    32     5    29    1
    33    18    17    2
    34    18    19    1
    35    17    21    1
    36    25    29   ar
    37    25    26   ar
    38    29    28   ar
    39    19    22    1
    40    19    20    2
    41    21    20    1
    42    21     4    2
    43    26     4    1
    44    26    27   ar
    45    28    31    1
    46    28    27   ar
    47    20    23    1
    48    31    32    1
    49    27    30    1
    50    23    24    1
