@<TRIPOS>MOLECULE
1y8i_HEM_A_1.pdb
 43 50 0 0 0
SMALL
GASTEIGER

@<TRIPOS>ATOM
      1 FE         11.4870   86.5890   25.1790 Fe    142  HEM142      0.0000
      2  CHA       11.5230   87.2740   21.8470 C.2   142  HEM142      0.0000
      3  CHB        8.5730   84.8680   24.8810 C.2   142  HEM142      0.0000
      4  CHC       11.6790   85.6830   28.4960 C.2   142  HEM142      0.0000
      5  CHD       14.3950   88.4580   25.6170 C.2   142  HEM142      0.0000
      6  NA        10.2900   86.1930   23.7050 N.ar  142  HEM142      0.0000
      7  C1A       10.4750   86.5090   22.3690 C.ar  142  HEM142      0.0000
      8  C2A        9.4060   85.9730   21.5640 C.ar  142  HEM142      0.0000
      9  C3A        8.5270   85.3840   22.4060 C.ar  142  HEM142      0.0000
     10  C4A        9.0930   85.4930   23.7410 C.ar  142  HEM142      0.0000
     11  CMA        7.1870   84.7800   22.0030 C.3   142  HEM142      0.0000
     12  CAA        9.3820   86.0090   20.0390 C.3   142  HEM142      0.0000
     13  CBA        8.6040   87.1880   19.4880 C.3   142  HEM142      0.0000
     14  CGA        8.8640   87.4160   18.0040 C.2   142  HEM142      0.0000
     15  O1A        8.8550   86.4210   17.2370 O.co2 142  HEM142      0.0000
     16  O2A        9.0700   88.5930   17.6120 O.co2 142  HEM142      0.0000
     17  NB        10.3500   85.5390   26.4230 N.2   142  HEM142      0.0000
     18  C1B        9.1720   84.8880   26.1390 C.2   142  HEM142      0.0000
     19  C2B        8.6610   84.1910   27.3330 C.2   142  HEM142      0.0000
     20  C3B        9.4870   84.4540   28.3660 C.2   142  HEM142      0.0000
     21  C4B       10.5610   85.2870   27.7870 C.2   142  HEM142      0.0000
     22  CMB        7.4310   83.2940   27.4690 C.3   142  HEM142      0.0000
     23  CAB        9.3470   83.9750   29.6880 C.3   142  HEM142      0.0000
     24  CBB        8.1930   84.0710   30.4530 C.3   142  HEM142      0.0000
     25  NC        12.8030   86.8960   26.6980 N.ar  142  HEM142      0.0000
     26  C1C       12.7250   86.4220   27.9960 C.ar  142  HEM142      0.0000
     27  C2C       13.7440   87.0040   28.8490 C.ar  142  HEM142      0.0000
     28  C3C       14.4810   87.8430   28.0750 C.ar  142  HEM142      0.0000
     29  C4C       13.9060   87.7650   26.7320 C.ar  142  HEM142      0.0000
     30  CMC       13.8980   86.8120   30.3650 C.3   142  HEM142      0.0000
     31  CAC       15.5740   88.6410   28.5110 C.3   142  HEM142      0.0000
     32  CBC       15.5290   89.6800   29.4480 C.3   142  HEM142      0.0000
     33  ND        12.6470   87.6670   23.9980 N.2   142  HEM142      0.0000
     34  C1D       13.7990   88.4060   24.3400 C.2   142  HEM142      0.0000
     35  C2D       14.3450   89.0810   23.1530 C.2   142  HEM142      0.0000
     36  C3D       13.5420   88.7520   22.0990 C.2   142  HEM142      0.0000
     37  C4D       12.5140   87.8550   22.6250 C.2   142  HEM142      0.0000
     38  CMD       15.5800   89.9900   23.0890 C.3   142  HEM142      0.0000
     39  CAD       13.6190   89.3190   20.6850 C.3   142  HEM142      0.0000
     40  CBD       13.0620   90.7310   20.6570 C.3   142  HEM142      0.0000
     41  CGD       12.9170   91.2920   19.2520 C.2   142  HEM142      0.0000
     42  O1D       13.9430   91.4390   18.5500 O.co2 142  HEM142      0.0000
     43  O2D       11.7700   91.5890   18.8540 O.co2 142  HEM142      0.0000
@<TRIPOS>BOND
     1    15    14   ar
     2    16    14   ar
     3    14    13    1
     4    42    41   ar
     5    43    41   ar
     6    41    40    1
     7    13    12    1
     8    12     8    1
     9    40    39    1
    10    39    36    1
    11     8     7   ar
    12     8     9   ar
    13     2     7    2
    14     2    37    1
    15    11     9    1
    16    36    37    1
    17    36    35    2
    18     7     6   ar
    19     9    10   ar
    20    37    33    2
    21    38    35    1
    22    35    34    1
    23     6    10   ar
    24     6     1    1
    25    10     3    2
    26    33    34    1
    27    33     1    1
    28    34     5    2
    29     3    18    1
    30     1    17    1
    31     1    25    1
    32     5    29    1
    33    18    17    2
    34    18    19    1
    35    17    21    1
    36    25    29   ar
    37    25    26   ar
    38    29    28   ar
    39    19    22    1
    40    19    20    2
    41    21    20    1
    42    21     4    2
    43    26     4    1
    44    26    27   ar
    45    28    31    1
    46    28    27   ar
    47    20    23    1
    48    31    32    1
    49    27    30    1
    50    23    24    1
