@<TRIPOS>MOLECULE
1y8j_STS_A_1.pdb
 19 21 0 0 0
SMALL
GASTEIGER

@<TRIPOS>ATOM
      1  S10      -22.2680   47.0650   12.1570 S.3   900  STS900     -0.0809
      2  C2       -23.6700   47.5190   13.2150 C.3   900  STS900      0.0859
      3  C1       -23.3260   48.4650   14.3600 C.3   900  STS900      0.1249
      4  C11      -22.5670   47.7490   15.4130 C.1   900  STS900      0.1128
      5  N13      -22.8850   46.5320   15.8960 N.2   900  STS900     -0.3437
      6  C15      -22.0020   46.1810   16.8310 C.2   900  STS900      0.1719
      7  C14      -21.0790   47.3090   16.9230 C.2   900  STS900      0.1551
      8  N12      -21.4740   48.2140   16.0290 N.2   900  STS900     -0.3453
      9  C16      -20.0500   47.2190   17.8330 C.3   900  STS900      0.1088
     10  C19      -19.9280   46.0780   18.6180 C.2   900  STS900      0.0748
     11  N18      -20.7930   45.0560   18.5170 N.2   900  STS900     -0.2654
     12  C17      -21.8270   45.0820   17.6580 C.3   900  STS900      0.1869
     13  C3       -24.6300   48.9810   14.9580 C.3   900  STS900      0.0442
     14  C4       -24.4000   50.2050   15.8060 C.ar  900  STS900     -0.0210
     15  C5       -24.6020   50.1580   17.1820 C.ar  900  STS900     -0.0042
     16  C6       -24.3980   51.2950   17.9590 C.ar  900  STS900     -0.0003
     17  C7       -23.9770   52.4770   17.3590 C.ar  900  STS900     -0.0000
     18  C8       -23.7810   52.5260   15.9830 C.ar  900  STS900     -0.0003
     19  C9       -23.9920   51.3880   15.2080 C.ar  900  STS900     -0.0042
@<TRIPOS>BOND
     1     1     2    1
     2     2     3    1
     3     3    13    1
     4     3     4    1
     5    13    14    1
     6    19    14   ar
     7    19    18   ar
     8     4     5    2
     9     4     8    2
    10    14    15   ar
    11     5     6    2
    12    18    17   ar
    13     8     7    2
    14     6     7    1
    15     6    12    1
    16     7     9    1
    17    15    16   ar
    18    17    16   ar
    19    12    11    1
    20     9    10    1
    21    11    10    2
