@<TRIPOS>MOLECULE
1y8k_HEM_A_1.pdb
 43 50 0 0 0
SMALL
GASTEIGER

@<TRIPOS>ATOM
      1 FE         11.5740   85.8530   25.0160 Fe    142  HEM142      0.0000
      2  CHA       11.5230   86.6990   21.6850 C.2   142  HEM142      0.0000
      3  CHB        8.6100   84.1800   24.6490 C.2   142  HEM142      0.0000
      4  CHC       11.6700   85.0310   28.3450 C.2   142  HEM142      0.0000
      5  CHD       14.4470   87.7400   25.4390 C.2   142  HEM142      0.0000
      6  NA        10.3550   85.4930   23.4940 N.ar  142  HEM142      0.0000
      7  C1A       10.5030   85.8760   22.1820 C.ar  142  HEM142      0.0000
      8  C2A        9.3880   85.4150   21.3980 C.ar  142  HEM142      0.0000
      9  C3A        8.5010   84.8420   22.2270 C.ar  142  HEM142      0.0000
     10  C4A        9.1300   84.8120   23.5230 C.ar  142  HEM142      0.0000
     11  CMA        7.0980   84.4070   21.8610 C.3   142  HEM142      0.0000
     12  CAA        9.3500   85.4280   19.8790 C.3   142  HEM142      0.0000
     13  CBA        8.4230   86.4880   19.3090 C.3   142  HEM142      0.0000
     14  CGA        8.6660   86.7190   17.8270 C.2   142  HEM142      0.0000
     15  O1A        8.7950   85.7180   17.0840 O.co2 142  HEM142      0.0000
     16  O2A        8.7260   87.8980   17.4140 O.co2 142  HEM142      0.0000
     17  NB        10.3720   84.8770   26.2270 N.2   142  HEM142      0.0000
     18  C1B        9.2070   84.1910   25.9120 C.2   142  HEM142      0.0000
     19  C2B        8.6780   83.5120   27.0940 C.2   142  HEM142      0.0000
     20  C3B        9.4550   83.8520   28.1350 C.2   142  HEM142      0.0000
     21  C4B       10.5430   84.6410   27.5970 C.2   142  HEM142      0.0000
     22  CMB        7.4560   82.5810   27.1960 C.3   142  HEM142      0.0000
     23  CAB        9.1370   83.6750   29.4750 C.3   142  HEM142      0.0000
     24  CBB        9.0250   82.4510   30.1040 C.3   142  HEM142      0.0000
     25  NC        12.8320   86.2230   26.5440 N.ar  142  HEM142      0.0000
     26  C1C       12.7170   85.7910   27.8550 C.ar  142  HEM142      0.0000
     27  C2C       13.7480   86.3730   28.6920 C.ar  142  HEM142      0.0000
     28  C3C       14.5130   87.1500   27.8880 C.ar  142  HEM142      0.0000
     29  C4C       13.9590   87.0470   26.5480 C.ar  142  HEM142      0.0000
     30  CMC       13.9680   86.1620   30.1950 C.3   142  HEM142      0.0000
     31  CAC       15.6110   87.8860   28.2890 C.2   142  HEM142      0.0000
     32  CBC       15.5420   89.0040   29.0910 C.2   142  HEM142      0.0000
     33  ND        12.6790   87.0120   23.8470 N.2   142  HEM142      0.0000
     34  C1D       13.8420   87.7310   24.1860 C.2   142  HEM142      0.0000
     35  C2D       14.3960   88.4190   23.0020 C.2   142  HEM142      0.0000
     36  C3D       13.5770   88.1060   21.9550 C.2   142  HEM142      0.0000
     37  C4D       12.5310   87.2430   22.4730 C.2   142  HEM142      0.0000
     38  CMD       15.5940   89.3670   22.9720 C.3   142  HEM142      0.0000
     39  CAD       13.6640   88.6710   20.5510 C.3   142  HEM142      0.0000
     40  CBD       13.1440   90.0980   20.6020 C.3   142  HEM142      0.0000
     41  CGD       13.2550   90.8220   19.2700 C.2   142  HEM142      0.0000
     42  O1D       14.3870   90.9520   18.7540 O.co2 142  HEM142      0.0000
     43  O2D       12.2100   91.2690   18.7470 O.co2 142  HEM142      0.0000
@<TRIPOS>BOND
     1    15    14   ar
     2    16    14   ar
     3    14    13    1
     4    43    41   ar
     5    42    41   ar
     6    41    40    1
     7    13    12    1
     8    12     8    1
     9    39    40    1
    10    39    36    1
    11     8     7   ar
    12     8     9   ar
    13     2     7    2
    14     2    37    1
    15    11     9    1
    16    36    37    1
    17    36    35    2
    18     7     6   ar
    19     9    10   ar
    20    37    33    2
    21    38    35    1
    22    35    34    1
    23     6    10   ar
    24     6     1    1
    25    10     3    2
    26    33    34    1
    27    33     1    1
    28    34     5    2
    29     3    18    1
    30     1    17    1
    31     1    25    1
    32     5    29    1
    33    18    17    2
    34    18    19    1
    35    17    21    1
    36    25    29   ar
    37    25    26   ar
    38    29    28   ar
    39    19    22    1
    40    19    20    2
    41    21    20    1
    42    21     4    2
    43    26     4    1
    44    26    27   ar
    45    28    31    1
    46    28    27   ar
    47    20    23    1
    48    31    32    2
    49    27    30    1
    50    23    24    1
