@<TRIPOS>MOLECULE
1y8n_RED_B_1.pdb
 11 10 0 0 0
SMALL
GASTEIGER

@<TRIPOS>ATOM
      1  C1       -79.1350    1.6790   85.0870 C.2   373  RED373      0.2074
      2  O1       -78.5980    0.7310   85.6750 O.2   373  RED373     -0.2883
      3  C2       -79.3070    3.0870   85.6230 C.3   373  RED373      0.0722
      4  C3       -78.1450    3.4330   86.5370 C.3   373  RED373      0.0082
      5  C4       -78.4560    4.6990   87.3330 C.3   373  RED373      0.0014
      6  C5       -77.4420    4.8880   88.4610 C.3   373  RED373      0.0117
      7  C6       -76.0800    5.3490   87.9610 C.3   373  RED373      0.0588
      8  C7       -75.1740    5.4230   89.1690 C.3   373  RED373      0.0242
      9  C8       -74.3050    6.6620   89.1880 C.3   373  RED373      0.0696
     10  S8       -72.6370    5.9770   89.1990 S.3   373  RED373     -0.0821
     11  S6       -76.2380    6.9660   87.1970 S.3   373  RED373     -0.0830
@<TRIPOS>BOND
     1     1     3    1
     2     1     2    2
     3     3     4    1
     4     4     5    1
     5    11     7    1
     6     5     6    1
     7     7     6    1
     8     7     8    1
     9     8     9    1
    10     9    10    1
