@<TRIPOS>MOLECULE
1y8o_ADP_A_1.pdb
 27 29 0 0 0
SMALL
GASTEIGER

@<TRIPOS>ATOM
      1  PB       -46.2550   16.5650   73.3180 P.3   504  ADP504      0.5373
      2  O1B      -45.2790   16.3630   72.1750 O.2   504  ADP504     -0.2221
      3  O2B      -45.8420   16.0780   74.7090 O.3   504  ADP504     -0.1143
      4  O3B      -46.9460   17.9210   73.3630 O.3   504  ADP504     -0.1143
      5  PA       -48.8140   15.7410   72.2220 P.3   504  ADP504      0.2231
      6  O1A      -49.4330   14.3600   72.0410 O.2   504  ADP504     -0.5169
      7  O2A      -49.5120   16.8360   73.0210 O.3   504  ADP504     -0.4370
      8  O3A      -47.4000   15.4480   72.9730 O.3   504  ADP504     -0.2261
      9  O5'      -48.3870   16.3960   70.7930 O.3   504  ADP504     -0.3111
     10  C5'      -47.7190   15.6340   69.7900 C.3   504  ADP504      0.1813
     11  C4'      -46.9910   16.4800   68.7390 C.3   504  ADP504      0.1821
     12  O4'      -47.8500   17.0230   67.7030 O.3   504  ADP504     -0.3135
     13  C3'      -46.1790   17.6620   69.2830 C.3   504  ADP504      0.2184
     14  O3'      -44.8980   17.1780   69.7010 O.3   504  ADP504     -0.2174
     15  C2'      -46.0780   18.6000   68.0870 C.3   504  ADP504      0.2570
     16  O2'      -44.9560   18.2210   67.2760 O.3   504  ADP504     -0.2130
     17  C1'      -47.3250   18.3080   67.2590 C.3   504  ADP504      0.3186
     18  N9       -48.3820   19.3470   67.4280 N.pl3 504  ADP504     -0.1439
     19  C8       -49.4870   19.1920   68.1860 C.3   504  ADP504      0.3377
     20  N7       -50.2910   20.2750   68.1310 N.2   504  ADP504     -0.2095
     21  C5       -49.6960   21.1690   67.3180 C.2   504  ADP504      0.2526
     22  C6       -50.0150   22.5460   66.8570 C.2   504  ADP504      0.4393
     23  N6       -51.1460   23.1860   67.2440 N.pl3 504  ADP504      0.2180
     24  N1       -49.1320   23.1110   66.0110 N.2   504  ADP504      0.0021
     25  C2       -47.9830   22.4900   65.6110 C.3   504  ADP504      0.5254
     26  N3       -47.6140   21.2540   66.0120 N.2   504  ADP504     -0.0055
     27  C4       -48.4320   20.5530   66.8460 C.2   504  ADP504      0.3518
@<TRIPOS>BOND
     1    25    24    1
     2    25    26    1
     3    24    22    2
     4    26    27    2
     5    27    21    1
     6    27    18    1
     7    22    23    1
     8    22    21    1
     9    17    18    1
    10    17    12    1
    11    17    15    1
    12    16    15    1
    13    21    20    2
    14    18    19    1
    15    12    11    1
    16    15    13    1
    17    20    19    1
    18    11    13    1
    19    11    10    1
    20    13    14    1
    21    10     9    1
    22     9     5    1
    23     6     5    2
    24     2     1    2
    25     5     8    1
    26     5     7    1
    27     8     1    1
    28     1     4    1
    29     1     3    1
