@<TRIPOS>MOLECULE
1y8o_RED_B_1.pdb
 11 10 0 0 0
SMALL
GASTEIGER

@<TRIPOS>ATOM
      1  C1       -79.0160    1.5220   85.2960 C.2   373  RED373      0.2074
      2  O1       -78.9790    0.4450   85.9000 O.2   373  RED373     -0.2883
      3  C2       -79.4340    2.8510   85.8820 C.3   373  RED373      0.0722
      4  C3       -78.2400    3.4210   86.6090 C.3   373  RED373      0.0082
      5  C4       -78.7370    4.3250   87.7180 C.3   373  RED373      0.0014
      6  C5       -77.6210    4.6920   88.6920 C.3   373  RED373      0.0117
      7  C6       -76.3700    5.0510   87.9000 C.3   373  RED373      0.0588
      8  C7       -75.1290    4.7520   88.7280 C.3   373  RED373      0.0242
      9  C8       -74.8180    5.8330   89.7330 C.3   373  RED373      0.0696
     10  S8       -73.0950    6.2200   89.3900 S.3   373  RED373     -0.0821
     11  S6       -76.4880    6.7640   87.4030 S.3   373  RED373     -0.0830
@<TRIPOS>BOND
     1     1     3    1
     2     1     2    2
     3     3     4    1
     4     4     5    1
     5    11     7    1
     6     5     6    1
     7     7     6    1
     8     7     8    1
     9     8     9    1
    10    10     9    1
