@<TRIPOS>MOLECULE
1y8p_RED_B_1.pdb
 11 10 0 0 0
SMALL
GASTEIGER

@<TRIPOS>ATOM
      1  C1       -79.5670    0.8460   85.1480 C.2   373  RED373      0.2074
      2  O1       -79.5840   -0.0990   85.9350 O.2   373  RED373     -0.2883
      3  C2       -79.9680    2.2440   85.5280 C.3   373  RED373      0.0722
      4  C3       -78.9810    2.6860   86.5780 C.3   373  RED373      0.0082
      5  C4       -79.4270    4.0330   87.0750 C.3   373  RED373      0.0014
      6  C5       -78.7170    4.2690   88.3890 C.3   373  RED373      0.0117
      7  C6       -77.2290    4.4800   88.1500 C.3   373  RED373      0.0588
      8  C7       -76.5240    4.1030   89.4460 C.3   373  RED373      0.0242
      9  C8       -75.8460    5.2840   90.1180 C.3   373  RED373      0.0696
     10  S8       -74.2400    5.4320   89.3100 S.3   373  RED373     -0.0821
     11  S6       -76.9490    6.1900   87.6980 S.3   373  RED373     -0.0830
@<TRIPOS>BOND
     1     1     3    1
     2     1     2    2
     3     3     4    1
     4     4     5    1
     5     5     6    1
     6    11     7    1
     7     7     6    1
     8     7     8    1
     9    10     9    1
    10     8     9    1
