@<TRIPOS>MOLECULE
1y8p_ATP_A_1.pdb
 31 33 0 0 0
SMALL
GASTEIGER

@<TRIPOS>ATOM
      1  PG       -47.8550   15.8120   76.6320 P.3   504  ATP504      0.5373
      2  O1G      -49.0310   16.3230   75.7930 O.2   504  ATP504     -0.2221
      3  O2G      -47.9620   14.3600   77.0930 O.3   504  ATP504     -0.1143
      4  O3G      -47.8880   16.4800   77.9770 O.3   504  ATP504     -0.1143
      5  PB       -46.6300   16.2760   73.9760 P.3   504  ATP504      0.2277
      6  O1B      -45.5770   16.0090   72.8690 O.2   504  ATP504     -0.5168
      7  O2B      -47.2950   17.6460   73.8200 O.3   504  ATP504     -0.4368
      8  O3B      -46.5340   15.9000   75.5910 O.3   504  ATP504     -0.2258
      9  PA       -49.0520   15.4760   72.7420 P.3   504  ATP504      0.2189
     10  O1A      -49.8250   14.1900   72.7190 O.2   504  ATP504     -0.5170
     11  O2A      -49.6790   16.6940   73.4630 O.3   504  ATP504     -0.4371
     12  O3A      -47.6700   15.1550   73.4780 O.3   504  ATP504     -0.2700
     13  O5'      -48.6950   15.7430   71.2030 O.3   504  ATP504     -0.3112
     14  C5'      -47.7080   15.0160   70.5580 C.3   504  ATP504      0.1813
     15  C4'      -47.1020   15.8040   69.4060 C.3   504  ATP504      0.1821
     16  O4'      -48.0820   16.2650   68.4820 O.3   504  ATP504     -0.3135
     17  C3'      -46.3720   17.1010   69.8390 C.3   504  ATP504      0.2184
     18  O3'      -45.0860   16.7610   70.3320 O.3   504  ATP504     -0.2174
     19  C2'      -46.3060   17.9120   68.5780 C.3   504  ATP504      0.2570
     20  O2'      -45.2860   17.4300   67.7190 O.3   504  ATP504     -0.2130
     21  C1'      -47.5810   17.4840   67.8660 C.3   504  ATP504      0.3186
     22  N9       -48.5730   18.5650   68.0390 N.pl3 504  ATP504     -0.1439
     23  C8       -49.5830   18.5070   68.8980 C.3   504  ATP504      0.3377
     24  N7       -50.3150   19.6460   68.8180 N.2   504  ATP504     -0.2095
     25  C5       -49.7320   20.4570   67.8980 C.2   504  ATP504      0.2526
     26  C6       -49.9960   21.7920   67.3560 C.2   504  ATP504      0.4393
     27  N6       -51.0530   22.5380   67.7410 N.pl3 504  ATP504      0.2180
     28  N1       -49.1560   22.2440   66.4370 N.2   504  ATP504      0.0021
     29  C2       -48.1080   21.5240   65.9950 C.3   504  ATP504      0.5254
     30  N3       -47.8100   20.3110   66.4520 N.2   504  ATP504     -0.0055
     31  C4       -48.5870   19.7370   67.3880 C.2   504  ATP504      0.3518
@<TRIPOS>BOND
     1    29    28    1
     2    29    30    1
     3    28    26    2
     4    30    31    2
     5    26    27    1
     6    26    25    1
     7    31    25    1
     8    31    22    1
     9    20    19    1
    10    21    22    1
    11    21    16    1
    12    21    19    1
    13    25    24    2
    14    22    23    1
    15    16    15    1
    16    19    17    1
    17    24    23    1
    18    15    17    1
    19    15    14    1
    20    17    18    1
    21    14    13    1
    22    13     9    1
    23    10     9    2
    24     9    11    1
    25     9    12    1
    26     6     5    2
    27    12     5    1
    28     7     5    1
    29     5     8    1
    30     8     1    1
    31     2     1    2
    32     1     3    1
    33     1     4    1
