@<TRIPOS>MOLECULE
1y8q_ATP_B_1.pdb
 31 33 0 0 0
SMALL
GASTEIGER

@<TRIPOS>ATOM
      1  PG       -54.2750   -4.8600  -41.6840 P.3   802  ATP802      0.5373
      2  O1G      -54.5960   -4.8950  -40.2280 O.3   802  ATP802     -0.1143
      3  O2G      -54.5580   -6.2120  -42.3500 O.2   802  ATP802     -0.2221
      4  O3G      -55.1120   -3.7590  -42.3340 O.3   802  ATP802     -0.1143
      5  PB       -52.0710   -3.0530  -41.5330 P.3   802  ATP802      0.2277
      6  O1B      -51.8120   -3.0480  -40.0790 O.3   802  ATP802     -0.4368
      7  O2B      -52.8640   -1.8660  -42.0210 O.2   802  ATP802     -0.5168
      8  O3B      -52.7240   -4.4560  -41.8830 O.3   802  ATP802     -0.2258
      9  PA       -50.1350   -2.5870  -43.6270 P.3   802  ATP802      0.2189
     10  O1A      -48.9230   -3.3290  -43.9600 O.3   802  ATP802     -0.4371
     11  O2A      -51.2070   -2.7140  -44.7080 O.2   802  ATP802     -0.5170
     12  O3A      -50.6580   -3.1560  -42.2510 O.3   802  ATP802     -0.2700
     13  O5'      -49.7320   -1.0920  -43.2810 O.3   802  ATP802     -0.3112
     14  C5'      -50.4200    0.0100  -43.8260 C.3   802  ATP802      0.1813
     15  C4'      -50.1990    1.1850  -42.8810 C.3   802  ATP802      0.1821
     16  O4'      -50.6830    2.3810  -43.4620 O.3   802  ATP802     -0.3135
     17  C3'      -50.9520    0.9750  -41.5800 C.3   802  ATP802      0.2184
     18  O3'      -49.9990    0.9730  -40.5240 O.3   802  ATP802     -0.2174
     19  C2'      -51.9340    2.1290  -41.5430 C.3   802  ATP802      0.2570
     20  O2'      -52.3050    2.6520  -40.3180 O.3   802  ATP802     -0.2130
     21  C1'      -51.2540    3.1420  -42.4140 C.3   802  ATP802      0.3186
     22  N9       -52.1000    4.1570  -43.1020 N.pl3 802  ATP802     -0.1439
     23  C8       -53.1800    3.8670  -43.9070 C.3   802  ATP802      0.3377
     24  N7       -53.6850    5.0190  -44.3120 N.2   802  ATP802     -0.2095
     25  C5       -52.9860    6.0710  -43.8090 C.2   802  ATP802      0.2526
     26  C6       -53.0380    7.4810  -43.8600 C.2   802  ATP802      0.4393
     27  N6       -53.9550    8.2070  -44.4700 N.pl3 802  ATP802      0.2180
     28  N1       -52.0850    8.2220  -43.1720 N.2   802  ATP802      0.0021
     29  C2       -51.0960    7.6160  -42.4350 C.3   802  ATP802      0.5254
     30  N3       -51.0300    6.2440  -42.3600 N.2   802  ATP802     -0.0055
     31  C4       -51.9570    5.4960  -43.0320 C.2   802  ATP802      0.3518
@<TRIPOS>BOND
     1    11     9    2
     2    27    26    1
     3    24    23    1
     4    24    25    2
     5    10     9    1
     6    23    22    1
     7    26    25    1
     8    26    28    2
     9    14    13    1
    10    14    15    1
    11    25    31    1
    12     9    13    1
    13     9    12    1
    14    16    15    1
    15    16    21    1
    16    28    29    1
    17    22    31    1
    18    22    21    1
    19    31    30    2
    20    15    17    1
    21    29    30    1
    22    21    19    1
    23     3     1    2
    24     4     1    1
    25    12     5    1
    26     7     5    2
    27     8     1    1
    28     8     5    1
    29     1     2    1
    30    17    19    1
    31    17    18    1
    32    19    20    1
    33     5     6    1
