@<TRIPOS>MOLECULE
1y8r_ATP_B_1.pdb
 31 33 0 0 0
SMALL
GASTEIGER

@<TRIPOS>ATOM
      1  PG        30.1010   30.0450   59.8620 P.3   802  ATP802      0.5373
      2  O1G       29.5080   29.3730   61.0560 O.3   802  ATP802     -0.1143
      3  O2G       31.4490   30.7290   60.1780 O.3   802  ATP802     -0.1143
      4  O3G       30.2410   29.0060   58.7460 O.2   802  ATP802     -0.2221
      5  PB        27.8710   31.6210   60.2700 P.3   802  ATP802      0.2277
      6  O1B       28.4720   32.0410   61.5650 O.3   802  ATP802     -0.4368
      7  O2B       26.7690   30.5750   60.3920 O.2   802  ATP802     -0.5168
      8  O3B       29.0390   31.1180   59.3570 O.3   802  ATP802     -0.2258
      9  PA        27.8900   33.5250   58.1380 P.3   802  ATP802      0.2189
     10  O1A       28.9590   34.4670   58.4600 O.3   802  ATP802     -0.4371
     11  O2A       28.3310   32.4120   57.1890 O.2   802  ATP802     -0.5170
     12  O3A       27.3920   32.9210   59.5130 O.3   802  ATP802     -0.2700
     13  O5'       26.6140   34.2960   57.6230 O.3   802  ATP802     -0.3112
     14  C5'       25.4900   33.5590   57.2300 C.3   802  ATP802      0.1813
     15  C4'       24.2790   34.1060   57.9690 C.3   802  ATP802      0.1821
     16  O4'       23.1150   33.6540   57.3100 O.3   802  ATP802     -0.3135
     17  C3'       24.2200   33.6220   59.3960 C.3   802  ATP802      0.2184
     18  O3'       24.1450   34.7580   60.2430 O.3   802  ATP802     -0.2174
     19  C2'       22.9590   32.7360   59.4140 C.3   802  ATP802      0.2570
     20  O2'       22.2390   32.5940   60.5980 O.3   802  ATP802     -0.2130
     21  C1'       22.1580   33.3580   58.3070 C.3   802  ATP802      0.3186
     22  N9        21.1840   32.5200   57.6070 N.pl3 802  ATP802     -0.1439
     23  C8        21.4990   31.4230   56.8360 C.3   802  ATP802      0.3377
     24  N7        20.3520   30.9200   56.4000 N.2   802  ATP802     -0.2095
     25  C5        19.2880   31.6420   56.8380 C.2   802  ATP802      0.2526
     26  C6        17.9160   31.5700   56.7440 C.2   802  ATP802      0.4393
     27  N6        17.2590   30.6350   56.1320 N.pl3 802  ATP802      0.2180
     28  N1        17.1260   32.5390   57.3580 N.2   802  ATP802      0.0021
     29  C2        17.6880   33.5510   58.1160 C.3   802  ATP802      0.5254
     30  N3        19.0630   33.6300   58.2520 N.2   802  ATP802     -0.0055
     31  C4        19.8380   32.6630   57.6300 C.2   802  ATP802      0.3518
@<TRIPOS>BOND
     1    27    26    1
     2    24    23    1
     3    24    25    2
     4    26    25    1
     5    26    28    2
     6    23    22    1
     7    25    31    1
     8    11     9    2
     9    14    13    1
    10    14    15    1
    11    16    15    1
    12    16    21    1
    13    28    29    1
    14    22    31    1
    15    22    21    1
    16    13     9    1
    17    31    30    2
    18    15    17    1
    19    29    30    1
    20     9    10    1
    21     9    12    1
    22    21    19    1
    23     4     1    2
    24     8     1    1
    25     8     5    1
    26    17    19    1
    27    17    18    1
    28    19    20    1
    29    12     5    1
    30     1     3    1
    31     1     2    1
    32     5     7    2
    33     5     6    1
