@<TRIPOS>MOLECULE
1y8w_HEM_A_1.pdb
 43 50 0 0 0
SMALL
GASTEIGER

@<TRIPOS>ATOM
      1 FE          9.0080   40.9900  -13.8150 Fe    142  HEM142      0.0000
      2  CHA        7.2210   43.4050  -15.3290 C.2   142  HEM142      0.0000
      3  CHB        7.0120   41.0920  -11.1180 C.2   142  HEM142      0.0000
      4  CHC       10.9320   38.6850  -12.2670 C.2   142  HEM142      0.0000
      5  CHD       11.4170   41.3330  -16.2160 C.2   142  HEM142      0.0000
      6  NA         7.4660   41.9560  -13.3650 N.2   142  HEM142      0.0000
      7  C1A        6.8840   42.9790  -14.0880 C.2   142  HEM142      0.0000
      8  C2A        5.8280   43.5900  -13.3200 C.2   142  HEM142      0.0000
      9  C3A        5.7680   42.9680  -12.1610 C.2   142  HEM142      0.0000
     10  C4A        6.7910   41.9400  -12.1550 C.2   142  HEM142      0.0000
     11  CMA        4.7850   43.2920  -11.0290 C.3   142  HEM142      0.0000
     12  CAA        4.9770   44.7710  -13.7740 C.3   142  HEM142      0.0000
     13  CBA        3.6300   44.3510  -14.3340 C.3   142  HEM142      0.0000
     14  CGA        2.9390   45.6270  -14.7790 C.2   142  HEM142      0.0000
     15  O1A        1.6870   45.6810  -14.7690 O.co2 142  HEM142      0.0000
     16  O2A        3.6490   46.5990  -15.1260 O.co2 142  HEM142      0.0000
     17  NB         9.0000   40.1210  -12.0170 N.ar  142  HEM142      0.0000
     18  C1B        8.0100   40.1910  -11.0810 C.ar  142  HEM142      0.0000
     19  C2B        8.1730   39.1520  -10.1000 C.ar  142  HEM142      0.0000
     20  C3B        9.2690   38.4860  -10.4340 C.ar  142  HEM142      0.0000
     21  C4B        9.8010   39.0840  -11.6260 C.ar  142  HEM142      0.0000
     22  CMB        7.2360   38.9020   -8.8960 C.3   142  HEM142      0.0000
     23  CAB        9.8880   37.2830   -9.7270 C.2   142  HEM142      0.0000
     24  CBB       10.1540   37.3680   -8.4390 C.2   142  HEM142      0.0000
     25  NC        10.7960   40.2260  -14.1470 N.2   142  HEM142      0.0000
     26  C1C       11.4170   39.2270  -13.4370 C.2   142  HEM142      0.0000
     27  C2C       12.7270   38.9360  -14.0160 C.2   142  HEM142      0.0000
     28  C3C       12.7500   39.5350  -15.1770 C.2   142  HEM142      0.0000
     29  C4C       11.6210   40.4310  -15.2220 C.2   142  HEM142      0.0000
     30  CMC       13.6070   37.7300  -13.6360 C.3   142  HEM142      0.0000
     31  CAC       13.8730   39.4600  -16.2130 C.2   142  HEM142      0.0000
     32  CBC       15.1530   39.5910  -15.8320 C.2   142  HEM142      0.0000
     33  ND         9.2800   42.1720  -15.4950 N.ar  142  HEM142      0.0000
     34  C1D       10.3610   42.1680  -16.3320 C.ar  142  HEM142      0.0000
     35  C2D       10.2360   43.1730  -17.3560 C.ar  142  HEM142      0.0000
     36  C3D        8.9130   43.8390  -17.0740 C.ar  142  HEM142      0.0000
     37  C4D        8.4080   43.1480  -15.9170 C.ar  142  HEM142      0.0000
     38  CMD       11.2100   43.5210  -18.4900 C.3   142  HEM142      0.0000
     39  CAD        8.2450   44.9890  -17.8650 C.3   142  HEM142      0.0000
     40  CBD        8.9620   46.3430  -17.8460 C.3   142  HEM142      0.0000
     41  CGD        8.0390   47.2590  -18.6230 C.2   142  HEM142      0.0000
     42  O1D        7.4060   48.1440  -18.0020 O.co2 142  HEM142      0.0000
     43  O2D        7.9030   47.0760  -19.8660 O.co2 142  HEM142      0.0000
@<TRIPOS>BOND
     1    43    41   ar
     2    41    42   ar
     3    41    40    1
     4    38    35    1
     5    39    40    1
     6    39    36    1
     7    35    36   ar
     8    35    34   ar
     9    36    37   ar
    10    34     5    2
    11    34    33   ar
    12     5    29    1
    13    31    32    2
    14    31    28    1
    15    37    33   ar
    16    37     2    2
    17    33     1    1
    18     2     7    1
    19    29    28    1
    20    29    25    2
    21    28    27    2
    22    16    14   ar
    23    14    15   ar
    24    14    13    1
    25    13    12    1
    26    25     1    1
    27    25    26    1
    28     7     6    2
    29     7     8    1
    30    27    30    1
    31    27    26    1
    32     1     6    1
    33     1    17    1
    34    12     8    1
    35    26     4    2
    36     6    10    1
    37     8     9    2
    38     4    21    1
    39     9    10    1
    40     9    11    1
    41    10     3    2
    42    17    21   ar
    43    17    18   ar
    44    21    20   ar
    45     3    18    1
    46    18    19   ar
    47    20    19   ar
    48    20    23    1
    49    19    22    1
    50    23    24    2
