@<TRIPOS>MOLECULE
1y8y_CT7_A_1.pdb
 21 23 0 0 0
SMALL
GASTEIGER

@<TRIPOS>ATOM
      1  O3        18.9870   24.4950   29.9480 O.2   401  CT7401     -0.1686
      2  S1        19.4960   24.9010   28.6210 S.O2  401  CT7401      0.0105
      3  O2        18.4200   25.4720   27.8470 O.2   401  CT7401     -0.1686
      4  C16       20.7540   26.0820   28.8210 C.ar  401  CT7401      0.1060
      5  C15       20.9590   26.6270   30.1050 C.ar  401  CT7401      0.0220
      6  C17       21.4440   26.4960   27.6670 C.ar  401  CT7401      0.0220
      7  C18       22.4300   27.4440   27.8400 C.ar  401  CT7401      0.0457
      8  C14       21.9480   27.5780   30.2640 C.ar  401  CT7401      0.0457
      9  C13       22.6900   27.9870   29.1130 C.ar  401  CT7401      0.1833
     10  N5        23.6350   28.9740   29.2620 N.pl3 401  CT7401     -0.0085
     11  C9        24.7570   29.0900   28.5140 C.2   401  CT7401      0.3478
     12  N2        25.3620   30.3010   28.4370 N.pl3 401  CT7401     -0.0320
     13  C10       26.4850   30.4550   27.7100 C.2   401  CT7401      0.2826
     14  N1        27.0440   29.4050   27.0170 N.2   401  CT7401     -0.3550
     15  C11       25.8890   32.4080   28.5470 C.2   401  CT7401      0.1282
     16  N3        24.9880   31.4520   28.9480 N.2   401  CT7401     -0.0837
     17  C8        25.3600   27.9860   27.9000 C.2   401  CT7401      0.1338
     18  C7        26.5230   28.1720   27.1400 C.2   401  CT7401      0.1997
     19 CL1        27.1960   26.9940   26.3870 Cl    401  CT7401     -0.0476
     20  C12       26.8660   31.7790   27.7650 C.3   401  CT7401      0.1554
     21  C20       20.0790   23.3290   27.9610 C.3   401  CT7401      0.1816
@<TRIPOS>BOND
     1    19    18    1
     2    14    18    2
     3    14    13    2
     4    18    17    1
     5     6     7   ar
     6     6     4   ar
     7    13    20    1
     8    13    12    1
     9    20    15    1
    10     7     9   ar
    11     3     2    2
    12    17    11    2
    13    21     2    1
    14    12    11    1
    15    12    16    1
    16    11    10    1
    17    15    16    2
    18     2     4    1
    19     2     1    2
    20     4     5   ar
    21     9    10    1
    22     9     8   ar
    23     5     8   ar
