@<TRIPOS>MOLECULE
1y8z_UDP_A_1.pdb
 25 26 0 0 0
SMALL
GASTEIGER

@<TRIPOS>ATOM
      1  N1        26.8400   30.3630   76.0820 N.am  3006  UDP3006    -0.1766
      2  C2        25.7240   30.0760   75.3080 C.1   3006  UDP3006     0.2845
      3  N3        25.7850   30.5390   74.0190 N.2   3006  UDP3006    -0.2452
      4  C4        26.8220   31.2320   73.4340 C.1   3006  UDP3006     0.2182
      5  C5        27.9400   31.4780   74.2950 C.2   3006  UDP3006     0.1242
      6  C6        27.9100   31.0480   75.5590 C.2   3006  UDP3006     0.0929
      7  O2        24.7570   29.4550   75.7290 O.2   3006  UDP3006    -0.1918
      8  O4        26.7110   31.6140   72.2670 O.2   3006  UDP3006    -0.2085
      9  C1'       26.8470   29.9250   77.4810 C.3   3006  UDP3006     0.2401
     10  C2'       27.9280   28.9010   77.8120 C.3   3006  UDP3006     0.2319
     11  O2'       27.4730   27.6060   77.4750 O.3   3006  UDP3006    -0.2157
     12  C3'       28.0760   29.1370   79.3130 C.3   3006  UDP3006     0.2158
     13  C4'       27.9660   30.6570   79.4110 C.3   3006  UDP3006     0.1799
     14  O4'       27.1450   31.0520   78.2800 O.3   3006  UDP3006    -0.3320
     15  O3'       26.9670   28.5550   79.9840 O.3   3006  UDP3006    -0.2175
     16  C5'       29.2810   31.4220   79.3750 C.3   3006  UDP3006     0.1813
     17  O5'       29.9490   31.3150   80.6360 O.3   3006  UDP3006    -0.3111
     18  PA        31.5390   31.1840   80.7480 P.3   3006  UDP3006     0.2231
     19  O1A       31.9250   31.6740   82.0890 O.3   3006  UDP3006    -0.4370
     20  O2A       31.8910   29.8040   80.3420 O.2   3006  UDP3006    -0.5169
     21  O3A       32.1360   32.1500   79.5790 O.3   3006  UDP3006    -0.2261
     22  PB        32.0910   33.7710   79.3780 P.3   3006  UDP3006     0.5373
     23  O1B       33.4430   34.3110   79.7060 O.3   3006  UDP3006    -0.1143
     24  O2B       31.5470   33.9590   78.0270 O.2   3006  UDP3006    -0.2221
     25  O3B       31.0690   34.3000   80.4710 O.3   3006  UDP3006    -0.1143
@<TRIPOS>BOND
     1     8     4    2
     2     4     3    2
     3     4     5    1
     4     3     2    2
     5     5     6    2
     6     2     7    2
     7     2     1   am
     8     6     1    1
     9     1     9    1
    10    11    10    1
    11     9    10    1
    12     9    14    1
    13    10    12    1
    14    24    22    2
    15    14    13    1
    16    12    13    1
    17    12    15    1
    18    16    13    1
    19    16    17    1
    20    22    21    1
    21    22    23    1
    22    22    25    1
    23    21    18    1
    24    20    18    2
    25    17    18    1
    26    18    19    1
