@<TRIPOS>MOLECULE
1y91_CT9_A_1.pdb
 33 36 0 0 0
SMALL
GASTEIGER

@<TRIPOS>ATOM
      1  N8        -2.6880   61.9650   14.0510 N.3   401  CT9401     -0.1329
      2  C61        5.7680   58.0480    5.9130 C.3   401  CT9401      0.1150
      3  S1         7.0200   60.2790    6.6190 S.O2  401  CT9401      0.0634
      4  N6         6.2790   58.8860    7.0020 N.3   401  CT9401     -0.1526
      5  C62        6.1040   58.4520    8.3930 C.3   401  CT9401      0.1150
      6  O2         7.6140   60.0770    5.2870 O.2   401  CT9401     -0.1528
      7  C4        -2.4050   62.2520   12.6290 C.3   401  CT9401      0.0919
      8  C5        -1.1140   63.0730   12.5240 C.3   401  CT9401      0.0208
      9  C6        -0.7830   63.3330   11.0650 C.3   401  CT9401      0.0231
     10  C3        -2.2510   60.9320   11.8630 C.3   401  CT9401      0.0208
     11  C2        -1.8910   61.2200   10.4060 C.3   401  CT9401      0.0231
     12  C1        -0.5900   62.0090   10.3560 C.3   401  CT9401      0.0948
     13  N7        -0.4040   62.3440    8.9680 N.pl3 401  CT9401     -0.2146
     14  C7         0.1690   63.4270    8.4180 C.2   401  CT9401      0.1918
     15  C8         1.3490   63.3660    7.6900 C.3   401  CT9401      0.1960
     16  N1        -0.4940   64.5770    8.5140 N.2   401  CT9401     -0.3542
     17  C10        0.0090   65.6570    7.9420 C.2   401  CT9401      0.2816
     18  C11       -0.5190   66.9200    7.9650 C.3   401  CT9401      0.1393
     19  C20       -1.7870   67.3040    8.6150 C.3   401  CT9401      0.0162
     20  C21       -1.7940   67.6710   10.0740 C.3   401  CT9401      0.0009
     21  C22       -2.9750   66.4940    8.2400 C.3   401  CT9401      0.0009
     22  C12        0.3630   67.6870    7.2210 C.2   401  CT9401      0.1272
     23  N2         1.1210   65.6480    7.2390 N.pl3 401  CT9401     -0.0338
     24  N3         1.3610   66.8780    6.7890 N.2   401  CT9401     -0.0839
     25  C9         1.8390   64.5330    7.0950 C.2   401  CT9401      0.3384
     26  N5         2.9990   64.5790    6.3820 N.2   401  CT9401     -0.0414
     27  C13        3.9160   63.5980    6.4150 C.ar  401  CT9401      0.1931
     28  C18        4.2020   62.9750    7.6430 C.ar  401  CT9401      0.0479
     29  C17        5.1560   61.9770    7.6720 C.ar  401  CT9401      0.0237
     30  C14        4.5830   63.2140    5.2330 C.ar  401  CT9401      0.0479
     31  C15        5.5370   62.2000    5.2910 C.ar  401  CT9401      0.0237
     32  C16        5.8180   61.5930    6.5010 C.ar  401  CT9401      0.1224
     33  O3         7.9370   60.7000    7.6690 O.2   401  CT9401     -0.1528
@<TRIPOS>BOND
     1    30    31   ar
     2    30    27   ar
     3     6     3    2
     4    31    32   ar
     5     2     4    1
     6    26    27    1
     7    26    25    2
     8    27    28   ar
     9    32     3    1
    10    32    29   ar
    11     3     4    1
    12     3    33    2
    13    24    22    2
    14    24    23    1
    15     4     5    1
    16    25    23    1
    17    25    15    1
    18    22    18    1
    19    23    17    1
    20    28    29   ar
    21    15    14    1
    22    17    18    1
    23    17    16    2
    24    18    19    1
    25    21    19    1
    26    14    16    2
    27    14    13    1
    28    19    20    1
    29    13    12    1
    30    12    11    1
    31    12     9    1
    32    11    10    1
    33     9     8    1
    34    10     7    1
    35     8     7    1
    36     7     1    1
