@<TRIPOS>MOLECULE
1y9d_TPP_A_1.pdb
 26 27 0 0 0
SMALL
GASTEIGER

@<TRIPOS>ATOM
      1  N1'       35.4630   10.0740   31.8580 N.2   2602  TPP2602    -0.1861
      2  C2'       36.4330    9.0820   31.7910 C.1   2602  TPP2602     0.0663
      3  CM2       36.0480    7.6360   31.8430 C.3   2602  TPP2602     0.1291
      4  N3'       37.7830    9.3900   31.6410 N.2   2602  TPP2602    -0.3368
      5  C4'       38.1970   10.6960   31.5870 C.2   2602  TPP2602     0.2292
      6  N4'       39.5230   10.9170   31.4380 N.pl3 2602  TPP2602    -0.0925
      7  C5'       37.2380   11.7060   31.7140 C.2   2602  TPP2602     0.0654
      8  C6'       35.8620   11.3870   31.8460 C.2   2602  TPP2602     0.1115
      9  C7'       37.6400   13.1760   31.7160 C.3   2602  TPP2602     0.1237
     10  N3        38.3650   13.4930   32.9750 N.pl3 2602  TPP2602    -0.2970
     11  C2        39.7640   13.6720   33.1190 C.3   2602  TPP2602     0.1543
     12  S1        40.2920   14.0250   34.6490 S.3   2602  TPP2602    -0.0951
     13  C5        38.7280   14.0150   35.1740 C.2   2602  TPP2602     0.0164
     14  C4        37.7580   13.7210   34.1950 C.2   2602  TPP2602     0.0279
     15  CM4       36.2550   13.6590   34.4730 C.3   2602  TPP2602     0.0473
     16  C6        38.5020   14.3130   36.6700 C.3   2602  TPP2602     0.0661
     17  C7        38.9630   13.1590   37.5710 C.3   2602  TPP2602     0.1544
     18  O7        38.4260   13.3520   38.8510 O.3   2602  TPP2602    -0.3134
     19  PA        39.0160   12.6700   40.1600 P.3   2602  TPP2602     0.2230
     20  O1A       38.1240   12.9510   41.3480 O.3   2602  TPP2602    -0.4370
     21  O2A       39.3100   11.1660   40.0200 O.2   2602  TPP2602    -0.5169
     22  O3A       40.4830   13.3330   40.3850 O.3   2602  TPP2602    -0.2261
     23  PB        40.8120   14.8210   40.8890 P.3   2602  TPP2602     0.5373
     24  O1B       41.1260   15.7830   39.7390 O.2   2602  TPP2602    -0.2221
     25  O2B       42.0140   14.5310   41.7550 O.3   2602  TPP2602    -0.1143
     26  O3B       39.6020   15.4130   41.5330 O.3   2602  TPP2602    -0.1143
@<TRIPOS>BOND
     1     6     5    1
     2     5     4    2
     3     5     7    1
     4     4     2    2
     5     7     9    1
     6     7     8    2
     7     9    10    1
     8     2     3    1
     9     2     1    2
    10     8     1    1
    11    10    11    1
    12    10    14    1
    13    11    12    1
    14    14    15    1
    15    14    13    2
    16    12    13    1
    17    13    16    1
    18    16    17    1
    19    17    18    1
    20    18    19    1
    21    24    23    2
    22    21    19    2
    23    19    22    1
    24    19    20    1
    25    22    23    1
    26    23    26    1
    27    23    25    1
