@<TRIPOS>MOLECULE
1y9d_FAD_A_1.pdb
 27 29 0 0 0
SMALL
GASTEIGER

@<TRIPOS>ATOM
      1  PA        56.3180    8.3800   22.8480 P.3   2603  FAD2603     0.2231
      2  O1A       57.2190    9.5900   22.6180 O.3   2603  FAD2603    -0.4370
      3  O2A       54.8840    8.7490   22.5400 O.2   2603  FAD2603    -0.5169
      4  O5B       56.7470    7.0590   21.9830 O.3   2603  FAD2603    -0.3111
      5  C5B       57.9920    6.4120   22.1960 C.3   2603  FAD2603     0.1813
      6  C4B       58.9780    6.8500   21.1090 C.3   2603  FAD2603     0.1821
      7  O4B       60.2450    6.2280   21.2920 O.3   2603  FAD2603    -0.3135
      8  C3B       58.4900    6.3820   19.7500 C.3   2603  FAD2603     0.2184
      9  O3B       58.6880    7.4100   18.8040 O.3   2603  FAD2603    -0.2174
     10  C2B       59.2920    5.1210   19.5200 C.3   2603  FAD2603     0.2570
     11  O2B       59.4180    4.7870   18.1660 O.3   2603  FAD2603    -0.2130
     12  C1B       60.6100    5.4630   20.1820 C.3   2603  FAD2603     0.3186
     13  N9A       61.4120    4.2930   20.5940 N.pl3 2603  FAD2603    -0.1439
     14  C8A       60.9980    3.0730   21.0830 C.3   2603  FAD2603     0.3377
     15  N7A       62.1030    2.3120   21.3130 N.2   2603  FAD2603    -0.2095
     16  C5A       63.2130    3.0190   20.9830 C.2   2603  FAD2603     0.2526
     17  C6A       64.5860    2.7420   21.0140 C.2   2603  FAD2603     0.4393
     18  N6A       65.1340    1.6390   21.5550 N.pl3 2603  FAD2603     0.2180
     19  N1A       65.4440    3.7300   20.5910 N.2   2603  FAD2603     0.0021
     20  C2A       64.9920    4.9630   20.1490 C.3   2603  FAD2603     0.5254
     21  N3A       63.6490    5.2380   20.1210 N.2   2603  FAD2603    -0.0055
     22  C4A       62.7760    4.2670   20.5290 C.2   2603  FAD2603     0.3518
     23  O5'       54.6650    7.9610   25.9550 O.3   2603  FAD2603    -0.1143
     24  P         56.0220    8.7940   25.6450 P.3   2603  FAD2603     0.5373
     25  O1P       55.5930   10.2150   25.3130 O.2   2603  FAD2603    -0.2221
     26  O2P       57.0770    8.6080   26.7130 O.3   2603  FAD2603    -0.1143
     27  O3P       56.6370    7.9950   24.3860 O.3   2603  FAD2603    -0.2261
@<TRIPOS>BOND
     1    11    10    1
     2     9     8    1
     3    10     8    1
     4    10    12    1
     5     8     6    1
     6    21    20    1
     7    21    22    2
     8    20    19    1
     9    12    13    1
    10    12     7    1
    11    22    13    1
    12    22    16    1
    13    19    17    2
    14    13    14    1
    15    16    17    1
    16    16    15    2
    17    17    18    1
    18    14    15    1
    19     6     7    1
    20     6     5    1
    21     4     5    1
    22     4     1    1
    23     3     1    2
    24     2     1    1
    25     1    27    1
    26    27    24    1
    27    25    24    2
    28    24    23    1
    29    24    26    1
