@<TRIPOS>MOLECULE
1y9e_NAD_A_1.pdb
 11 12 0 0 0
SMALL
GASTEIGER

@<TRIPOS>ATOM
      1  C1B        8.5830    6.5660  -17.3290 C.3   1255  NAD1255     0.2552
      2  N9A        9.1760    7.8970  -17.2580 N.pl3 1255  NAD1255    -0.1635
      3  C8A        9.4620    8.9080  -18.2020 C.3   1255  NAD1255     0.3360
      4  N7A       10.0360   10.0700  -17.8470 N.2   1255  NAD1255    -0.2096
      5  C5A       10.1200    9.8090  -16.5420 C.2   1255  NAD1255     0.2525
      6  C6A       10.6800   10.6970  -15.6480 C.2   1255  NAD1255     0.4393
      7  N6A       10.7620   11.9320  -16.2570 N.pl3 1255  NAD1255     0.2180
      8  N1A       10.8020   10.3530  -14.2550 N.2   1255  NAD1255     0.0021
      9  C2A       10.2650    9.1320  -13.8940 C.3   1255  NAD1255     0.5254
     10  N3A        9.6630    8.2700  -14.8030 N.2   1255  NAD1255    -0.0055
     11  C4A        9.6160    8.5600  -16.1190 C.2   1255  NAD1255     0.3502
@<TRIPOS>BOND
     1     3     4    1
     2     3     2    1
     3     4     5    2
     4     1     2    1
     5     2    11    1
     6     5    11    1
     7     5     6    1
     8     7     6    1
     9    11    10    2
    10     6     8    2
    11    10     9    1
    12     8     9    1
