@<TRIPOS>MOLECULE
1y9g_FRU_A_1.pdb
 12 12 0 0 0
SMALL
GASTEIGER

@<TRIPOS>ATOM
      1  C1         1.3010    9.5990   24.7210 C.3   801  FRU801      0.2434
      2  C2         2.3250   10.2570   23.8130 C.3   801  FRU801      0.2807
      3  C3         2.0820   10.0440   22.3370 C.3   801  FRU801      0.2409
      4  C4         3.3460   10.6680   21.7230 C.3   801  FRU801      0.2168
      5  C5         4.4090   10.4200   22.7630 C.3   801  FRU801      0.1836
      6  C6         5.4730   11.4950   22.9630 C.3   801  FRU801      0.2142
      7  O1         1.8610    9.2580   25.9780 O.3   801  FRU801     -0.2148
      8  O2         2.0150   11.6680   23.9300 O.3   801  FRU801     -0.1896
      9  O3         0.8170   10.5140   21.8810 O.3   801  FRU801     -0.2149
     10  O4         3.7280    9.9700   20.5680 O.3   801  FRU801     -0.2175
     11  O5         3.7120   10.2380   23.9750 O.3   801  FRU801     -0.3253
     12  O6         6.4440   10.8970   23.8300 O.3   801  FRU801     -0.2176
@<TRIPOS>BOND
     1    10     4    1
     2     4     3    1
     3     4     5    1
     4     9     3    1
     5     3     2    1
     6     5     6    1
     7     5    11    1
     8     6    12    1
     9     2     8    1
    10     2    11    1
    11     2     1    1
    12     1     7    1
