@<TRIPOS>MOLECULE
1y9r_1CA_A_1.pdb
 24 27 0 0 0
SMALL
GASTEIGER

@<TRIPOS>ATOM
      1  C1        63.7740   55.0110   -0.7050 C.3   2001  1CA2001     0.0118
      2  C2        63.0820   53.7390    0.1490 C.3   2001  1CA2001     0.0694
      3  C3        61.4930   54.0090    0.6240 C.2   2001  1CA2001     0.1725
      4  C4        60.7630   55.1120    0.2170 C.2   2001  1CA2001     0.0289
      5  C5        61.1760   56.0180   -0.7440 C.2   2001  1CA2001    -0.0420
      6  C6        60.1570   57.1910   -1.0790 C.3   2001  1CA2001     0.0221
      7  C7        60.8040   58.5500   -1.1320 C.3   2001  1CA2001     0.0044
      8  C8        62.0430   58.6670   -2.0570 C.3   2001  1CA2001     0.0006
      9  C9        63.2470   57.5610   -1.5170 C.3   2001  1CA2001     0.0035
     10  C10       62.7250   56.0460   -1.4560 C.3   2001  1CA2001     0.0157
     11  C11       64.7070   57.7540   -2.2670 C.3   2001  1CA2001     0.0003
     12  C12       65.1130   59.1940   -2.3420 C.3   2001  1CA2001     0.0004
     13  C13       63.9840   60.2100   -3.0640 C.3   2001  1CA2001     0.0066
     14  C14       62.6680   60.1010   -2.1120 C.3   2001  1CA2001     0.0004
     15  C15       61.7840   61.3380   -2.4010 C.3   2001  1CA2001     0.0004
     16  C16       62.7830   62.3710   -2.7670 C.3   2001  1CA2001     0.0074
     17  C17       64.1910   61.7810   -2.8270 C.3   2001  1CA2001     0.0603
     18  C18       63.7770   59.8400   -4.6410 C.3   2001  1CA2001     0.0004
     19  C19       62.4910   55.4830   -2.8440 C.3   2001  1CA2001     0.0041
     20  C20       65.1860   62.5390   -3.7820 C.2   2001  1CA2001     0.1834
     21  C21       66.6470   62.2210   -3.7630 C.3   2001  1CA2001     0.2458
     22  O3        60.9650   53.2880    1.4560 O.2   2001  1CA2001    -0.2914
     23  O20       64.7530   63.4090   -4.5750 O.2   2001  1CA2001    -0.2933
     24  O21       67.6530   63.1210   -4.3830 O.3   2001  1CA2001    -0.2119
@<TRIPOS>BOND
     1    18    13    1
     2    23    20    2
     3    24    21    1
     4    20    21    1
     5    20    17    1
     6    13    17    1
     7    13    12    1
     8    13    14    1
     9    19    10    1
    10    17    16    1
    11    16    15    1
    12    15    14    1
    13    12    11    1
    14    11     9    1
    15    14     8    1
    16     8     9    1
    17     8     7    1
    18     9    10    1
    19    10     5    1
    20    10     1    1
    21     7     6    1
    22     6     5    1
    23     5     4    2
    24     1     2    1
    25     2     3    1
    26     4     3    1
    27     3    22    2
