@<TRIPOS>MOLECULE
1y9t_HHG_A_1.pdb
 17 16 0 0 0
SMALL
GASTEIGER

@<TRIPOS>ATOM
      1  O2P       14.8220   43.6720    8.6100 O.2   150  HHG150     -0.2224
      2  P         15.7500   44.2520    9.6600 P.3   150  HHG150      0.5327
      3  O4P       15.0300   44.6320   10.9390 O.3   150  HHG150     -0.1145
      4  O1P       16.7210   45.3110    9.1720 O.3   150  HHG150     -0.1145
      5  O3P       16.6670   42.9880   10.0780 O.3   150  HHG150     -0.2674
      6  C1        17.2620   42.1410    9.1000 C.3   150  HHG150      0.1904
      7  C2        18.7740   42.1990    9.2780 C.3   150  HHG150      0.2254
      8  O2        19.1410   41.5080   10.4860 O.3   150  HHG150     -0.2164
      9  C3        19.4500   41.5690    8.0600 C.3   150  HHG150      0.2437
     10  O3        20.8510   41.8190    8.1550 O.3   150  HHG150     -0.4456
     11  C4        21.7810   41.5570    7.0670 C.2   150  HHG150      0.3171
     12  O1        21.3760   41.1230    5.9920 O.2   150  HHG150     -0.2501
     13  C5        23.2470   41.8360    7.3170 C.3   150  HHG150      0.1096
     14  C6        24.0970   41.5130    6.0990 C.3   150  HHG150      0.0116
     15  C7        25.1890   42.5610    5.9410 C.3   150  HHG150      0.0006
     16  C8        24.9870   43.3800    4.6740 C.3   150  HHG150      0.0000
     17  C9        25.7270   42.8550    3.4610 C.3   150  HHG150      0.0000
@<TRIPOS>BOND
     1    17    16    1
     2    16    15    1
     3    15    14    1
     4    12    11    2
     5    14    13    1
     6    11    13    1
     7    11    10    1
     8     9    10    1
     9     9     7    1
    10     1     2    2
    11     6     7    1
    12     6     5    1
    13     4     2    1
    14     7     8    1
    15     2     5    1
    16     2     3    1
