@<TRIPOS>MOLECULE
1ya3_STR_A_1.pdb
 23 26 0 0 0
SMALL
GASTEIGER

@<TRIPOS>ATOM
      1  C1       123.5000  -20.1740   10.9690 C.3   1001  STR1001     0.0118
      2  C2       123.0230  -18.8130   10.3600 C.3   1001  STR1001     0.0694
      3  C3       121.6740  -18.9040    9.6360 C.2   1001  STR1001     0.1725
      4  O3       121.4520  -18.0830    8.7240 O.2   1001  STR1001    -0.2914
      5  C4       120.6710  -19.9190    9.9530 C.2   1001  STR1001     0.0289
      6  C5       120.8910  -20.9130   11.0240 C.2   1001  STR1001    -0.0420
      7  C6       119.7240  -21.9670   11.3880 C.3   1001  STR1001     0.0221
      8  C7       120.2370  -23.4010   11.3310 C.3   1001  STR1001     0.0044
      9  C8       121.5540  -23.6230   12.2070 C.3   1001  STR1001     0.0006
     10  C9       122.7800  -22.6130   11.6960 C.3   1001  STR1001     0.0035
     11  C10      122.3370  -21.0780   11.7470 C.3   1001  STR1001     0.0157
     12  C11      124.2220  -22.8650   12.3860 C.3   1001  STR1001     0.0003
     13  C12      124.6020  -24.3210   12.3880 C.3   1001  STR1001     0.0004
     14  C13      123.4570  -25.2860   13.0740 C.3   1001  STR1001     0.0065
     15  C14      122.0990  -25.0800   12.1790 C.3   1001  STR1001     0.0004
     16  C15      121.1440  -26.2620   12.4720 C.3   1001  STR1001     0.0004
     17  C16      122.1740  -27.3760   12.7940 C.3   1001  STR1001     0.0073
     18  C17      123.6360  -26.7460   12.7690 C.3   1001  STR1001     0.0576
     19  C18      123.3070  -24.9540   14.6890 C.3   1001  STR1001     0.0004
     20  C19      122.1340  -20.5770   13.2670 C.3   1001  STR1001     0.0041
     21  C20      124.6850  -27.5110   13.5270 C.2   1001  STR1001     0.1507
     22  O20      124.3230  -28.1370   14.5710 O.2   1001  STR1001    -0.2961
     23  C21      126.1330  -27.5580   13.0380 C.3   1001  STR1001     0.0722
@<TRIPOS>BOND
     1     4     3    2
     2     3     5    1
     3     3     2    1
     4     5     6    2
     5     2     1    1
     6     1    11    1
     7     6     7    1
     8     6    11    1
     9     8     7    1
    10     8     9    1
    11    10    11    1
    12    10     9    1
    13    10    12    1
    14    11    20    1
    15    15     9    1
    16    15    16    1
    17    15    14    1
    18    12    13    1
    19    13    14    1
    20    16    17    1
    21    18    17    1
    22    18    14    1
    23    18    21    1
    24    23    21    1
    25    14    19    1
    26    21    22    2
