@<TRIPOS>MOLECULE
1ya4_CTX_A_1.pdb
 28 30 0 0 0
SMALL
GASTEIGER

@<TRIPOS>ATOM
      1  CA        -1.5910   38.1990   37.8080 C.3     1  CTX1        0.0050
      2  CB        -1.1130   39.6060   37.4220 C.3     1  CTX1        0.0264
      3  OL         3.7350   43.7100   43.0990 O.3     1  CTX1       -0.4740
      4  CA1        4.8010   44.6710   42.7510 C.3     1  CTX1        0.2226
      5  CB1        5.5470   45.1600   43.9930 C.3     1  CTX1        0.1201
      6  C1         2.8570   43.1010   42.1950 C.ar    1  CTX1        0.1386
      7  C2         2.8480   43.3170   40.7510 C.ar    1  CTX1        0.0369
      8  C3         1.8950   42.6700   39.9440 C.ar    1  CTX1        0.0031
      9  C5         0.9180   41.5510   41.9310 C.ar    1  CTX1        0.0031
     10  C6         1.8780   42.1980   42.7790 C.ar    1  CTX1        0.0369
     11  C4         0.8970   41.7690   40.5050 C.ar    1  CTX1       -0.0001
     12  C7        -0.2010   41.1000   39.5440 C.2     1  CTX1       -0.0040
     13  C8        -1.5900   41.5210   40.0130 C.ar    1  CTX1       -0.0003
     14  C9        -2.5490   40.5390   40.4890 C.ar    1  CTX1       -0.0000
     15  C10       -3.8390   40.9610   40.9300 C.ar    1  CTX1       -0.0000
     16  C11       -4.1870   42.3410   40.9090 C.ar    1  CTX1       -0.0000
     17  C12       -3.2510   43.3170   40.4440 C.ar    1  CTX1       -0.0000
     18  C13       -1.9840   42.9180   40.0070 C.ar    1  CTX1       -0.0000
     19  C14        3.2090   39.8190   36.2130 C.ar    1  CTX1       -0.0000
     20  C15        4.0430   39.0660   37.0890 C.ar    1  CTX1       -0.0000
     21  C16        3.5750   38.6820   38.3720 C.ar    1  CTX1       -0.0000
     22  C17        2.2720   39.0500   38.7790 C.ar    1  CTX1       -0.0003
     23  C18        1.4230   39.8090   37.9050 C.ar    1  CTX1       -0.0040
     24  C19        1.9060   40.1900   36.6170 C.ar    1  CTX1       -0.0003
     25  C20       -0.0040   40.2130   38.3510 C.2     1  CTX1       -0.0222
     26  NI         7.0640   45.2840   43.7180 N.3     1  CTX1       -0.2672
     27  C21        7.7110   44.0090   43.3150 C.3     1  CTX1        0.0898
     28  C22        7.3830   46.3560   42.7110 C.3     1  CTX1        0.0898
@<TRIPOS>BOND
     1    19    24   ar
     2    19    20   ar
     3    24    23   ar
     4    20    21   ar
     5     2     1    1
     6     2    25    1
     7    23    25    1
     8    23    22   ar
     9    25    12    2
    10    21    22   ar
    11    12    13    1
    12    12    11    1
    13     8    11   ar
    14     8     7   ar
    15    18    13   ar
    16    18    17   ar
    17    13    14   ar
    18    17    16   ar
    19    14    15   ar
    20    11     9   ar
    21     7     6   ar
    22    16    15   ar
    23     9    10   ar
    24     6    10   ar
    25     6     3    1
    26    28    26    1
    27     4     3    1
    28     4     5    1
    29    27    26    1
    30    26     5    1
