@<TRIPOS>MOLECULE
1ya4_SIA_A_1.pdb
 21 21 0 0 0
SMALL
GASTEIGER

@<TRIPOS>ATOM
      1  C1        -9.8310   34.2400   70.7770 C.2   1180  SIA1180     0.4179
      2  C2        -9.0060   34.7270   69.5720 C.3   1180  SIA1180     0.3155
      3  C3        -7.8510   35.6010   70.0780 C.3   1180  SIA1180     0.1056
      4  C4        -6.6210   35.4810   69.1810 C.3   1180  SIA1180     0.1798
      5  C5        -7.0410   35.1910   67.7430 C.3   1180  SIA1180     0.1554
      6  C6        -7.7840   33.8400   67.6470 C.3   1180  SIA1180     0.1734
      7  C7        -8.7540   33.8250   66.4590 C.3   1180  SIA1180     0.2135
      8  C8        -8.1430   33.2290   65.1900 C.3   1180  SIA1180     0.2173
      9  C9        -8.9490   33.7230   64.0080 C.3   1180  SIA1180     0.2175
     10  C10       -5.7490   36.0930   65.9180 C.2   1180  SIA1180     0.2420
     11  C11       -4.8810   37.3040   66.2230 C.3   1180  SIA1180     0.0964
     12  N5        -5.8730   35.1820   66.8820 N.am  1180  SIA1180    -0.2020
     13  O1A       -9.7170   34.8480   71.8740 O.co2 1180  SIA1180    -0.2401
     14  O1B      -10.5810   33.2350   70.6370 O.co2 1180  SIA1180    -0.2401
     15  O2        -9.8040   35.4590   68.7080 O.3   1180  SIA1180    -0.1830
     16  O4        -5.8790   36.6910   69.2280 O.3   1180  SIA1180    -0.2210
     17  O6        -8.5120   33.5570   68.8760 O.3   1180  SIA1180    -0.3220
     18  O7        -9.9170   33.0850   66.7950 O.3   1180  SIA1180    -0.2176
     19  O8        -6.7950   33.6230   65.0380 O.3   1180  SIA1180    -0.2175
     20  O9        -9.3330   35.0710   64.2350 O.3   1180  SIA1180    -0.2175
     21  O10       -6.2980   35.9900   64.8140 O.2   1180  SIA1180    -0.2733
@<TRIPOS>BOND
     1     9    20    1
     2     9     8    1
     3    21    10    2
     4    19     8    1
     5     8     7    1
     6    10    11    1
     7    10    12   am
     8     7    18    1
     9     7     6    1
    10    12     5    1
    11     6     5    1
    12     6    17    1
    13     5     4    1
    14    15     2    1
    15    17     2    1
    16     4    16    1
    17     4     3    1
    18     2     3    1
    19     2     1    1
    20    14     1   ar
    21     1    13   ar
