@<TRIPOS>MOLECULE
1ya6_UDP_A_1.pdb
 25 26 0 0 0
SMALL
GASTEIGER

@<TRIPOS>ATOM
      1  N1        28.1350   87.9530   10.4730 N.am  2001  UDP2001    -0.1766
      2  C2        26.9340   87.9980   11.1350 C.1   2001  UDP2001     0.2845
      3  N3        26.9650   87.5260   12.4230 N.2   2001  UDP2001    -0.2452
      4  C4        28.0590   87.0460   13.1060 C.1   2001  UDP2001     0.2182
      5  C5        29.2800   87.0650   12.3560 C.2   2001  UDP2001     0.1242
      6  C6        29.2730   87.5060   11.0950 C.2   2001  UDP2001     0.0929
      7  O2        25.9150   88.4340   10.6210 O.2   2001  UDP2001    -0.1918
      8  O4        27.9230   86.6400   14.2670 O.2   2001  UDP2001    -0.2085
      9  C1'       28.1410   88.3750    9.0690 C.3   2001  UDP2001     0.2401
     10  C2'       29.1690   89.4500    8.7490 C.3   2001  UDP2001     0.2319
     11  O2'       28.5990   90.7260    8.9510 O.3   2001  UDP2001    -0.2157
     12  C3'       29.4710   89.1540    7.2820 C.3   2001  UDP2001     0.2158
     13  C4'       29.3580   87.6330    7.2090 C.3   2001  UDP2001     0.1799
     14  O4'       28.4770   87.2460    8.2940 O.3   2001  UDP2001    -0.3320
     15  O3'       28.4870   89.7570    6.4610 O.3   2001  UDP2001    -0.2175
     16  C5'       30.6600   86.8780    7.3450 C.3   2001  UDP2001     0.1813
     17  O5'       31.4070   86.9660    6.1380 O.3   2001  UDP2001    -0.3111
     18  PA        32.9050   87.5240    6.1190 P.3   2001  UDP2001     0.2231
     19  O1A       33.3770   87.4640    4.7060 O.2   2001  UDP2001    -0.5169
     20  O2A       32.9220   88.8170    6.8470 O.3   2001  UDP2001    -0.4370
     21  O3A       33.7840   86.4670    7.0170 O.3   2001  UDP2001    -0.2261
     22  PB        33.6420   84.8530    7.2440 P.3   2001  UDP2001     0.5373
     23  O1B       35.0250   84.3000    7.2160 O.3   2001  UDP2001    -0.1143
     24  O2B       32.7930   84.6330    8.4390 O.3   2001  UDP2001    -0.1143
     25  O3B       32.8650   84.3270    5.9590 O.2   2001  UDP2001    -0.2221
@<TRIPOS>BOND
     1    19    18    2
     2    25    22    2
     3    18    17    1
     4    18    20    1
     5    18    21    1
     6    17    16    1
     7    15    12    1
     8    21    22    1
     9    13    12    1
    10    13    16    1
    11    13    14    1
    12    23    22    1
    13    22    24    1
    14    12    10    1
    15    14     9    1
    16    10    11    1
    17    10     9    1
    18     9     1    1
    19     1     6    1
    20     1     2   am
    21     7     2    2
    22     6     5    2
    23     2     3    2
    24     5     4    1
    25     3     4    2
    26     4     8    2
