@<TRIPOS>MOLECULE
1ya8_SIA_A_1.pdb
 21 21 0 0 0
SMALL
GASTEIGER

@<TRIPOS>ATOM
      1  C1       -10.3050   33.8870   71.3780 C.2   1182  SIA1182     0.4179
      2  C2        -9.2490   34.6670   70.6060 C.3   1182  SIA1182     0.3155
      3  C3        -7.8790   34.4470   71.2630 C.3   1182  SIA1182     0.1056
      4  C4        -6.7810   35.1750   70.4810 C.3   1182  SIA1182     0.1798
      5  C5        -7.3400   35.7470   69.1760 C.3   1182  SIA1182     0.1554
      6  C6        -8.1300   34.6540   68.4330 C.3   1182  SIA1182     0.1734
      7  C7        -8.6320   35.1410   67.0620 C.3   1182  SIA1182     0.2135
      8  C8        -8.5840   34.0090   66.0550 C.3   1182  SIA1182     0.2173
      9  C9        -7.1350   33.6310   65.7740 C.3   1182  SIA1182     0.2175
     10  C10       -5.5170   37.2680   68.8310 C.2   1182  SIA1182     0.2420
     11  C11       -4.1400   36.9200   69.3900 C.3   1182  SIA1182     0.0964
     12  N5        -6.2590   36.2660   68.3620 N.am  1182  SIA1182    -0.2020
     13  O1A      -10.4930   34.1730   72.5830 O.co2 1182  SIA1182    -0.2401
     14  O1B      -10.9530   32.9940   70.7840 O.co2 1182  SIA1182    -0.2401
     15  O2        -9.5690   36.0190   70.6170 O.3   1182  SIA1182    -0.1830
     16  O4        -6.2430   36.2260   71.2710 O.3   1182  SIA1182    -0.2210
     17  O6        -9.2550   34.1910   69.2360 O.3   1182  SIA1182    -0.3220
     18  O7        -9.9650   35.6230   67.1550 O.3   1182  SIA1182    -0.2176
     19  O8        -9.2920   32.8910   66.5740 O.3   1182  SIA1182    -0.2175
     20  O9        -6.3910   34.8000   65.4720 O.3   1182  SIA1182    -0.2175
     21  O10       -5.9110   38.4370   68.8440 O.2   1182  SIA1182    -0.2733
@<TRIPOS>BOND
     1    20     9    1
     2     9     8    1
     3     8    19    1
     4     8     7    1
     5     7    18    1
     6     7     6    1
     7    12    10   am
     8    12     5    1
     9     6     5    1
    10     6    17    1
    11    10    21    2
    12    10    11    1
    13     5     4    1
    14    17     2    1
    15     4     3    1
    16     4    16    1
    17     2    15    1
    18     2     3    1
    19     2     1    1
    20    14     1   ar
    21     1    13   ar
