@<TRIPOS>MOLECULE
1ya8_MVB_A_1.pdb
 22 24 0 0 0
SMALL
GASTEIGER

@<TRIPOS>ATOM
      1  O1         1.8250   54.8900   35.7100 O.3   2011  MVB2011    -0.2224
      2  C1        -0.8410   56.6790   33.6290 C.2   2011  MVB2011     0.3195
      3  O2        -1.8980   56.4260   33.0490 O.2   2011  MVB2011    -0.2500
      4  O3        -0.0960   57.8740   33.4310 O.3   2011  MVB2011    -0.4521
      5  O5        -1.0270   60.5380   34.9540 O.3   2011  MVB2011    -0.2228
      6  C7         1.3770   57.8790   33.4530 C.3   2011  MVB2011     0.1714
      7  C8         1.9300   57.0570   34.6650 C.3   2011  MVB2011     0.0770
      8  C9         1.3400   55.6320   34.6050 C.3   2011  MVB2011     0.1667
      9  C10       -0.2150   55.6770   34.6470 C.3   2011  MVB2011     0.1424
     10  C11        4.0110   60.8970   37.3980 C.3   2011  MVB2011     0.0047
     11  C12        1.8660   59.3740   33.4020 C.3   2011  MVB2011     0.0437
     12  C13        2.5920   60.0180   34.6410 C.3   2011  MVB2011     0.0044
     13  C14        1.8300   60.0740   36.0240 C.3   2011  MVB2011     0.0106
     14  C15        2.8300   59.8910   37.2690 C.3   2011  MVB2011     0.0224
     15  C16        2.0300   59.9480   38.6090 C.2   2011  MVB2011    -0.0268
     16  C17        0.8370   60.6190   38.7680 C.2   2011  MVB2011    -0.0091
     17  C18        0.2330   61.3230   37.7410 C.2   2011  MVB2011    -0.0246
     18  C19        0.9270   61.3920   36.2930 C.3   2011  MVB2011     0.0527
     19  C20       -0.1550   61.6970   35.1520 C.3   2011  MVB2011     0.1563
     20  C21       -0.9960   62.9700   35.5470 C.3   2011  MVB2011     0.0379
     21  C22       -1.7350   62.7990   36.9280 C.3   2011  MVB2011     0.0283
     22  C23       -0.9590   61.9700   37.9840 C.2   2011  MVB2011    -0.0302
@<TRIPOS>BOND
     1     3     2    2
     2    11     6    1
     3    11    12    1
     4     4     6    1
     5     4     2    1
     6     6     7    1
     7     2     9    1
     8     8     9    1
     9     8     7    1
    10     8     1    1
    11    12    13    1
    12     5    19    1
    13    19    20    1
    14    19    18    1
    15    20    21    1
    16    13    18    1
    17    13    14    1
    18    18    17    1
    19    21    22    1
    20    14    10    1
    21    14    15    1
    22    17    22    2
    23    17    16    1
    24    15    16    2
