@<TRIPOS>MOLECULE
1yaa_PLP_A_1.pdb
 15 15 0 0 0
SMALL
GASTEIGER

@<TRIPOS>ATOM
      1  N1        47.7140   38.2330   38.1780 N.ar  905  PLP905     -0.2452
      2  C2        47.2220   37.7700   37.0140 C.ar  905  PLP905      0.0978
      3  C2A       48.0550   37.9700   35.7360 C.3   905  PLP905      0.0555
      4  C3        45.9900   37.1140   36.9920 C.ar  905  PLP905      0.2049
      5  O3        45.4900   36.6780   35.8300 O.3   905  PLP905     -0.2857
      6  C4        45.2510   36.9370   38.1960 C.ar  905  PLP905      0.0182
      7  C4A       44.0630   36.3160   38.2130 C.3   905  PLP905      0.0342
      8  C5        45.8430   37.4620   39.3660 C.ar  905  PLP905      0.0261
      9  C6        47.0420   38.0880   39.3440 C.ar  905  PLP905      0.0965
     10  C5A       45.1550   37.3670   40.7490 C.3   905  PLP905      0.1815
     11  O4P       43.8030   37.0240   40.8020 O.3   905  PLP905     -0.2653
     12  P         43.0460   36.8750   42.1630 P.3   905  PLP905      0.5329
     13  O1P       43.7530   35.7760   42.8270 O.3   905  PLP905     -0.1145
     14  O2P       41.5830   36.4780   41.7020 O.2   905  PLP905     -0.2224
     15  O3P       42.9730   38.1690   42.8410 O.3   905  PLP905     -0.1145
@<TRIPOS>BOND
     1     3     2    1
     2     5     4    1
     3     4     2   ar
     4     4     6   ar
     5     2     1   ar
     6     1     9   ar
     7     6     7    1
     8     6     8   ar
     9     9     8   ar
    10     8    10    1
    11    10    11    1
    12    11    12    1
    13    14    12    2
    14    12    13    1
    15    12    15    1
