@<TRIPOS>MOLECULE
1yae_DOQ_A_1.pdb
 22 22 0 0 0
SMALL
GASTEIGER

@<TRIPOS>ATOM
      1  OAD      -17.2290    4.1490   12.2620 O.co2 1103  DOQ1103    -0.2453
      2  CAQ      -17.3410    3.0910   12.8990 C.2   1103  DOQ1103     0.3683
      3  OAG      -17.3950    3.1270   14.1330 O.co2 1103  DOQ1103    -0.2453
      4  CAS      -17.4340    1.7300   12.1670 C.3   1103  DOQ1103     0.1253
      5  CAB      -18.8220    1.1070   12.3710 C.3   1103  DOQ1103     0.0166
      6  CAK      -16.4210    0.7460   12.7400 C.2   1103  DOQ1103    -0.0153
      7  CAI      -15.1570    0.5920   12.1960 C.2   1103  DOQ1103    -0.0047
      8  CAJ      -14.3120   -0.3410   12.7930 C.2   1103  DOQ1103    -0.0088
      9  CAP      -13.0170   -0.5970   12.3510 C.2   1103  DOQ1103    -0.0428
     10  CAA      -12.1760   -1.6470   13.1000 C.3   1103  DOQ1103     0.0264
     11  CAT      -12.4480    0.1760   11.1510 C.3   1103  DOQ1103     0.0382
     12  CAL      -10.9320    0.1320   11.1690 C.3   1103  DOQ1103     0.0933
     13  N        -10.5190    0.1280    9.7570 N.3   1103  DOQ1103    -0.2080
     14  CA       -11.7370    0.1820    8.9310 C.3   1103  DOQ1103     0.1766
     15  C        -12.1140    1.6390    8.5600 C.2   1103  DOQ1103     0.3803
     16  OXT      -11.2630    2.5370    8.5510 O.co2 1103  DOQ1103    -0.2441
     17  O        -13.2780    1.9090    8.2530 O.co2 1103  DOQ1103    -0.2441
     18  CB       -12.8060   -0.4450    9.8010 C.3   1103  DOQ1103     0.0434
     19  CG       -12.6970   -1.9860    9.7450 C.3   1103  DOQ1103     0.1164
     20  CD       -13.5340   -2.6860    8.6400 C.2   1103  DOQ1103     0.3649
     21  OE2      -14.4450   -2.1080    8.0320 O.co2 1103  DOQ1103    -0.2457
     22  OE1      -13.3010   -3.8710    8.3720 O.co2 1103  DOQ1103    -0.2457
@<TRIPOS>BOND
     1    21    20   ar
     2    17    15   ar
     3    22    20   ar
     4    16    15   ar
     5    15    14    1
     6    20    19    1
     7    14    13    1
     8    14    18    1
     9    19    18    1
    10    13    12    1
    11    18    11    1
    12    11    12    1
    13    11     9    1
    14     4     5    1
    15     4     6    1
    16     4     2    1
    17     7     6    2
    18     7     8    1
    19     1     2   ar
    20     9     8    2
    21     9    10    1
    22     2     3   ar
