@<TRIPOS>MOLECULE
1yag_ATP_A_1.pdb
 31 33 0 0 0
SMALL
GASTEIGER

@<TRIPOS>ATOM
      1  PG        14.2300   -2.6010   14.9530 P.3   378  ATP378      0.5373
      2  O1G       13.0040   -2.6490   15.7400 O.3   378  ATP378     -0.1143
      3  O2G       15.5780   -2.7380   15.5730 O.3   378  ATP378     -0.1143
      4  O3G       14.2430   -3.7230   13.9240 O.2   378  ATP378     -0.2221
      5  PB        15.2060   -0.4530   13.2100 P.3   378  ATP378      0.2277
      6  O1B       16.5780   -0.8910   13.1620 O.3   378  ATP378     -0.4368
      7  O2B       14.8600   -0.3960   11.7870 O.2   378  ATP378     -0.5168
      8  O3B       14.1840   -1.2550   14.1100 O.3   378  ATP378     -0.2258
      9  PA        15.9400    2.2190   14.1310 P.3   378  ATP378      0.2189
     10  O1A       16.8210    2.0660   15.3210 O.3   378  ATP378     -0.4371
     11  O2A       16.6960    2.5010   12.8840 O.2   378  ATP378     -0.5170
     12  O3A       15.0240    0.9500   13.9680 O.3   378  ATP378     -0.2700
     13  O5'       14.8720    3.3110   14.4310 O.3   378  ATP378     -0.3112
     14  C5'       13.8420    3.7980   13.5570 C.3   378  ATP378      0.1813
     15  C4'       12.7430    4.3980   14.4040 C.3   378  ATP378      0.1821
     16  O4'       13.3430    5.4710   15.1780 O.3   378  ATP378     -0.3135
     17  C3'       11.5760    4.9760   13.5720 C.3   378  ATP378      0.2184
     18  O3'       10.3070    4.7700   14.2080 O.3   378  ATP378     -0.2174
     19  C2'       11.9610    6.4500   13.5590 C.3   378  ATP378      0.2570
     20  O2'       10.8570    7.3110   13.3890 O.3   378  ATP378     -0.2130
     21  C1'       12.6660    6.6720   14.9440 C.3   378  ATP378      0.3186
     22  N9        13.5500    7.8430   15.0260 N.pl3 378  ATP378     -0.1439
     23  C8        14.5990    8.1740   14.2480 C.3   378  ATP378      0.3377
     24  N7        15.1570    9.3130   14.6430 N.2   378  ATP378     -0.2095
     25  C5        14.4310    9.7250   15.7330 C.2   378  ATP378      0.2526
     26  C6        14.5370   10.8380   16.6190 C.2   378  ATP378      0.4393
     27  N6        15.4340   11.8120   16.4860 N.pl3 378  ATP378      0.2180
     28  N1        13.6370   10.9960   17.6530 N.2   378  ATP378      0.0021
     29  C2        12.6710    9.9940   17.8180 C.3   378  ATP378      0.5254
     30  N3        12.5140    8.9110   17.0460 N.2   378  ATP378     -0.0055
     31  C4        13.4410    8.8180   16.0180 C.2   378  ATP378      0.3518
@<TRIPOS>BOND
     1     7     5    2
     2    11     9    2
     3     6     5    1
     4     5    12    1
     5     5     8    1
     6    20    19    1
     7    14    15    1
     8    14    13    1
     9    19    17    1
    10    19    21    1
    11    17    18    1
    12    17    15    1
    13     4     1    2
    14    12     9    1
    15     8     1    1
    16     9    13    1
    17     9    10    1
    18    23    24    1
    19    23    22    1
    20    15    16    1
    21    24    25    2
    22    21    22    1
    23    21    16    1
    24     1     3    1
    25     1     2    1
    26    22    31    1
    27    25    31    1
    28    25    26    1
    29    31    30    2
    30    27    26    1
    31    26    28    2
    32    30    29    1
    33    28    29    1
