@<TRIPOS>MOLECULE
1yah_SIA_A_1.pdb
 21 21 0 0 0
SMALL
GASTEIGER

@<TRIPOS>ATOM
      1  C1        -9.9890   34.1400   71.7480 C.2   1180  SIA1180     0.4179
      2  C2        -9.0680   34.7690   70.7080 C.3   1180  SIA1180     0.3155
      3  C3        -7.9750   35.5800   71.4270 C.3   1180  SIA1180     0.1056
      4  C4        -6.7100   35.6820   70.5670 C.3   1180  SIA1180     0.1798
      5  C5        -7.0730   35.5660   69.0790 C.3   1180  SIA1180     0.1554
      6  C6        -7.6860   34.1580   68.7900 C.3   1180  SIA1180     0.1734
      7  C7        -8.5490   34.1370   67.5080 C.3   1180  SIA1180     0.2135
      8  C8        -7.7550   33.7600   66.2440 C.3   1180  SIA1180     0.2173
      9  C9        -8.6600   33.9810   65.0420 C.3   1180  SIA1180     0.2175
     10  C10       -5.5750   37.0760   67.9230 C.2   1180  SIA1180     0.2420
     11  C11       -4.3930   37.7030   68.6580 C.3   1180  SIA1180     0.0964
     12  N5        -5.9030   35.8230   68.2490 N.am  1180  SIA1180    -0.2020
     13  O1A      -10.3760   34.8440   72.7120 O.co2 1180  SIA1180    -0.2401
     14  O1B      -10.3320   32.9440   71.5970 O.co2 1180  SIA1180    -0.2401
     15  O2        -9.8050   35.5960   69.8680 O.3   1180  SIA1180    -0.1830
     16  O4        -6.0660   36.9220   70.8150 O.3   1180  SIA1180    -0.2210
     17  O6        -8.4870   33.6990   69.9260 O.3   1180  SIA1180    -0.3220
     18  O7        -9.6250   33.2110   67.6570 O.3   1180  SIA1180    -0.2176
     19  O8        -6.5750   34.5460   66.1080 O.3   1180  SIA1180    -0.2175
     20  O9        -9.4400   35.1530   65.2440 O.3   1180  SIA1180    -0.2175
     21  O10       -6.1910   37.7350   67.0710 O.2   1180  SIA1180    -0.2733
@<TRIPOS>BOND
     1     9    20    1
     2     9     8    1
     3    19     8    1
     4     8     7    1
     5    21    10    2
     6     7    18    1
     7     7     6    1
     8    10    12   am
     9    10    11    1
    10    12     5    1
    11     6     5    1
    12     6    17    1
    13     5     4    1
    14    15     2    1
    15    17     2    1
    16     4    16    1
    17     4     3    1
    18     2     3    1
    19     2     1    1
    20    14     1   ar
    21     1    13   ar
