@<TRIPOS>MOLECULE
1yaj_SIA_A_1.pdb
 21 21 0 0 0
SMALL
GASTEIGER

@<TRIPOS>ATOM
      1  C1       -17.0070  -20.2830   -8.6940 C.2   1180  SIA1180     0.4179
      2  C2       -16.3720  -19.9540   -7.3320 C.3   1180  SIA1180     0.3155
      3  C3       -14.9140  -20.4450   -7.3070 C.3   1180  SIA1180     0.1056
      4  C4       -14.0460  -19.5070   -6.4600 C.3   1180  SIA1180     0.1798
      5  C5       -14.8730  -18.9680   -5.2810 C.3   1180  SIA1180     0.1554
      6  C6       -16.0230  -18.1020   -5.8100 C.3   1180  SIA1180     0.1734
      7  C7       -17.2240  -18.1660   -4.8790 C.3   1180  SIA1180     0.2135
      8  C8       -17.2990  -16.9590   -3.9570 C.3   1180  SIA1180     0.2173
      9  C9       -18.4450  -17.1630   -2.9960 C.3   1180  SIA1180     0.2175
     10  C10      -13.9320  -18.5610   -3.0960 C.2   1180  SIA1180     0.2420
     11  C11      -12.9850  -19.7110   -2.8020 C.3   1180  SIA1180     0.0964
     12  N5       -14.0480  -18.1930   -4.3710 N.am  1180  SIA1180    -0.2020
     13  O1A      -18.0440  -20.9910   -8.7220 O.co2 1180  SIA1180    -0.2401
     14  O1B      -16.4620  -19.8500   -9.7410 O.co2 1180  SIA1180    -0.2401
     15  O2       -17.1010  -20.5540   -6.3190 O.3   1180  SIA1180    -0.1830
     16  O4       -12.9100  -20.2120   -5.9870 O.3   1180  SIA1180    -0.2210
     17  O6       -16.4210  -18.5290   -7.1430 O.3   1180  SIA1180    -0.3220
     18  O7       -18.4020  -18.2210   -5.6570 O.3   1180  SIA1180    -0.2176
     19  O8       -16.1010  -16.8490   -3.2180 O.3   1180  SIA1180    -0.2175
     20  O9       -18.2300  -18.3750   -2.2810 O.3   1180  SIA1180    -0.2175
     21  O10      -14.5450  -18.0190   -2.1730 O.2   1180  SIA1180    -0.2733
@<TRIPOS>BOND
     1    14     1   ar
     2    13     1   ar
     3     1     2    1
     4     2     3    1
     5     2    17    1
     6     2    15    1
     7     3     4    1
     8    17     6    1
     9     4    16    1
    10     4     5    1
    11     6     5    1
    12     6     7    1
    13    18     7    1
    14     5    12    1
    15     7     8    1
    16    12    10   am
    17     8    19    1
    18     8     9    1
    19    10    11    1
    20    10    21    2
    21     9    20    1
