@<TRIPOS>MOLECULE
1yas_HIS_A_1.pdb
 11 11 0 0 0
SMALL
GASTEIGER

@<TRIPOS>ATOM
      1  N         13.8430   54.1930   14.5300 N.3   300  HIS300     -0.1204
      2  CA        13.9660   53.5060   15.7840 C.3   300  HIS300      0.2002
      3  C         15.2930   52.7870   15.7150 C.2   300  HIS300      0.3823
      4  O         15.6910   52.4590   16.8130 O.co2 300  HIS300     -0.2440
      5  CB        12.8030   52.5570   15.9450 C.3   300  HIS300      0.0776
      6  CG        12.3380   52.7630   17.3600 C.2   300  HIS300      0.0767
      7  ND1       12.3360   51.9390   18.4310 N.2   300  HIS300     -0.2470
      8  CD2       11.8530   53.9750   17.8010 C.2   300  HIS300      0.1098
      9  CE1       11.9020   52.5930   19.4990 C.3   300  HIS300      0.2505
     10  NE2       11.6160   53.8130   19.0820 N.2   300  HIS300     -0.2415
     11  OXT       15.9140   52.6430   14.6530 O.co2 300  HIS300     -0.2440
@<TRIPOS>BOND
     1     1     2    1
     2    11     3   ar
     3     3     2    1
     4     3     4   ar
     5     2     5    1
     6     5     6    1
     7     6     8    1
     8     6     7    2
     9     8    10    2
    10     7     9    1
    11    10     9    1
