@<TRIPOS>MOLECULE
1yb1_AE2_A_1.pdb
 21 24 0 0 0
SMALL
GASTEIGER

@<TRIPOS>ATOM
      1  C1        23.9620  -31.0580    2.9830 C.3   602  AE2602      0.0026
      2  C2        24.9120  -30.4400    1.9500 C.3   602  AE2602      0.0329
      3  C3        24.2600  -30.3140    0.5780 C.3   602  AE2602      0.1520
      4  O3        24.0670  -31.6270    0.0390 O.3   602  AE2602     -0.2232
      5  C4        22.9070  -29.6050    0.6710 C.3   602  AE2602      0.0329
      6  C5        22.0030  -30.2450    1.7310 C.3   602  AE2602      0.0025
      7  C6        20.6390  -29.5560    1.7280 C.3   602  AE2602      0.0001
      8  C7        19.6890  -30.2230    2.7090 C.3   602  AE2602      0.0000
      9  C8        20.3070  -30.3410    4.1100 C.3   602  AE2602      0.0004
     10  C9        21.6850  -31.0330    4.0770 C.3   602  AE2602      0.0000
     11  C10       22.6420  -30.2840    3.1340 C.3   602  AE2602      0.0002
     12  C11       22.2480  -31.3000    5.4970 C.3   602  AE2602      0.0004
     13  C12       21.2610  -32.0370    6.4010 C.3   602  AE2602      0.0069
     14  C13       19.9560  -31.2540    6.4670 C.3   602  AE2602      0.0515
     15  C14       19.4000  -31.1240    5.0480 C.3   602  AE2602      0.0070
     16  C15       17.9480  -30.6660    5.2370 C.3   602  AE2602      0.0082
     17  C16       17.4760  -31.5040    6.4280 C.3   602  AE2602      0.0645
     18  C17       18.7740  -31.9230    7.1130 C.2   602  AE2602      0.1498
     19  O17       18.8240  -32.6860    8.0770 O.2   602  AE2602     -0.2961
     20  C18       20.1480  -29.9210    7.1760 C.3   602  AE2602      0.0073
     21  C19       22.9140  -28.8660    3.6740 C.3   602  AE2602      0.0000
@<TRIPOS>BOND
     1     4     3    1
     2     3     5    1
     3     3     2    1
     4     5     6    1
     5     7     6    1
     6     7     8    1
     7     6    11    1
     8     2     1    1
     9     8     9    1
    10     1    11    1
    11    11    21    1
    12    11    10    1
    13    10     9    1
    14    10    12    1
    15     9    15    1
    16    15    16    1
    17    15    14    1
    18    16    17    1
    19    12    13    1
    20    13    14    1
    21    17    18    1
    22    14    18    1
    23    14    20    1
    24    18    19    2
