@<TRIPOS>MOLECULE
1yb5_NAP_A_1.pdb
 48 52 0 0 0
SMALL
GASTEIGER

@<TRIPOS>ATOM
      1  PA        31.1230    3.4430   15.0310 P.3   801  NAP801      0.2189
      2  O1A       32.2540    2.7950   14.3540 O.2   801  NAP801     -0.5170
      3  O2A       30.9050    4.8800   14.7950 O.3   801  NAP801     -0.4371
      4  O5B       31.2030    3.1720   16.5950 O.3   801  NAP801     -0.3112
      5  C5B       31.5690    1.8730   17.0370 C.3   801  NAP801      0.1813
      6  C4B       31.2680    1.9010   18.5220 C.3   801  NAP801      0.1820
      7  O4B       31.3790    0.5820   19.0150 O.3   801  NAP801     -0.3136
      8  C3B       32.2460    2.8010   19.2820 C.3   801  NAP801      0.2157
      9  O3B       31.4830    3.5330   20.2360 O.3   801  NAP801     -0.2175
     10  C2B       33.1300    1.7740   19.9560 C.3   801  NAP801      0.2314
     11  O2B       33.7370    2.2340   21.1520 O.3   801  NAP801     -0.2630
     12  C1B       32.1010    0.6560   20.1990 C.3   801  NAP801      0.3158
     13  N9A       32.6850   -0.5460   20.8180 N.pl3 801  NAP801     -0.1439
     14  C8A       33.9670   -1.0640   20.6570 C.3   801  NAP801      0.3377
     15  N7A       34.0840   -2.1250   21.4820 N.2   801  NAP801     -0.2095
     16  C5A       32.9390   -2.2720   22.1950 C.2   801  NAP801      0.2526
     17  C6A       32.5430   -3.1990   23.1710 C.2   801  NAP801      0.4393
     18  N6A       33.3770   -4.1730   23.6040 N.pl3 801  NAP801      0.2180
     19  N1A       31.2650   -3.0840   23.6770 N.2   801  NAP801      0.0021
     20  C2A       30.3750   -2.1020   23.2550 C.3   801  NAP801      0.5254
     21  N3A       30.7650   -1.2010   22.2920 N.2   801  NAP801     -0.0055
     22  C4A       32.0290   -1.2930   21.7700 C.2   801  NAP801      0.3518
     23  O3        29.8190    2.6160   14.5710 O.3   801  NAP801     -0.2703
     24  PN        28.3130    3.1900   14.5380 P.3   801  NAP801      0.2189
     25  O1N       28.0620    3.8770   15.8310 O.3   801  NAP801     -0.4371
     26  O2N       28.0050    3.8410   13.2430 O.2   801  NAP801     -0.5170
     27  O5D       27.5380    1.7790   14.5090 O.3   801  NAP801     -0.3112
     28  C5D       27.5860    0.8710   15.5920 C.3   801  NAP801      0.1813
     29  C4D       27.1320   -0.5170   15.1360 C.3   801  NAP801      0.1799
     30  O4D       25.7700   -0.4850   14.7410 O.3   801  NAP801     -0.3327
     31  C3D       27.9250   -1.0420   13.9270 C.3   801  NAP801      0.2158
     32  O3D       28.1560   -2.4430   14.1630 O.3   801  NAP801     -0.2175
     33  C2D       26.9850   -0.8040   12.7660 C.3   801  NAP801      0.2309
     34  O2D       27.1290   -1.7120   11.7220 O.3   801  NAP801     -0.2158
     35  C1D       25.6120   -0.9730   13.4220 C.3   801  NAP801      0.2263
     36  N1N       24.5150   -0.2190   12.7990 N.pl3 801  NAP801     -0.2787
     37  C2N       23.3320   -0.8780   12.6940 C.3   801  NAP801      0.1244
     38  C3N       22.2400   -0.2240   12.1730 C.2   801  NAP801      0.0544
     39  C7N       20.9360   -0.9510   12.1370 C.2   801  NAP801      0.2818
     40  O7N       19.9770   -0.4920   11.2510 O.2   801  NAP801     -0.2670
     41  N7N       20.6860   -1.9060   13.0370 N.am  801  NAP801     -0.0839
     42  C4N       22.3540    1.1110   11.7270 C.2   801  NAP801      0.0033
     43  C5N       23.5780    1.7700   11.8640 C.2   801  NAP801      0.0157
     44  C6N       24.6420    1.0920   12.4120 C.2   801  NAP801      0.0633
     45  P2B       35.2980    2.6740   21.2490 P.3   801  NAP801      0.5328
     46  O1X       35.3100    3.8170   22.2430 O.3   801  NAP801     -0.1145
     47  O2X       36.0980    1.4980   21.7540 O.3   801  NAP801     -0.1145
     48  O3X       35.7620    3.1090   19.8660 O.2   801  NAP801     -0.2224
@<TRIPOS>BOND
     1    40    39    2
     2    34    33    1
     3    42    43    1
     4    42    38    2
     5    43    44    2
     6    39    38    1
     7    39    41   am
     8    38    37    1
     9    44    36    1
    10    37    36    1
    11    33    35    1
    12    33    31    1
    13    36    35    1
    14    26    24    2
    15    35    30    1
    16    31    32    1
    17    31    29    1
    18     2     1    2
    19    27    24    1
    20    27    28    1
    21    24    23    1
    22    24    25    1
    23    23     1    1
    24    30    29    1
    25     3     1    1
    26     1     4    1
    27    29    28    1
    28     4     5    1
    29     5     6    1
    30     6     7    1
    31     6     8    1
    32     7    12    1
    33     8    10    1
    34     8     9    1
    35    48    45    2
    36    10    12    1
    37    10    11    1
    38    12    13    1
    39    14    13    1
    40    14    15    1
    41    13    22    1
    42    11    45    1
    43    45    47    1
    44    45    46    1
    45    15    16    2
    46    22    16    1
    47    22    21    2
    48    16    17    1
    49    21    20    1
    50    17    18    1
    51    17    19    2
    52    20    19    1
