@<TRIPOS>MOLECULE
1yb6_MNN_A_1.pdb
 10 10 0 0 0
SMALL
GASTEIGER

@<TRIPOS>ATOM
      1  C1        13.7590   52.7240   17.2770 C.ar  300  MNN300      0.0222
      2  C2        13.9480   52.1770   18.5480 C.ar  300  MNN300     -0.0008
      3  C3        13.9100   52.9930   19.6710 C.ar  300  MNN300     -0.0002
      4  C4        13.6840   54.3580   19.5310 C.ar  300  MNN300     -0.0000
      5  C5        13.4940   54.9040   18.2690 C.ar  300  MNN300     -0.0002
      6  C6        13.5320   54.0880   17.1460 C.ar  300  MNN300     -0.0008
      7  C7        13.7980   51.8310   16.0160 C.3   300  MNN300      0.2637
      8  C8        15.1190   51.9010   15.3600 C.1   300  MNN300      0.1105
      9  N9        16.1510   51.9600   14.8300 N.1   300  MNN300     -0.1929
     10  O10       13.5130   50.4700   16.3830 O.3   300  MNN300     -0.2016
@<TRIPOS>BOND
     1     9     8    3
     2     8     7    1
     3     7    10    1
     4     7     1    1
     5     6     1   ar
     6     6     5   ar
     7     1     2   ar
     8     5     4   ar
     9     2     3   ar
    10     4     3   ar
