@<TRIPOS>MOLECULE
1yba_AKG_A_1.pdb
 10 9 0 0 0
SMALL
GASTEIGER

@<TRIPOS>ATOM
      1  C1        -5.1520  -19.3990  -49.5610 C.2   413  AKG413      0.4219
      2  O1        -5.6530  -18.3740  -49.1170 O.co2 413  AKG413     -0.2373
      3  O2        -5.4570  -19.7670  -50.8210 O.co2 413  AKG413     -0.2373
      4  C2        -4.2030  -20.1390  -48.7080 C.2   413  AKG413      0.2526
      5  O5        -4.5590  -21.0760  -48.0060 O.2   413  AKG413     -0.2843
      6  C3        -2.7690  -19.6700  -48.6880 C.3   413  AKG413      0.0881
      7  C4        -2.2750  -19.4570  -50.1250 C.3   413  AKG413      0.1224
      8  C5        -1.1880  -20.4450  -50.3770 C.2   413  AKG413      0.3653
      9  O3        -0.1310  -20.1650  -50.9530 O.co2 413  AKG413     -0.2456
     10  O4        -1.4520  -21.6530  -49.9310 O.co2 413  AKG413     -0.2456
@<TRIPOS>BOND
     1     9     8   ar
     2     3     1   ar
     3     8     7    1
     4     8    10   ar
     5     7     6    1
     6     1     2   ar
     7     1     4    1
     8     4     6    1
     9     4     5    2
