@<TRIPOS>MOLECULE
1yba_NAD_A_1.pdb
 44 48 0 0 0
SMALL
GASTEIGER

@<TRIPOS>ATOM
      1  PA       -17.7670  -19.6180  -42.0820 P.3   416  NAD416      0.2189
      2  O1A      -18.5890  -19.9100  -43.2590 O.2   416  NAD416     -0.5170
      3  O2A      -17.6100  -20.8860  -41.3250 O.3   416  NAD416     -0.4371
      4  O5B      -18.4860  -18.4210  -41.2870 O.3   416  NAD416     -0.3112
      5  C5B      -18.7310  -17.1710  -41.8640 C.3   416  NAD416      0.1813
      6  C4B      -19.8900  -16.6520  -41.0240 C.3   416  NAD416      0.1821
      7  O4B      -20.3180  -15.3850  -41.4510 O.3   416  NAD416     -0.3135
      8  C3B      -21.1190  -17.5530  -41.0890 C.3   416  NAD416      0.2184
      9  O3B      -21.4350  -18.0400  -39.8000 O.3   416  NAD416     -0.2174
     10  C2B      -22.1820  -16.6740  -41.6890 C.3   416  NAD416      0.2570
     11  O2B      -23.4440  -16.8780  -41.1290 O.3   416  NAD416     -0.2130
     12  C1B      -21.7050  -15.3140  -41.2960 C.3   416  NAD416      0.3186
     13  N9A      -22.1470  -14.2490  -42.1570 N.pl3 416  NAD416     -0.1439
     14  C8A      -22.3650  -14.3100  -43.4900 C.3   416  NAD416      0.3377
     15  N7A      -22.7030  -13.0560  -43.9050 N.2   416  NAD416     -0.2095
     16  C5A      -22.6850  -12.1810  -42.8800 C.2   416  NAD416      0.2526
     17  C6A      -22.9560  -10.7990  -42.7920 C.2   416  NAD416      0.4393
     18  N6A      -23.1780  -10.0150  -43.8590 N.pl3 416  NAD416      0.2180
     19  N1A      -22.8550  -10.2150  -41.5490 N.2   416  NAD416      0.0021
     20  C2A      -22.4700  -10.9960  -40.4740 C.3   416  NAD416      0.5254
     21  N3A      -22.2040  -12.3700  -40.5740 N.2   416  NAD416     -0.0055
     22  C4A      -22.3090  -12.9500  -41.7710 C.2   416  NAD416      0.3518
     23  O3       -16.3420  -18.9460  -42.4780 O.3   416  NAD416     -0.2703
     24  PN       -14.9230  -19.1810  -41.6910 P.3   416  NAD416      0.2189
     25  O1N      -14.3660  -20.5460  -41.9000 O.2   416  NAD416     -0.5170
     26  O2N      -15.2440  -18.8420  -40.2740 O.3   416  NAD416     -0.4371
     27  O5D      -14.0310  -18.0270  -42.3800 O.3   416  NAD416     -0.3112
     28  C5D      -14.5390  -16.7130  -42.4710 C.3   416  NAD416      0.1813
     29  C4D      -13.7510  -15.9010  -43.4740 C.3   416  NAD416      0.1799
     30  O4D      -12.3910  -16.0550  -43.0980 O.3   416  NAD416     -0.3327
     31  C3D      -13.8780  -16.4270  -44.9130 C.3   416  NAD416      0.2158
     32  O3D      -14.0100  -15.3600  -45.8210 O.3   416  NAD416     -0.2175
     33  C2D      -12.5580  -17.1790  -45.0830 C.3   416  NAD416      0.2309
     34  O2D      -12.1190  -17.3630  -46.4090 O.3   416  NAD416     -0.2158
     35  C1D      -11.6240  -16.2780  -44.2780 C.3   416  NAD416      0.2263
     36  N1N      -10.2580  -16.8210  -44.0430 N.pl3 416  NAD416     -0.2787
     37  C2N       -9.1620  -15.9820  -44.1530 C.3   416  NAD416      0.1244
     38  C3N       -7.8820  -16.5000  -43.9610 C.2   416  NAD416      0.0544
     39  C7N       -6.6650  -15.6260  -43.9570 C.2   416  NAD416      0.2818
     40  O7N       -5.3910  -16.2080  -44.1990 O.2   416  NAD416     -0.2670
     41  N7N       -6.7940  -14.3240  -43.6900 N.am  416  NAD416     -0.0839
     42  C4N       -7.7130  -17.8390  -43.6600 C.2   416  NAD416      0.0033
     43  C5N       -8.8170  -18.6670  -43.5330 C.2   416  NAD416      0.0157
     44  C6N      -10.1010  -18.1540  -43.7490 C.2   416  NAD416      0.0633
@<TRIPOS>BOND
     1    34    33    1
     2    32    31    1
     3    33    31    1
     4    33    35    1
     5    31    29    1
     6    35    36    1
     7    35    30    1
     8    40    39    2
     9    37    36    1
    10    37    38    1
    11    36    44    1
    12    38    39    1
    13    38    42    2
    14    39    41   am
    15    15    14    1
    16    15    16    2
    17    18    17    1
    18    44    43    2
    19    42    43    1
    20    14    13    1
    21    29    30    1
    22    29    28    1
    23     2     1    2
    24    16    17    1
    25    16    22    1
    26    17    19    2
    27    23     1    1
    28    23    24    1
    29    28    27    1
    30    27    24    1
    31    13    22    1
    32    13    12    1
    33     1     3    1
    34     1     4    1
    35    25    24    2
    36     5     4    1
    37     5     6    1
    38    22    21    2
    39    24    26    1
    40    10    12    1
    41    10    11    1
    42    10     8    1
    43    19    20    1
    44     7    12    1
    45     7     6    1
    46     8     6    1
    47     8     9    1
    48    21    20    1
