@<TRIPOS>MOLECULE
1ybg_TAV_A_1.pdb
 46 50 0 0 0
SMALL
GASTEIGER

@<TRIPOS>ATOM
      1  C1       -74.9720   -8.6990   95.4140 C.ar  550  TAV550      0.1270
      2  C2       -73.9750   -9.4040   96.0590 C.ar  550  TAV550      0.0202
      3  C3       -74.2520  -10.7380   96.5560 C.ar  550  TAV550      0.0013
      4  C4       -75.5710  -11.3110   96.3580 C.ar  550  TAV550      0.0001
      5  C5       -76.5670  -10.5470   95.6800 C.ar  550  TAV550      0.0014
      6  C6       -76.2840   -9.2890   95.2240 C.ar  550  TAV550      0.0202
      7  C9       -73.2530  -11.5180   97.2510 C.ar  550  TAV550      0.0000
      8  C10      -75.8570  -12.6380   96.8530 C.ar  550  TAV550      0.0000
      9  C13      -74.8850  -13.3540   97.5120 C.ar  550  TAV550      0.0000
     10  C14      -73.5560  -12.7840   97.7170 C.ar  550  TAV550      0.0000
     11  S18      -74.6780   -7.0160   94.7740 S.O2  550  TAV550      0.0928
     12  O19      -75.8380   -6.6310   93.9930 O.2   550  TAV550     -0.1483
     13  N20      -73.3510   -7.2580   93.7840 N.pl3 550  TAV550     -0.0964
     14  C21      -74.6970   -8.8090   90.6420 C.ar  550  TAV550      0.0412
     15  C22      -74.6460   -8.0700   91.8030 C.ar  550  TAV550      0.0214
     16  C23      -73.4640   -8.0220   92.5670 C.ar  550  TAV550      0.0955
     17  C24      -72.3200   -8.7500   92.1480 C.ar  550  TAV550      0.0734
     18  C25      -72.3600   -9.5100   90.9590 C.ar  550  TAV550      0.0457
     19  C26      -73.5560   -9.5160   90.2010 C.ar  550  TAV550      0.1720
     20  C29      -71.0850   -8.6830   93.0120 C.2   550  TAV550      0.2508
     21  S31      -72.5530  -10.2770   87.3520 S.3   550  TAV550      0.0506
     22  C32      -68.3790   -4.7880   87.7950 C.ar  550  TAV550      0.0000
     23  C33      -69.7290   -4.8460   87.5510 C.ar  550  TAV550      0.0000
     24  C34      -70.4090   -6.1220   87.5130 C.ar  550  TAV550      0.0001
     25  C35      -69.6430   -7.3390   87.7370 C.ar  550  TAV550      0.0013
     26  C36      -68.2250   -7.2390   87.9940 C.ar  550  TAV550      0.0000
     27  C37      -67.6160   -6.0050   88.0220 C.ar  550  TAV550      0.0000
     28  C41      -71.8250   -6.2200   87.2530 C.ar  550  TAV550      0.0014
     29  C42      -70.3260   -8.6240   87.6910 C.ar  550  TAV550      0.0198
     30  C45      -71.6940   -8.6750   87.4380 C.ar  550  TAV550      0.1203
     31  C46      -72.4550   -7.4510   87.2130 C.ar  550  TAV550      0.0198
     32  N49      -70.0900   -7.6480   92.7540 N.am  550  TAV550     -0.2655
     33  O50      -70.9280   -9.4880   93.9210 O.2   550  TAV550     -0.2698
     34  O51      -73.3350  -10.1140   88.7640 O.3   550  TAV550     -0.3572
     35  O52      -73.4960  -10.2210   86.2640 O.3   550  TAV550     -0.0570
     36  O53      -71.5790  -11.3680   87.5320 O.3   550  TAV550     -0.0570
     37  O54      -74.2720   -6.2000   95.9100 O.2   550  TAV550     -0.1483
     38  C56      -69.6180   -7.3230   91.3810 C.3   550  TAV550      0.1157
     39  C57      -68.9760   -7.7930   93.7550 C.3   550  TAV550      0.1906
     40  C61      -68.4100   -6.3580   94.1280 C.2   550  TAV550      0.3830
     41  O62      -68.9890   -5.3080   93.8450 O.co2 550  TAV550     -0.2438
     42  O63      -67.1740   -6.3040   94.8180 O.co2 550  TAV550     -0.2438
     43  C64      -66.8070   -9.3170   94.4230 C.2   550  TAV550      0.3671
     44  O65      -67.1600   -9.8570   95.4750 O.co2 550  TAV550     -0.2456
     45  O66      -65.4390   -9.1100   94.1640 O.co2 550  TAV550     -0.2456
     46  C67      -67.8660   -8.8840   93.3210 C.3   550  TAV550      0.1454
@<TRIPOS>BOND
     1    35    21    1
     2    31    28   ar
     3    31    30   ar
     4    28    24   ar
     5    21    30    1
     6    21    36    1
     7    21    34    1
     8    30    29   ar
     9    24    23   ar
    10    24    25   ar
    11    23    22   ar
    12    29    25   ar
    13    25    26   ar
    14    22    27   ar
    15    26    27   ar
    16    34    19    1
    17    19    14   ar
    18    19    18   ar
    19    14    15   ar
    20    18    17   ar
    21    38    32    1
    22    15    16   ar
    23    17    16   ar
    24    17    20    1
    25    16    13    1
    26    32    20   am
    27    32    39    1
    28    20    33    2
    29    46    39    1
    30    46    43    1
    31    39    40    1
    32    13    11    1
    33    41    40   ar
    34    12    11    2
    35    40    42   ar
    36    45    43   ar
    37    43    44   ar
    38    11     1    1
    39    11    37    2
    40     6     1   ar
    41     6     5   ar
    42     1     2   ar
    43     5     4   ar
    44     2     3   ar
    45     4     3   ar
    46     4     8   ar
    47     3     7   ar
    48     8     9   ar
    49     7    10   ar
    50     9    10   ar
