@<TRIPOS>MOLECULE
1ybh_CIE_A_1.pdb
 27 28 0 0 0
SMALL
GASTEIGER

@<TRIPOS>ATOM
      1  C1        51.7760   57.2850   45.9800 C.ar  695  CIE695      0.0945
      2  C2        51.0920   56.4210   46.9960 C.ar  695  CIE695      0.1334
      3  C3        50.4690   57.0150   48.2250 C.ar  695  CIE695      0.0205
      4  C4        50.5270   58.4770   48.4520 C.ar  695  CIE695      0.0014
      5  C5        51.2020   59.3870   47.4700 C.ar  695  CIE695      0.0003
      6  C6        51.8240   58.7930   46.2340 C.ar  695  CIE695      0.0078
      7  C7        52.3870   56.7250   44.7800 C.2   695  CIE695      0.3425
      8  O7        51.6410   56.2650   43.8320 O.2   695  CIE695     -0.2448
      9  O8        53.8040   56.7170   44.7370 O.3   695  CIE695     -0.4454
     10  C9        54.5920   56.2660   43.7770 C.3   695  CIE695      0.2089
     11  C10       56.0590   56.4210   44.0840 C.3   695  CIE695      0.0513
     12  S11       50.9680   54.7040   46.8600 S.O2  695  CIE695      0.0969
     13  OBA       50.7740   54.0980   48.2640 O.2   695  CIE695     -0.1482
     14  OBB       49.8240   54.2340   45.8640 O.2   695  CIE695     -0.1482
     15  N12       52.3550   53.9260   46.2610 N.am  695  CIE695     -0.0392
     16  C13       53.5860   54.0940   46.8050 C.2   695  CIE695      0.3753
     17  O13       53.7340   54.8790   47.8000 O.2   695  CIE695     -0.2463
     18  N14       54.5970   53.4110   46.2220 N.am  695  CIE695     -0.0690
     19  N1'       56.4070   54.1870   47.5260 N.2   695  CIE695     -0.2932
     20  C2'       55.9320   53.4060   46.5190 C.1   695  CIE695      0.2316
     21  N3'       56.7620   52.5840   45.7400 N.2   695  CIE695     -0.3189
     22  C4'       58.1740   52.5600   46.0090 C.2   695  CIE695      0.1901
     23 CL4'       59.0730   51.6490   45.1370 Cl    695  CIE695     -0.0510
     24  C5'       58.7830   53.3900   47.0960 C.3   695  CIE695      0.1716
     25  C6'       57.7210   54.2310   47.8490 C.2   695  CIE695      0.2730
     26  O7'       58.0350   55.0730   48.8790 O.2   695  CIE695     -0.4499
     27  C8'       59.2930   55.3250   49.4150 C.3   695  CIE695      0.2550
@<TRIPOS>BOND
     1    10    11    1
     2    10     9    1
     3     8     7    2
     4     9     7    1
     5     7     1    1
     6    23    22    1
     7    21    22    2
     8    21    20    2
     9    14    12    2
    10     1     6   ar
    11     1     2   ar
    12    22    24    1
    13    18    20    1
    14    18    16   am
    15     6     5   ar
    16    15    16   am
    17    15    12    1
    18    20    19    2
    19    16    17    2
    20    12     2    1
    21    12    13    2
    22     2     3   ar
    23    24    25    1
    24     5     4   ar
    25    19    25    2
    26    25    26    1
    27     3     4   ar
    28    26    27    1
