@<TRIPOS>MOLECULE
1ybh_P22_A_1.pdb
 11 10 0 0 0
SMALL
GASTEIGER

@<TRIPOS>ATOM
      1  C6        65.1820   53.1200   42.5380 C.3   702  P22702      0.0351
      2  C7        66.7150   53.3900   42.4980 C.3   702  P22702      0.1492
      3  O7        67.9020   52.7340   41.9980 O.3   702  P22702     -0.3138
      4  PA        69.3890   52.9360   42.6130 P.3   702  P22702      0.2230
      5  O1A       70.2410   51.8710   42.1460 O.2   702  P22702     -0.5169
      6  O2A       69.9650   54.1710   42.1830 O.3   702  P22702     -0.4370
      7  O3A       69.4210   52.8740   44.2000 O.3   702  P22702     -0.2261
      8  PB        68.9720   51.8620   45.3410 P.3   702  P22702      0.5373
      9  O1B       67.5320   52.0200   45.5380 O.3   702  P22702     -0.1143
     10  O2B       69.8230   52.2810   46.4300 O.3   702  P22702     -0.1143
     11  O3B       69.3900   50.5690   44.7690 O.2   702  P22702     -0.2221
@<TRIPOS>BOND
     1     3     2    1
     2     3     4    1
     3     5     4    2
     4     6     4    1
     5     2     1    1
     6     4     7    1
     7     7     8    1
     8    11     8    2
     9     8     9    1
    10     8    10    1
