@<TRIPOS>MOLECULE
1ybk_BEQ_C_1.pdb
 13 12 0 0 0
SMALL
GASTEIGER

@<TRIPOS>ATOM
      1  N1        46.9900   28.9050   25.3620 N.4   701  BEQ701      0.3946
      2  CB        46.8420   29.5330   23.9940 C.3   701  BEQ701     -0.0951
      3  CG        46.2250   29.6930   26.3690 C.3   701  BEQ701     -0.0951
      4  CD        48.4570   28.7910   25.7930 C.3   701  BEQ701      0.0435
      5  CE        49.6380   29.2400   24.9690 C.2   701  BEQ701      0.3449
      6  OE1       50.2650   30.3290   25.4600 O.co2 701  BEQ701     -0.2480
      7  OE2       49.9910   28.6700   23.9600 O.co2 701  BEQ701     -0.2480
      8  C1        46.5990   27.4510   25.4460 C.3   701  BEQ701     -0.0706
      9  C2        46.0790   26.6220   24.2690 C.3   701  BEQ701      0.0012
     10  C3        44.5750   26.8480   24.2050 C.3   701  BEQ701      0.1135
     11  N2        44.0060   26.0760   23.1260 N.am  701  BEQ701     -0.1978
     12  C4        43.6330   24.8150   23.2360 C.2   701  BEQ701      0.3201
     13  O         44.4240   23.8870   23.1010 O.2   701  BEQ701     -0.2633
@<TRIPOS>BOND
     1    13    12    2
     2    11    12   am
     3    11    10    1
     4     7     5   ar
     5     2     1    1
     6    10     9    1
     7     9     8    1
     8     5     6   ar
     9     5     4    1
    10     1     8    1
    11     1     4    1
    12     1     3    1
