@<TRIPOS>MOLECULE
1ybm_NAP_A_1.pdb
 48 52 0 0 0
SMALL
GASTEIGER

@<TRIPOS>ATOM
      1  PA        61.0400   15.3620    5.0180 P.3   400  NAP400      0.2189
      2  O1A       59.9640   14.9170    4.1110 O.2   400  NAP400     -0.5170
      3  O2A       61.9900   16.1300    4.2590 O.3   400  NAP400     -0.4371
      4  O5B       61.8060   14.1080    5.6810 O.3   400  NAP400     -0.3112
      5  C5B       61.1770   12.9860    6.2470 C.3   400  NAP400      0.1813
      6  C4B       62.3480   12.0760    6.6070 C.3   400  NAP400      0.1820
      7  O4B       61.8720   10.8260    7.0040 O.3   400  NAP400     -0.3136
      8  C3B       63.2140   11.8340    5.3690 C.3   400  NAP400      0.2157
      9  O3B       64.5420   12.0700    5.7050 O.3   400  NAP400     -0.2175
     10  C2B       63.0390   10.3540    5.0640 C.3   400  NAP400      0.2314
     11  O2B       64.2080    9.6990    4.6490 O.3   400  NAP400     -0.2630
     12  C1B       62.6970    9.8360    6.4370 C.3   400  NAP400      0.3158
     13  N9A       62.0610    8.5080    6.3270 N.pl3 400  NAP400     -0.1439
     14  C8A       60.9140    8.1620    5.6350 C.3   400  NAP400      0.3377
     15  N7A       60.7250    6.8320    5.7990 N.2   400  NAP400     -0.2095
     16  C5A       61.7270    6.3440    6.5590 C.2   400  NAP400      0.2526
     17  C6A       62.0020    5.0500    6.9870 C.2   400  NAP400      0.4393
     18  N6A       61.5190    4.0370    6.2490 N.pl3 400  NAP400      0.2180
     19  N1A       63.1380    4.8620    7.7580 N.2   400  NAP400      0.0021
     20  C2A       63.9870    5.9120    8.0990 C.3   400  NAP400      0.5254
     21  N3A       63.7290    7.1970    7.6410 N.2   400  NAP400     -0.0055
     22  C4A       62.5930    7.3850    6.8940 C.2   400  NAP400      0.3518
     23  O3        60.4920   16.2420    6.2880 O.3   400  NAP400     -0.2703
     24  PN        60.0870   17.8230    6.2370 P.3   400  NAP400      0.2189
     25  O1N       59.4860   18.1020    4.9060 O.2   400  NAP400     -0.5170
     26  O2N       61.2100   18.6910    6.6610 O.3   400  NAP400     -0.4371
     27  O5D       58.9020   17.8380    7.3010 O.3   400  NAP400     -0.3112
     28  C5D       59.1070   17.5030    8.6610 C.3   400  NAP400      0.1813
     29  C4D       57.7790   17.0510    9.2900 C.3   400  NAP400      0.1799
     30  O4D       56.8470   18.1130    9.1660 O.3   400  NAP400     -0.3327
     31  C3D       57.1250   15.8020    8.6960 C.3   400  NAP400      0.2158
     32  O3D       56.5880   14.9770    9.7270 O.3   400  NAP400     -0.2175
     33  C2D       55.9470   16.3670    7.9400 C.3   400  NAP400      0.2309
     34  O2D       54.8480   15.4930    7.9910 O.3   400  NAP400     -0.2158
     35  C1D       55.6240   17.6220    8.7340 C.3   400  NAP400      0.2263
     36  N1N       54.9150   18.6450    7.9600 N.pl3 400  NAP400     -0.2787
     37  C2N       55.1140   18.8250    6.6090 C.3   400  NAP400      0.1244
     38  C3N       54.3760   19.8240    5.9370 C.2   400  NAP400      0.0544
     39  C7N       54.8750   20.3660    4.6210 C.2   400  NAP400      0.2818
     40  O7N       54.6150   21.7390    4.2830 O.2   400  NAP400     -0.2670
     41  N7N       55.5590   19.5180    3.8280 N.am  400  NAP400     -0.0839
     42  C4N       53.4500   20.5920    6.6480 C.2   400  NAP400      0.0033
     43  C5N       53.2640   20.3930    7.9980 C.2   400  NAP400      0.0157
     44  C6N       54.0230   19.4250    8.6420 C.2   400  NAP400      0.0633
     45  P2B       64.9550    9.9590    3.2310 P.3   400  NAP400      0.5328
     46  O1X       63.8610   10.2020    2.2020 O.2   400  NAP400     -0.2224
     47  O2X       65.9080   11.1270    3.1940 O.3   400  NAP400     -0.1145
     48  O3X       65.7850    8.7020    3.0500 O.3   400  NAP400     -0.1145
@<TRIPOS>BOND
     1    46    45    2
     2    48    45    1
     3    47    45    1
     4    45    11    1
     5    41    39   am
     6     2     1    2
     7     3     1    1
     8    40    39    2
     9    39    38    1
    10    11    10    1
    11    25    24    2
    12     1     4    1
    13     1    23    1
    14    10     8    1
    15    10    12    1
    16     8     9    1
    17     8     6    1
    18    14    15    1
    19    14    13    1
    20     4     5    1
    21    15    16    2
    22    38    37    1
    23    38    42    2
    24    24    23    1
    25    24    26    1
    26    24    27    1
    27     5     6    1
    28    18    17    1
    29    13    12    1
    30    13    22    1
    31    12     7    1
    32    16    22    1
    33    16    17    1
    34     6     7    1
    35    37    36    1
    36    42    43    1
    37    22    21    2
    38    17    19    2
    39    27    28    1
    40    21    20    1
    41    19    20    1
    42    33    34    1
    43    33    31    1
    44    33    35    1
    45    36    44    1
    46    36    35    1
    47    43    44    2
    48    28    29    1
    49    31    29    1
    50    31    32    1
    51    35    30    1
    52    30    29    1
