@<TRIPOS>MOLECULE
1ybo_III_D_1.pdb
 38 39 0 0 0
SMALL
GASTEIGER

@<TRIPOS>ATOM
      1  N         29.0760   58.0060   26.5900 N.3     3  GLU3       -0.1231
      2  CA        27.7560   58.6410   26.8940 C.3     3  GLU3        0.1699
      3  C         27.7680   59.6760   28.0240 C.2     3  GLU3        0.2592
      4  O         27.3830   60.8160   27.7590 O.2     3  GLU3       -0.2718
      5  CB        26.7010   57.5720   27.1770 C.3     3  GLU3        0.0402
      6  CG        25.2970   58.1340   27.2960 C.3     3  GLU3        0.1161
      7  CD        24.2640   57.2450   26.6470 C.2     3  GLU3        0.3649
      8  OE1       24.3590   56.0250   26.8920 O.co2   3  GLU3       -0.2457
      9  OE2       23.4020   57.7830   25.9080 O.co2   3  GLU3       -0.2457
     10  N         28.1740   59.3100   29.2380 N.am    4  PHE4       -0.1962
     11  CA        28.3330   60.2580   30.3490 C.3     4  PHE4        0.1771
     12  C         29.7980   60.3720   30.7330 C.2     4  PHE4        0.2620
     13  O         30.4530   59.3560   30.9320 O.2     4  PHE4       -0.2715
     14  CB        27.5450   59.8550   31.5900 C.3     4  PHE4        0.0574
     15  CG        26.0570   59.9980   31.4470 C.ar    4  PHE4       -0.0200
     16  CD1       25.3270   59.0220   30.7780 C.ar    4  PHE4       -0.0042
     17  CD2       25.3880   61.0950   31.9780 C.ar    4  PHE4       -0.0042
     18  CE1       23.9480   59.1430   30.6280 C.ar    4  PHE4       -0.0003
     19  CE2       24.0020   61.2030   31.8310 C.ar    4  PHE4       -0.0003
     20  CZ        23.2900   60.2300   31.1570 C.ar    4  PHE4       -0.0000
     21  N         30.2930   61.5990   30.8440 N.am    5  TYR5       -0.1960
     22  CA        31.6930   61.9070   31.1580 C.3     5  TYR5        0.1771
     23  C         31.8550   62.3960   32.6050 C.2     5  TYR5        0.2620
     24  O         31.2520   63.4030   33.0130 O.2     5  TYR5       -0.2715
     25  CB        32.2330   62.8740   30.0920 C.3     5  TYR5        0.0574
     26  CG        33.5930   63.5040   30.3550 C.ar    5  TYR5       -0.0198
     27  CD1       34.6390   62.8170   30.9830 C.ar    5  TYR5       -0.0009
     28  CD2       33.8310   64.8180   29.9410 C.ar    5  TYR5       -0.0009
     29  CE1       35.8810   63.4370   31.2050 C.ar    5  TYR5        0.0417
     30  CE2       35.0460   65.4380   30.1550 C.ar    5  TYR5        0.0417
     31  CZ        36.0680   64.7510   30.7830 C.ar    5  TYR5        0.1957
     32  OH        37.2320   65.4640   30.9460 O.3     5  TYR5       -0.2866
     33  N         32.6600   61.6550   33.3680 N.am    6  ALA6       -0.1941
     34  CA        32.9350   61.9550   34.7800 C.3     6  ALA6        0.1979
     35  C         34.1700   62.8050   35.0660 C.2     6  ALA6        0.3842
     36  O         34.1830   63.7190   35.8960 O.co2   6  ALA6       -0.2437
     37  CB        33.0430   60.6830   35.5970 C.3     6  ALA6        0.0356
     38  OXT       35.1910   62.5670   34.4430 O.co2   6  ALA6       -0.2437
@<TRIPOS>BOND
     1     9     7   ar
     2     1     2    1
     3     7     8   ar
     4     7     6    1
     5     2     5    1
     6     2     3    1
     7     5     6    1
     8     4     3    2
     9     3    10   am
    10    10    11    1
    11    28    30   ar
    12    28    26   ar
    13    25    26    1
    14    25    22    1
    15    30    31   ar
    16    11    12    1
    17    11    14    1
    18    26    27   ar
    19    18    16   ar
    20    18    20   ar
    21    12    21   am
    22    12    13    2
    23    16    15   ar
    24    31    32    1
    25    31    29   ar
    26    21    22    1
    27    27    29   ar
    28    20    19   ar
    29    22    23    1
    30    15    14    1
    31    15    17   ar
    32    19    17   ar
    33    23    24    2
    34    23    33   am
    35    33    34    1
    36    38    35   ar
    37    34    35    1
    38    34    37    1
    39    35    36   ar
