@<TRIPOS>MOLECULE
1ybq_BDH_A_1.pdb
 19 19 0 0 0
SMALL
GASTEIGER

@<TRIPOS>ATOM
      1  O1        53.5260   26.0080   23.5520 O.co2 393  BDH393     -0.2440
      2  O2        52.5790   27.7490   24.2610 O.co2 393  BDH393     -0.2440
      3  O3        51.2890   26.3990   19.4420 O.2   393  BDH393     -0.2733
      4  O4        53.8980   27.8640   18.3600 O.co2 393  BDH393     -0.2437
      5  O5        53.0230   27.4790   16.5010 O.co2 393  BDH393     -0.2437
      6  N1        53.7140   26.8270   21.1150 N.3   393  BDH393     -0.1203
      7  N2        51.7080   28.6610   19.3820 N.am  393  BDH393     -0.1951
      8  C1        52.9820   27.5950   21.9230 C.3   393  BDH393      0.2034
      9  C2        51.5140   27.4830   21.5300 C.3   393  BDH393      0.1174
     10  C3        51.4840   27.4790   20.0130 C.2   393  BDH393      0.2439
     11  C4        53.0750   27.1040   23.3590 C.2   393  BDH393      0.3824
     12  C5        51.7540   28.8080   18.0480 C.3   393  BDH393      0.2033
     13  C7        52.9770   28.0080   17.5860 C.2   393  BDH393      0.3846
     14  CB        51.8020   30.3030   17.5420 C.3   393  BDH393      0.0767
     15  CG        51.9140   30.4170   16.0280 C.2   393  BDH393      0.0653
     16  ND1       52.8700   31.2220   15.4110 N.2   393  BDH393     -0.2309
     17  CD2       51.2160   29.7980   15.0240 C.3   393  BDH393      0.1683
     18  CE1       52.7380   31.0790   14.0900 C.2   393  BDH393      0.1939
     19  NE2       51.7500   30.2320   13.8230 N.2   393  BDH393     -0.2440
@<TRIPOS>BOND
     1    19    18    2
     2    19    17    1
     3    18    16    1
     4    17    15    1
     5    16    15    2
     6    15    14    1
     7     5    13   ar
     8    14    12    1
     9    13    12    1
    10    13     4   ar
    11    12     7    1
    12     7    10   am
    13     3    10    2
    14    10     9    1
    15     6     8    1
    16     9     8    1
    17     8    11    1
    18    11     1   ar
    19    11     2   ar
