@<TRIPOS>MOLECULE
1ybu_APC_A_1.pdb
 31 33 0 0 0
SMALL
GASTEIGER

@<TRIPOS>ATOM
      1  PG        24.0440   34.5270   25.3860 P.3   601  APC601      0.5389
      2  O1G       25.2500   35.1670   24.5300 O.2   601  APC601     -0.2220
      3  O2G       23.9860   35.0860   26.7560 O.3   601  APC601     -0.1143
      4  O3G       24.3020   32.9370   25.3880 O.3   601  APC601     -0.1143
      5  PB        22.6280   34.3590   22.9850 P.3   601  APC601      0.3895
      6  O1B       23.7250   33.3200   22.4340 O.3   601  APC601     -0.1388
      7  O2B       22.2810   35.6560   22.0960 O.2   601  APC601     -0.2544
      8  O3B       22.6890   34.7650   24.5450 O.3   601  APC601     -0.2026
      9  PA        19.6750   34.5060   23.0190 P.3   601  APC601      0.3820
     10  O1A       19.9290   36.0090   23.5210 O.2   601  APC601     -0.2548
     11  O2A       18.3990   33.7000   23.5960 O.3   601  APC601     -0.1392
     12  C3A       21.0970   33.3980   22.8870 C.3   601  APC601      0.2357
     13  O5'       19.2740   34.7280   21.4800 O.3   601  APC601     -0.2896
     14  C5'       17.9150   34.4360   21.1230 C.3   601  APC601      0.1836
     15  C4'       17.6460   32.9090   21.0180 C.3   601  APC601      0.1822
     16  O4'       16.6280   32.2930   21.8800 O.3   601  APC601     -0.3135
     17  C3'       17.0210   33.1200   19.6420 C.3   601  APC601      0.2184
     18  O3'       17.6090   32.0730   18.8830 O.3   601  APC601     -0.2174
     19  C2'       15.5730   32.7470   19.8980 C.3   601  APC601      0.2570
     20  O2'       14.8290   32.6540   18.6860 O.3   601  APC601     -0.2130
     21  C1'       15.6030   31.7400   21.0320 C.3   601  APC601      0.3186
     22  N9        14.2820   31.4530   21.6550 N.pl3 601  APC601     -0.1439
     23  C8        14.1780   30.9590   22.8910 C.3   601  APC601      0.3377
     24  N7        12.9050   30.6590   23.1240 N.2   601  APC601     -0.2095
     25  C5        12.1720   30.9690   22.0380 C.2   601  APC601      0.2526
     26  C6        10.8420   30.8750   21.7140 C.2   601  APC601      0.4393
     27  N6         9.9590   30.3470   22.5640 N.pl3 601  APC601      0.2180
     28  N1        10.4590   31.3090   20.4870 N.2   601  APC601      0.0021
     29  C2        11.2990   31.8000   19.6030 C.3   601  APC601      0.5254
     30  N3        12.5880   31.8880   19.9020 N.2   601  APC601     -0.0055
     31  C4        13.0700   31.4900   21.0990 C.2   601  APC601      0.3518
@<TRIPOS>BOND
     1    20    19    1
     2    18    17    1
     3    29    30    1
     4    29    28    1
     5    17    19    1
     6    17    15    1
     7    19    21    1
     8    30    31    2
     9    28    26    2
    10    15    14    1
    11    15    16    1
    12    21    22    1
    13    21    16    1
    14    31    22    1
    15    31    25    1
    16    14    13    1
    17    13     9    1
    18    22    23    1
    19    26    25    1
    20    26    27    1
    21    25    24    2
    22     7     5    2
    23     6     5    1
    24    12     5    1
    25    12     9    1
    26    23    24    1
    27     5     8    1
    28     9    10    2
    29     9    11    1
    30     2     1    2
    31     8     1    1
    32     1     4    1
    33     1     3    1
