@<TRIPOS>MOLECULE
1ybv_BEA_A_1.pdb
 13 15 0 0 0
SMALL
GASTEIGER

@<TRIPOS>ATOM
      1  C1        83.4350   15.9600   14.4960 C.ar  285  BEA285     -0.0051
      2  C2        84.8600   16.4020   14.8470 C.3   285  BEA285      0.0326
      3  C3        82.7110   16.6240   13.4800 C.ar  285  BEA285     -0.0028
      4  C4        81.3990   16.2420   13.1290 C.ar  285  BEA285      0.0003
      5  C5        80.7660   15.1790   13.7850 C.ar  285  BEA285      0.0080
      6  C6        81.4870   14.5160   14.8020 C.ar  285  BEA285      0.0482
      7  C7        82.4110   13.1750   16.5650 C.ar  285  BEA285      0.2013
      8  C8        82.7820   14.8950   15.1460 C.ar  285  BEA285      0.0694
      9  C9        84.2950   13.9250   16.8390 C.ar  285  BEA285      0.2072
     10  N1        83.2120   14.0770   16.1410 N.ar  285  BEA285     -0.2661
     11  N2        84.1900   12.9940   17.6960 N.ar  285  BEA285     -0.1247
     12  N3        82.8820   12.4610   17.4900 N.ar  285  BEA285     -0.1213
     13  S         80.8350   13.1570   15.7340 S.2   285  BEA285     -0.0469
@<TRIPOS>BOND
     1     4     3   ar
     2     4     5   ar
     3     3     1   ar
     4     5     6   ar
     5     1     2    1
     6     1     8   ar
     7     6     8   ar
     8     6    13   ar
     9     8    10   ar
    10    13     7   ar
    11    10     7   ar
    12    10     9   ar
    13     7    12   ar
    14     9    11   ar
    15    12    11   ar
