@<TRIPOS>MOLECULE
1ybv_NDP_A_1.pdb
 48 52 0 0 0
SMALL
GASTEIGER

@<TRIPOS>ATOM
      1  PA        90.5800   19.7630   19.9530 P.3   284  NDP284      0.2189
      2  O1A       91.1010   19.1070   18.7210 O.2   284  NDP284     -0.5170
      3  O2A       90.1040   21.1690   19.8770 O.3   284  NDP284     -0.4371
      4  O5B       91.7170   19.5560   21.0940 O.3   284  NDP284     -0.3112
      5  C5B       91.3050   19.5390   22.4770 C.3   284  NDP284      0.1813
      6  C4B       92.3710   19.2270   23.4590 C.3   284  NDP284      0.1820
      7  O4B       92.8110   17.8950   23.7070 O.3   284  NDP284     -0.3136
      8  C3B       93.5440   20.1380   23.6640 C.3   284  NDP284      0.2157
      9  O3B       93.7360   20.8440   24.7230 O.3   284  NDP284     -0.2175
     10  C2B       94.7260   19.2110   23.5050 C.3   284  NDP284      0.2314
     11  O2B       95.8490   19.7010   24.2920 O.3   284  NDP284     -0.2630
     12  C1B       94.1860   17.9210   24.0800 C.3   284  NDP284      0.3158
     13  N9A       95.0710   16.8860   24.1180 N.pl3 284  NDP284     -0.1439
     14  C8A       95.4960   16.1520   23.0900 C.3   284  NDP284      0.3377
     15  N7A       96.5060   15.3710   23.4870 N.2   284  NDP284     -0.2095
     16  C5A       96.6790   15.6650   24.7650 C.2   284  NDP284      0.2526
     17  C6A       97.5690   15.0470   25.6310 C.2   284  NDP284      0.4393
     18  N6A       98.4950   14.1890   25.2150 N.pl3 284  NDP284      0.2180
     19  N1A       97.5030   15.4460   26.9200 N.2   284  NDP284      0.0021
     20  C2A       96.6530   16.3900   27.3340 C.3   284  NDP284      0.5254
     21  N3A       95.8090   16.9840   26.4830 N.2   284  NDP284     -0.0055
     22  C4A       95.7960   16.6160   25.1890 C.2   284  NDP284      0.3518
     23  O3        89.3900   18.8500   20.5390 O.3   284  NDP284     -0.2703
     24  PN        87.8610   19.0600   21.0130 P.3   284  NDP284      0.2189
     25  O1N       87.9370   20.1620   22.0070 O.3   284  NDP284     -0.4371
     26  O2N       87.0120   19.1520   19.8020 O.2   284  NDP284     -0.5170
     27  O5D       87.5420   17.6400   21.7000 O.3   284  NDP284     -0.3112
     28  C5D       87.7590   17.4690   23.1000 C.3   284  NDP284      0.1813
     29  C4D       87.2520   16.1090   23.5230 C.3   284  NDP284      0.1799
     30  O4D       85.8680   15.9080   23.1820 O.3   284  NDP284     -0.3327
     31  C3D       88.0190   15.0060   22.8300 C.3   284  NDP284      0.2158
     32  O3D       88.2130   13.9170   23.7410 O.3   284  NDP284     -0.2175
     33  C2D       87.1340   14.6290   21.6580 C.3   284  NDP284      0.2309
     34  O2D       87.3910   13.3110   21.1940 O.3   284  NDP284     -0.2158
     35  C1D       85.7950   14.7630   22.3190 C.3   284  NDP284      0.2263
     36  N1N       84.7740   14.9900   21.3020 N.pl3 284  NDP284     -0.2787
     37  C2N       84.8190   16.0880   20.4200 C.3   284  NDP284      0.1244
     38  C3N       83.7810   16.2960   19.5120 C.2   284  NDP284      0.0544
     39  C7N       83.8120   17.3640   18.4020 C.2   284  NDP284      0.2818
     40  O7N       83.0190   17.3000   17.4680 O.2   284  NDP284     -0.2670
     41  N7N       84.7570   18.3000   18.4570 N.am  284  NDP284     -0.0839
     42  C4N       82.7090   15.4120   19.5270 C.2   284  NDP284      0.0033
     43  C5N       82.6680   14.3250   20.4010 C.2   284  NDP284      0.0157
     44  C6N       83.7070   14.1010   21.2970 C.2   284  NDP284      0.0633
     45  P2B       97.0000   20.6170   23.6360 P.3   284  NDP284      0.5328
     46  O1X       97.4140   21.4180   24.8000 O.3   284  NDP284     -0.1145
     47  O2X       96.2840   21.3770   22.5820 O.2   284  NDP284     -0.2224
     48  O3X       97.9750   19.5850   23.2010 O.3   284  NDP284     -0.1145
@<TRIPOS>BOND
     1    40    39    2
     2    39    41   am
     3    39    38    1
     4     2     1    2
     5    38    42    2
     6    38    37    1
     7    42    43    1
     8    26    24    2
     9     3     1    1
    10     1    23    1
    11     1     4    1
    12    43    44    2
    13    37    36    1
    14    23    24    1
    15    24    27    1
    16    24    25    1
    17     4     5    1
    18    34    33    1
    19    44    36    1
    20    36    35    1
    21    33    35    1
    22    33    31    1
    23    27    28    1
    24    35    30    1
    25     5     6    1
    26    47    45    2
    27    31    29    1
    28    31    32    1
    29    14    15    1
    30    14    13    1
    31    28    29    1
    32    30    29    1
    33    48    45    1
    34     6     8    1
    35     6     7    1
    36    15    16    2
    37    10     8    1
    38    10    12    1
    39    10    11    1
    40    45    11    1
    41    45    46    1
    42     8     9    1
    43     7    12    1
    44    12    13    1
    45    13    22    1
    46    16    22    1
    47    16    17    1
    48    22    21    2
    49    18    17    1
    50    17    19    2
    51    21    20    1
    52    19    20    1
