@<TRIPOS>MOLECULE
1yc1_4BC_A_1.pdb
 27 30 0 0 0
SMALL
GASTEIGER

@<TRIPOS>ATOM
      1  C15        2.2240   35.5070   -4.3740 C.ar  401  4BC401      0.0367
      2  C12        2.9190   36.2840   -3.4530 C.ar  401  4BC401      0.1761
      3  O17        4.2550   36.5260   -3.3050 O.3   401  4BC401     -0.4346
      4  C19        4.3940   37.3790   -2.2370 C.3   401  4BC401      0.4294
      5  O18        3.1580   37.6640   -1.7130 O.3   401  4BC401     -0.4346
      6  C16        2.2370   36.9820   -2.4570 C.ar  401  4BC401      0.1764
      7  C22        0.8510   36.9120   -2.3570 C.ar  401  4BC401      0.0399
      8  C20        0.1620   36.1260   -3.2760 C.ar  401  4BC401     -0.0002
      9  C8         0.8380   35.4280   -4.2760 C.ar  401  4BC401     -0.0077
     10  C4         0.1490   34.5980   -5.1600 C.3   401  4BC401      0.1129
     11  C1         0.0490   34.6960   -6.5420 C.2   401  4BC401      0.1691
     12  C7         0.6670   35.7460   -7.4670 C.2   401  4BC401      0.4035
     13  O21        0.7830   35.4750   -8.6620 O.co2 401  4BC401     -0.2391
     14  O23        1.0430   36.8370   -7.0350 O.co2 401  4BC401     -0.2391
     15  N5        -0.7540   33.7190   -6.9620 N.2   401  4BC401     -0.1453
     16  C2        -0.6350   33.4940   -4.8430 C.2   401  4BC401      0.0931
     17  N3        -1.1390   33.0470   -5.9970 N.2   401  4BC401     -0.1517
     18  C6        -0.7130   32.9160   -3.5760 C.ar  401  4BC401      0.0548
     19  C10        0.4280   32.7190   -2.7970 C.ar  401  4BC401      0.0033
     20  C14        0.3370   32.2030   -1.5060 C.ar  401  4BC401      0.0170
     21  C26        1.6230   31.8700   -0.7440 C.3   401  4BC401      0.0296
     22  C27        1.9390   30.3770   -0.8750 C.3   401  4BC401      0.0051
     23  C13       -0.9120   31.9090   -0.9690 C.ar  401  4BC401      0.1949
     24  O25       -1.0080   31.6250    0.3610 O.3   401  4BC401     -0.2868
     25  C11       -2.0550   32.0720   -1.7480 C.ar  401  4BC401      0.0837
     26  C9        -1.9510   32.5650   -3.0490 C.ar  401  4BC401      0.2000
     27  O24       -3.0640   32.6950   -3.8160 O.3   401  4BC401     -0.2864
@<TRIPOS>BOND
     1    13    12   ar
     2    12    14   ar
     3    12    11    1
     4    15    11    2
     5    15    17    1
     6    11    10    1
     7    17    16    2
     8    10    16    1
     9    10     9    1
    10    16    18    1
    11     1     9   ar
    12     1     2   ar
    13     9     8   ar
    14    27    26    1
    15    18    26   ar
    16    18    19   ar
    17     2     3    1
    18     2     6   ar
    19     3     4    1
    20     8     7   ar
    21    26    25   ar
    22    19    20   ar
    23     6     7   ar
    24     6     5    1
    25     4     5    1
    26    25    23   ar
    27    20    23   ar
    28    20    21    1
    29    23    24    1
    30    22    21    1
