@<TRIPOS>MOLECULE
1yc2_APR_E_1.pdb
 36 39 0 0 0
SMALL
GASTEIGER

@<TRIPOS>ATOM
      1  N1       -40.2710    8.3740    1.1660 N.2   504  APR504      0.0021
      2  C2       -39.4760    7.2980    1.0470 C.3   504  APR504      0.5254
      3  N3       -39.0540    6.8210   -0.1980 N.2   504  APR504     -0.0055
      4  C4       -39.5140    7.5360   -1.3110 C.2   504  APR504      0.3518
      5  C5       -40.3540    8.6750   -1.2290 C.2   504  APR504      0.2526
      6  C6       -40.7700    9.1360    0.1160 C.2   504  APR504      0.4393
      7  N6       -41.5510   10.1860    0.3080 N.pl3 504  APR504      0.2180
      8  N7       -40.6030    9.1130   -2.4760 N.2   504  APR504     -0.2095
      9  C8       -39.9600    8.3030   -3.3100 C.3   504  APR504      0.3377
     10  N9       -39.2530    7.2860   -2.6640 N.pl3 504  APR504     -0.1439
     11  C1'      -38.4170    6.1810   -3.1280 C.3   504  APR504      0.3186
     12  C2'      -38.6970    5.7860   -4.5910 C.3   504  APR504      0.2570
     13  O2'      -39.8390    5.0200   -4.7940 O.3   504  APR504     -0.2130
     14  C3'      -37.3550    5.1910   -4.9940 C.3   504  APR504      0.2184
     15  O3'      -37.3080    3.7350   -4.9300 O.3   504  APR504     -0.2174
     16  O4'      -37.0900    6.6460   -3.0890 O.3   504  APR504     -0.3135
     17  C4'      -36.3100    5.7760   -3.9930 C.3   504  APR504      0.1821
     18  C5'      -35.2590    6.6570   -4.5980 C.3   504  APR504      0.1813
     19  O5'      -34.4810    5.8210   -5.5080 O.3   504  APR504     -0.3112
     20  PA       -33.5900    6.4520   -6.6540 P.3   504  APR504      0.2189
     21  O1A      -33.0330    5.3110   -7.4150 O.2   504  APR504     -0.5170
     22  O2A      -34.3390    7.5180   -7.3740 O.3   504  APR504     -0.4371
     23  O3A      -32.4280    7.1940   -5.8600 O.3   504  APR504     -0.2703
     24  PB       -31.0520    6.7010   -5.1230 P.3   504  APR504      0.2189
     25  O1B      -31.2190    5.3640   -4.5360 O.2   504  APR504     -0.5170
     26  O2B      -30.6400    7.8240   -4.2280 O.3   504  APR504     -0.4371
     27  O5D      -30.0890    6.5520   -6.4020 O.3   504  APR504     -0.3112
     28  C5D      -29.8120    7.7460   -7.1560 C.3   504  APR504      0.1813
     29  O4D      -28.2270    7.5200   -8.9210 O.3   504  APR504     -0.3237
     30  O1D      -27.4820    8.3850  -10.9120 O.3   504  APR504     -0.1869
     31  C1D      -28.1000    8.7240   -9.6950 C.3   504  APR504      0.3023
     32  O2D      -25.8490    9.3410   -8.7770 O.3   504  APR504     -0.2148
     33  C2D      -27.2260    9.6250   -8.7470 C.3   504  APR504      0.2433
     34  O3D      -26.9280    9.4780   -6.2880 O.3   504  APR504     -0.2175
     35  C3D      -27.8690    9.3430   -7.3690 C.3   504  APR504      0.2168
     36  C4D      -28.3950    7.8750   -7.4880 C.3   504  APR504      0.1807
@<TRIPOS>BOND
     1    30    31    1
     2    31    29    1
     3    31    33    1
     4    29    36    1
     5    32    33    1
     6    33    35    1
     7    36    35    1
     8    36    28    1
     9    21    20    2
    10    22    20    1
    11    35    34    1
    12    28    27    1
    13    20    23    1
    14    20    19    1
    15    27    24    1
    16    23    24    1
    17    19    18    1
    18    24    25    2
    19    24    26    1
    20    14    15    1
    21    14    12    1
    22    14    17    1
    23    13    12    1
    24    18    17    1
    25    12    11    1
    26    17    16    1
    27     9    10    1
    28     9     8    1
    29    11    16    1
    30    11    10    1
    31    10     4    1
    32     8     5    2
    33     4     5    1
    34     4     3    2
    35     5     6    1
    36     3     2    1
    37     6     7    1
    38     6     1    2
    39     2     1    1
