@<TRIPOS>MOLECULE
1yc2_NAD_A_1.pdb
 44 48 0 0 0
SMALL
GASTEIGER

@<TRIPOS>ATOM
      1  PA        12.5360   47.9480    1.6440 P.3   503  NAD503      0.2189
      2  O1A       12.1800   48.5600    0.3440 O.2   503  NAD503     -0.5170
      3  O2A       13.5950   48.5910    2.4790 O.3   503  NAD503     -0.4371
      4  O5B       11.1670   47.8000    2.4490 O.3   503  NAD503     -0.3112
      5  C5B       11.0990   47.4040    3.8610 C.3   503  NAD503      0.1813
      6  C4B        9.7310   47.8170    4.3950 C.3   503  NAD503      0.1821
      7  O4B        9.7080   47.4040    5.8140 O.3   503  NAD503     -0.3135
      8  C3B        9.4290   49.3600    4.4250 C.3   503  NAD503      0.2184
      9  O3B        8.2410   49.6340    3.6220 O.3   503  NAD503     -0.2174
     10  C2B        9.2590   49.7460    5.8880 C.3   503  NAD503      0.2570
     11  O2B        8.3500   50.7490    6.1920 O.3   503  NAD503     -0.2130
     12  C1B        8.9710   48.3760    6.5410 C.3   503  NAD503      0.3186
     13  N9A        9.4640   48.2790    7.9150 N.pl3 503  NAD503     -0.1439
     14  C8A       10.4980   48.8970    8.6080 C.3   503  NAD503      0.3377
     15  N7A       10.6030   48.4980    9.8640 N.2   503  NAD503     -0.2095
     16  C5A        9.6430   47.5850   10.0820 C.2   503  NAD503      0.2526
     17  C6A        9.2480   46.7740   11.2640 C.2   503  NAD503      0.4393
     18  N6A        9.8710   46.8460   12.4240 N.pl3 503  NAD503      0.2180
     19  N1A        8.1680   45.9290   11.0560 N.2   503  NAD503      0.0021
     20  C2A        7.4860   45.8030    9.9010 C.3   503  NAD503      0.5254
     21  N3A        7.8190   46.5430    8.7530 N.2   503  NAD503     -0.0055
     22  C4A        8.9060   47.4240    8.8860 C.2   503  NAD503      0.3518
     23  O3        12.9850   46.4530    1.4170 O.3   503  NAD503     -0.2703
     24  PN        12.3110   45.2350    0.5930 P.3   503  NAD503      0.2189
     25  O1N       10.8520   45.4150    0.5730 O.2   503  NAD503     -0.5170
     26  O2N       12.8960   43.9900    1.1720 O.3   503  NAD503     -0.4371
     27  O5D       12.8700   45.5640   -0.8900 O.3   503  NAD503     -0.3112
     28  C5D       14.3000   45.4560   -1.1430 C.3   503  NAD503      0.1813
     29  C4D       14.6160   45.6050   -2.5840 C.3   503  NAD503      0.1799
     30  O4D       13.8030   46.7040   -3.1790 O.3   503  NAD503     -0.3327
     31  C3D       16.0990   45.9990   -2.8620 C.3   503  NAD503      0.2158
     32  O3D       16.6160   45.2700   -3.9950 O.3   503  NAD503     -0.2175
     33  C2D       16.0380   47.5210   -3.1310 C.3   503  NAD503      0.2309
     34  O2D       17.1270   47.9910   -3.8800 O.3   503  NAD503     -0.2158
     35  C1D       14.6390   47.6880   -3.8380 C.3   503  NAD503      0.2263
     36  N1N       14.0020   49.0460   -3.6650 N.pl3 503  NAD503     -0.2787
     37  C2N       14.2680   50.0290   -4.7020 C.3   503  NAD503      0.1244
     38  C3N       13.7450   51.2610   -4.6640 C.2   503  NAD503      0.0544
     39  C7N       14.0380   52.2910   -5.7490 C.2   503  NAD503      0.2818
     40  O7N       13.2710   53.2830   -5.8540 O.2   503  NAD503     -0.2670
     41  N7N       15.1080   52.1240   -6.5540 N.am  503  NAD503     -0.0839
     42  C4N       12.8420   51.6630   -3.5120 C.2   503  NAD503      0.0033
     43  C5N       12.5630   50.6580   -2.4340 C.2   503  NAD503      0.0157
     44  C6N       13.1530   49.3670   -2.5370 C.2   503  NAD503      0.0633
@<TRIPOS>BOND
     1    41    39   am
     2    40    39    2
     3    39    38    1
     4    37    38    1
     5    37    36    1
     6    38    42    2
     7    32    31    1
     8    34    33    1
     9    35    36    1
    10    35    30    1
    11    35    33    1
    12    36    44    1
    13    42    43    1
    14    30    29    1
    15    33    31    1
    16    31    29    1
    17    29    28    1
    18    44    43    2
    19    28    27    1
    20    27    24    1
    21     2     1    2
    22    25    24    2
    23    24    26    1
    24    24    23    1
    25    23     1    1
    26     1     4    1
    27     1     3    1
    28     4     5    1
    29     9     8    1
    30     5     6    1
    31     6     8    1
    32     6     7    1
    33     8    10    1
    34     7    12    1
    35    10    11    1
    36    10    12    1
    37    12    13    1
    38    13    14    1
    39    13    22    1
    40    14    15    1
    41    21    22    2
    42    21    20    1
    43    22    16    1
    44    15    16    2
    45    20    19    1
    46    16    17    1
    47    19    17    2
    48    17    18    1
