@<TRIPOS>MOLECULE
1yc3_4BC_A_1.pdb
 27 30 0 0 0
SMALL
GASTEIGER

@<TRIPOS>ATOM
      1  C15       11.2640    4.1540   15.5680 C.ar  237  4BC237      0.0367
      2  C12       11.2620    3.3000   16.6670 C.ar  237  4BC237      0.1761
      3  O17       10.4520    3.2550   17.7640 O.3   237  4BC237     -0.4346
      4  C19       10.8800    2.1740   18.6160 C.3   237  4BC237      0.4294
      5  O18       11.9090    1.5090   17.8610 O.3   237  4BC237     -0.4346
      6  C16       12.1530    2.2310   16.7270 C.ar  237  4BC237      0.1764
      7  C22       13.0500    2.0210   15.6840 C.ar  237  4BC237      0.0399
      8  C20       13.0450    2.8730   14.5820 C.ar  237  4BC237     -0.0002
      9  C8        12.1500    3.9380   14.5170 C.ar  237  4BC237     -0.0077
     10  C4        12.0480    4.6840   13.3460 C.3   237  4BC237      0.1129
     11  C1        13.0720    5.3390   12.6800 C.2   237  4BC237      0.1691
     12  C7        14.5080    5.5170   13.1840 C.2   237  4BC237      0.4035
     13  O21       15.3640    6.0130   12.4570 O.co2 237  4BC237     -0.2391
     14  O23       14.8300    5.1520   14.3140 O.co2 237  4BC237     -0.2391
     15  N5        12.5600    5.8460   11.5600 N.2   237  4BC237     -0.1453
     16  C2        10.9310    4.8710   12.5390 C.2   237  4BC237      0.0931
     17  N3        11.3510    5.5900   11.4990 N.2   237  4BC237     -0.1517
     18  C6         9.6840    4.2870   12.7610 C.ar  237  4BC237      0.0548
     19  C10        9.6010    2.9410   13.1130 C.ar  237  4BC237      0.0033
     20  C14        8.3740    2.3310   13.3700 C.ar  237  4BC237      0.0170
     21  C26        8.3490    0.8300   13.6720 C.3   237  4BC237      0.0296
     22  C27        7.7640    0.0620   12.4850 C.3   237  4BC237      0.0051
     23  C13        7.2150    3.0980   13.2820 C.ar  237  4BC237      0.1949
     24  O25        6.0110    2.5340   13.5630 O.3   237  4BC237     -0.2868
     25  C11        7.2830    4.4400   12.9190 C.ar  237  4BC237      0.0837
     26  C9         8.5120    5.0350   12.6530 C.ar  237  4BC237      0.2000
     27  O24        8.5300    6.3580   12.3370 O.3   237  4BC237     -0.2864
@<TRIPOS>BOND
     1    17    15    1
     2    17    16    2
     3    15    11    2
     4    27    26    1
     5    13    12   ar
     6    22    21    1
     7    16    18    1
     8    16    10    1
     9    26    18   ar
    10    26    25   ar
    11    11    12    1
    12    11    10    1
    13    18    19   ar
    14    25    23   ar
    15    19    20   ar
    16    12    14   ar
    17    23    20   ar
    18    23    24    1
    19    10     9    1
    20    20    21    1
    21     9     8   ar
    22     9     1   ar
    23     8     7   ar
    24     1     2   ar
    25     7     6   ar
    26     2     6   ar
    27     2     3    1
    28     6     5    1
    29     3     4    1
    30     5     4    1
