@<TRIPOS>MOLECULE
1yc4_43P_A_1.pdb
 20 22 0 0 0
SMALL
GASTEIGER

@<TRIPOS>ATOM
      1  OAQ       32.7690   32.2390   -3.8380 O.3   301  43P301     -0.2864
      2  CAF       33.9300   32.1240   -3.1370 C.ar  301  43P301      0.2000
      3  CAJ       33.8620   31.7060   -1.8070 C.ar  301  43P301      0.0837
      4  CAL       35.0320   31.5290   -1.0690 C.ar  301  43P301      0.1949
      5  OAR       34.9460   31.2410    0.2620 O.3   301  43P301     -0.2868
      6  CAM       36.2710   31.7420   -1.6720 C.ar  301  43P301      0.0170
      7  CAS       37.5870   31.3210   -1.0050 C.3   301  43P301      0.0296
      8  CAT       37.7730   29.8000   -1.0560 C.3   301  43P301      0.0051
      9  CAG       36.3180   32.2020   -2.9890 C.ar  301  43P301      0.0033
     10  CAC       35.1570   32.3960   -3.7360 C.ar  301  43P301      0.0548
     11  CAB       35.2030   32.8350   -5.0630 C.2   301  43P301      0.0945
     12  NAE       34.8650   32.1240   -6.1400 N.2   301  43P301     -0.1518
     13  NAI       35.0220   32.7870   -7.1700 N.2   301  43P301     -0.1506
     14  CAK       35.4930   33.9940   -6.8710 C.2   301  43P301      0.1074
     15  CAA       35.6180   34.0750   -5.5490 C.3   301  43P301      0.1264
     16  CAD       35.9810   35.2120   -4.8340 C.2   301  43P301      0.0857
     17  CAP       36.6170   36.2670   -5.3390 C.2   301  43P301      0.1105
     18  NAN       36.7480   37.1850   -4.3850 N.2   301  43P301     -0.2415
     19  CAO       36.1990   36.7030   -3.2730 C.3   301  43P301      0.2505
     20  NAH       35.7300   35.4900   -3.5570 N.2   301  43P301     -0.2463
@<TRIPOS>BOND
     1    13    14    2
     2    13    12    1
     3    14    15    1
     4    12    11    2
     5    15    11    1
     6    15    16    1
     7    17    16    1
     8    17    18    2
     9    11    10    1
    10    16    20    2
    11    18    19    1
    12     1     2    1
    13    10     2   ar
    14    10     9   ar
    15    20    19    1
    16     2     3   ar
    17     9     6   ar
    18     3     4   ar
    19     6     4   ar
    20     6     7    1
    21     4     5    1
    22     8     7    1
