@<TRIPOS>MOLECULE
1yca_HEM_A_1.pdb
 43 50 0 0 0
SMALL
GASTEIGER

@<TRIPOS>ATOM
      1 FE         43.6520  -16.4930   50.3910 Fe    154  HEM154      0.0000
      2  CHA       42.2440  -19.0300   52.0550 C.2   154  HEM154      0.0000
      3  CHB       45.0700  -18.6860   48.1380 C.2   154  HEM154      0.0000
      4  CHC       44.9500  -13.8470   48.6130 C.2   154  HEM154      0.0000
      5  CHD       42.2170  -14.2480   52.6060 C.2   154  HEM154      0.0000
      6  NA        43.6460  -18.4350   50.1550 N.ar  154  HEM154      0.0000
      7  C1A       43.0320  -19.3790   50.9780 C.ar  154  HEM154      0.0000
      8  C2A       43.3790  -20.7380   50.5320 C.ar  154  HEM154      0.0000
      9  C3A       44.1560  -20.5930   49.4250 C.ar  154  HEM154      0.0000
     10  C4A       44.3120  -19.1730   49.1630 C.ar  154  HEM154      0.0000
     11  CMA       44.7870  -21.6970   48.5480 C.3   154  HEM154      0.0000
     12  CAA       42.8550  -22.0590   51.1450 C.3   154  HEM154      0.0000
     13  CBA       41.5770  -22.5840   50.3910 C.3   154  HEM154      0.0000
     14  CGA       40.5270  -21.5980   50.0500 C.2   154  HEM154      0.0000
     15  O1A       39.6880  -20.9200   50.7890 O.co2 154  HEM154      0.0000
     16  O2A       40.3330  -21.2590   48.8510 O.co2 154  HEM154      0.0000
     17  NB        44.7350  -16.2910   48.7060 N.2   154  HEM154      0.0000
     18  C1B       45.2370  -17.3320   47.9480 C.2   154  HEM154      0.0000
     19  C2B       45.9610  -16.7480   46.8160 C.2   154  HEM154      0.0000
     20  C3B       45.9560  -15.4360   46.9630 C.2   154  HEM154      0.0000
     21  C4B       45.1930  -15.1300   48.1340 C.2   154  HEM154      0.0000
     22  CMB       46.6890  -17.6250   45.7240 C.3   154  HEM154      0.0000
     23  CAB       46.6280  -14.3870   46.0330 C.2   154  HEM154      0.0000
     24  CBB       47.9780  -14.3260   45.9100 C.2   154  HEM154      0.0000
     25  NC        43.5100  -14.4970   50.5050 N.ar  154  HEM154      0.0000
     26  C1C       44.1760  -13.5280   49.7120 C.ar  154  HEM154      0.0000
     27  C2C       44.0640  -12.2260   50.3290 C.ar  154  HEM154      0.0000
     28  C3C       43.3370  -12.3740   51.4420 C.ar  154  HEM154      0.0000
     29  C4C       42.9790  -13.7650   51.5790 C.ar  154  HEM154      0.0000
     30  CMC       44.7150  -10.9410   49.7460 C.3   154  HEM154      0.0000
     31  CAC       42.8840  -11.3990   52.5450 C.2   154  HEM154      0.0000
     32  CBC       43.2840  -10.1560   52.4180 C.2   154  HEM154      0.0000
     33  ND        42.3970  -16.6100   51.9540 N.2   154  HEM154      0.0000
     34  C1D       42.0190  -15.5890   52.7920 C.2   154  HEM154      0.0000
     35  C2D       41.3570  -16.1210   53.9770 C.2   154  HEM154      0.0000
     36  C3D       41.3770  -17.4490   53.8450 C.2   154  HEM154      0.0000
     37  C4D       42.0280  -17.7780   52.5840 C.2   154  HEM154      0.0000
     38  CMD       40.8250  -15.2150   55.1250 C.3   154  HEM154      0.0000
     39  CAD       40.8820  -18.5080   54.8330 C.3   154  HEM154      0.0000
     40  CBD       42.0060  -18.9920   55.7310 C.3   154  HEM154      0.0000
     41  CGD       41.6040  -19.7490   56.9670 C.2   154  HEM154      0.0000
     42  O1D       41.2430  -19.0730   57.9830 O.co2 154  HEM154      0.0000
     43  O2D       41.6750  -20.9820   57.0080 O.co2 154  HEM154      0.0000
@<TRIPOS>BOND
     1    22    19    1
     2    24    23    2
     3    23    20    1
     4    19    20    2
     5    19    18    1
     6    20    21    1
     7    18     3    1
     8    18    17    2
     9    21     4    2
    10    21    17    1
    11     3    10    2
    12    11     9    1
    13     4    26    1
    14    17     1    1
    15    16    14   ar
    16    10     9   ar
    17    10     6   ar
    18     9     8   ar
    19    26    27   ar
    20    26    25   ar
    21    30    27    1
    22    14    13    1
    23    14    15   ar
    24     6     1    1
    25     6     7   ar
    26    27    28   ar
    27    13    12    1
    28     1    25    1
    29     1    33    1
    30    25    29   ar
    31     8     7   ar
    32     8    12    1
    33     7     2    2
    34    28    29   ar
    35    28    31    1
    36    29     5    1
    37    33    37    2
    38    33    34    1
    39     2    37    1
    40    32    31    2
    41    37    36    1
    42     5    34    2
    43    34    35    1
    44    36    35    2
    45    36    39    1
    46    35    38    1
    47    39    40    1
    48    40    41    1
    49    41    43   ar
    50    41    42   ar
