@<TRIPOS>MOLECULE
1ycb_HEM_A_1.pdb
 43 50 0 0 0
SMALL
GASTEIGER

@<TRIPOS>ATOM
      1 FE         43.8840  -16.6880   50.2580 Fe    154  HEM154      0.0000
      2  CHA       42.5760  -19.2520   51.9460 C.2   154  HEM154      0.0000
      3  CHB       45.4280  -18.8970   48.0180 C.2   154  HEM154      0.0000
      4  CHC       45.4650  -14.0550   48.6830 C.2   154  HEM154      0.0000
      5  CHD       42.6730  -14.4680   52.6080 C.2   154  HEM154      0.0000
      6  NA        44.0220  -18.6560   50.0810 N.ar  154  HEM154      0.0000
      7  C1A       43.3370  -19.5810   50.8430 C.ar  154  HEM154      0.0000
      8  C2A       43.5840  -20.9000   50.3100 C.ar  154  HEM154      0.0000
      9  C3A       44.3430  -20.7890   49.2060 C.ar  154  HEM154      0.0000
     10  C4A       44.6300  -19.3720   49.0490 C.ar  154  HEM154      0.0000
     11  CMA       44.9190  -21.8090   48.2180 C.3   154  HEM154      0.0000
     12  CAA       42.9400  -22.1780   50.8780 C.3   154  HEM154      0.0000
     13  CBA       41.8310  -22.6120   49.8460 C.3   154  HEM154      0.0000
     14  CGA       40.7280  -21.6520   49.6310 C.2   154  HEM154      0.0000
     15  O1A       40.1220  -21.3110   50.6900 O.co2 154  HEM154      0.0000
     16  O2A       40.3180  -21.1650   48.5400 O.co2 154  HEM154      0.0000
     17  NB        45.1630  -16.5170   48.6770 N.2   154  HEM154      0.0000
     18  C1B       45.6470  -17.5350   47.8640 C.2   154  HEM154      0.0000
     19  C2B       46.3810  -16.9530   46.7870 C.2   154  HEM154      0.0000
     20  C3B       46.4400  -15.6300   46.9850 C.2   154  HEM154      0.0000
     21  C4B       45.6740  -15.3310   48.1550 C.2   154  HEM154      0.0000
     22  CMB       47.0750  -17.7730   45.6560 C.3   154  HEM154      0.0000
     23  CAB       47.1410  -14.5700   46.0820 C.2   154  HEM154      0.0000
     24  CBB       48.4840  -14.6210   45.8810 C.2   154  HEM154      0.0000
     25  NC        43.8540  -14.6920   50.4320 N.ar  154  HEM154      0.0000
     26  C1C       44.5880  -13.7320   49.7170 C.ar  154  HEM154      0.0000
     27  C2C       44.5720  -12.4440   50.4060 C.ar  154  HEM154      0.0000
     28  C3C       43.8690  -12.5980   51.5280 C.ar  154  HEM154      0.0000
     29  C4C       43.4540  -13.9960   51.5770 C.ar  154  HEM154      0.0000
     30  CMC       45.2800  -11.1530   49.9520 C.3   154  HEM154      0.0000
     31  CAC       43.5130  -11.6410   52.6920 C.2   154  HEM154      0.0000
     32  CBC       43.8580  -10.3890   52.8130 C.2   154  HEM154      0.0000
     33  ND        42.8180  -16.8020   51.9120 N.2   154  HEM154      0.0000
     34  C1D       42.4220  -15.8090   52.7670 C.2   154  HEM154      0.0000
     35  C2D       41.7220  -16.3620   53.9290 C.2   154  HEM154      0.0000
     36  C3D       41.6870  -17.6680   53.7320 C.2   154  HEM154      0.0000
     37  C4D       42.3590  -17.9970   52.4830 C.2   154  HEM154      0.0000
     38  CMD       41.1160  -15.4920   55.0150 C.3   154  HEM154      0.0000
     39  CAD       41.1040  -18.7260   54.6740 C.3   154  HEM154      0.0000
     40  CBD       42.2070  -19.0420   55.7170 C.3   154  HEM154      0.0000
     41  CGD       41.9840  -20.3630   56.4760 C.2   154  HEM154      0.0000
     42  O1D       41.4690  -20.0990   57.5870 O.co2 154  HEM154      0.0000
     43  O2D       42.3220  -21.4680   55.8780 O.co2 154  HEM154      0.0000
@<TRIPOS>BOND
     1    22    19    1
     2    24    23    2
     3    23    20    1
     4    19    20    2
     5    19    18    1
     6    20    21    1
     7    18     3    1
     8    18    17    2
     9     3    10    2
    10    21    17    1
    11    21     4    2
    12    11     9    1
    13    16    14   ar
    14    17     1    1
    15     4    26    1
    16    10     9   ar
    17    10     6   ar
    18     9     8   ar
    19    14    13    1
    20    14    15   ar
    21    26    27   ar
    22    26    25   ar
    23    13    12    1
    24    30    27    1
    25     6     1    1
    26     6     7   ar
    27     1    25    1
    28     1    33    1
    29     8     7   ar
    30     8    12    1
    31    27    28   ar
    32    25    29   ar
    33     7     2    2
    34    28    29   ar
    35    28    31    1
    36    29     5    1
    37    33    37    2
    38    33    34    1
    39     2    37    1
    40    37    36    1
    41     5    34    2
    42    31    32    2
    43    34    35    1
    44    36    35    2
    45    36    39    1
    46    35    38    1
    47    39    40    1
    48    40    41    1
    49    43    41   ar
    50    41    42   ar
