@<TRIPOS>MOLECULE
1ycc_HEM_A_1.pdb
 43 50 0 0 0
SMALL
GASTEIGER

@<TRIPOS>ATOM
      1 FE          2.8040   20.9770   13.2030 Fe    118  HEM118      0.0000
      2  CHA        5.1060   18.7020   14.2370 C.2   118  HEM118      0.0000
      3  CHB        3.9700   20.6510   10.0300 C.2   118  HEM118      0.0000
      4  CHC        0.2090   22.8090   12.1410 C.2   118  HEM118      0.0000
      5  CHD        2.1050   21.7340   16.3570 C.2   118  HEM118      0.0000
      6  NA         4.2310   19.9060   12.3680 N.ar  118  HEM118      0.0000
      7  C1A        5.1010   19.0260   12.8880 C.ar  118  HEM118      0.0000
      8  C2A        5.7940   18.2320   11.8450 C.ar  118  HEM118      0.0000
      9  C3A        5.4730   18.8200   10.6920 C.ar  118  HEM118      0.0000
     10  C4A        4.5160   19.8110   10.9170 C.ar  118  HEM118      0.0000
     11  CMA        5.9750   18.3740    9.2660 C.3   118  HEM118      0.0000
     12  CAA        6.8100   17.1820   12.1930 C.3   118  HEM118      0.0000
     13  CBA        8.2150   17.8540   12.3260 C.3   118  HEM118      0.0000
     14  CGA        9.4310   16.9480   12.4460 C.2   118  HEM118      0.0000
     15  O1A       10.4970   17.5610   12.5740 O.co2 118  HEM118      0.0000
     16  O2A        9.3020   15.7050   12.4270 O.co2 118  HEM118      0.0000
     17  NB         2.1920   21.6290   11.4110 N.2   118  HEM118      0.0000
     18  C1B        2.9420   21.5600   10.2430 C.2   118  HEM118      0.0000
     19  C2B        2.1530   22.2550    9.2300 C.2   118  HEM118      0.0000
     20  C3B        1.0490   22.8200    9.7790 C.2   118  HEM118      0.0000
     21  C4B        1.1520   22.4420   11.1630 C.2   118  HEM118      0.0000
     22  CMB        2.6780   22.4180    7.7570 C.3   118  HEM118      0.0000
     23  CAB       -0.0250   23.7010    9.1970 C.3   118  HEM118      0.0000
     24  CBB       -1.1720   22.9330    8.5200 C.3   118  HEM118      0.0000
     25  NC         1.4220   22.0660   14.1300 N.ar  118  HEM118      0.0000
     26  C1C        0.3910   22.7730   13.5900 C.ar  118  HEM118      0.0000
     27  C2C       -0.4040   23.5400   14.4660 C.ar  118  HEM118      0.0000
     28  C3C        0.1030   23.1990   15.6690 C.ar  118  HEM118      0.0000
     29  C4C        1.2830   22.3610   15.4660 C.ar  118  HEM118      0.0000
     30  CMC       -1.5800   24.4170   14.1630 C.3   118  HEM118      0.0000
     31  CAC       -0.1430   23.7970   17.0890 C.3   118  HEM118      0.0000
     32  CBC       -1.6430   23.7960   17.4610 C.3   118  HEM118      0.0000
     33  ND         3.4780   20.3510   14.9830 N.2   118  HEM118      0.0000
     34  C1D        3.0570   20.7920   16.2320 C.2   118  HEM118      0.0000
     35  C2D        3.7460   20.1120   17.2280 C.2   118  HEM118      0.0000
     36  C3D        4.5700   19.2310   16.6380 C.2   118  HEM118      0.0000
     37  C4D        4.3450   19.3270   15.1980 C.2   118  HEM118      0.0000
     38  CMD        3.5260   20.2750   18.8010 C.3   118  HEM118      0.0000
     39  CAD        5.4240   18.1690   17.3750 C.3   118  HEM118      0.0000
     40  CBD        4.8190   16.7860   17.3140 C.3   118  HEM118      0.0000
     41  CGD        5.3210   15.7400   18.2920 C.2   118  HEM118      0.0000
     42  O1D        6.4730   15.9130   18.7740 O.co2 118  HEM118      0.0000
     43  O2D        4.5960   14.7240   18.3840 O.co2 118  HEM118      0.0000
@<TRIPOS>BOND
     1    22    19    1
     2    24    23    1
     3    23    20    1
     4    19    20    2
     5    19    18    1
     6    11     9    1
     7    20    21    1
     8     3    18    1
     9     3    10    2
    10    18    17    2
    11     9    10   ar
    12     9     8   ar
    13    10     6   ar
    14    21    17    1
    15    21     4    2
    16    17     1    1
    17     8    12    1
    18     8     7   ar
    19     4    26    1
    20    12    13    1
    21    13    14    1
    22     6     7   ar
    23     6     1    1
    24    16    14   ar
    25    14    15   ar
    26     7     2    2
    27     1    25    1
    28     1    33    1
    29    26    25   ar
    30    26    27   ar
    31    25    29   ar
    32    30    27    1
    33     2    37    1
    34    27    28   ar
    35    33    37    2
    36    33    34    1
    37    37    36    1
    38    29    28   ar
    39    29     5    1
    40    28    31    1
    41    34     5    2
    42    34    35    1
    43    36    35    2
    44    36    39    1
    45    31    32    1
    46    35    38    1
    47    40    39    1
    48    40    41    1
    49    41    43   ar
    50    41    42   ar
