@<TRIPOS>MOLECULE
1ycd_LI5_A_1.pdb
 14 13 0 0 0
SMALL
GASTEIGER

@<TRIPOS>ATOM
      1  O2P       20.8730   44.8420   60.0770 O.3   800  LI5800     -0.1425
      2  P         19.9920   44.8900   61.2910 P.3   800  LI5800      0.3943
      3  O1P       20.6240   45.4700   62.5620 O.3   800  LI5800     -0.1425
      4  O3P       18.6250   45.6650   60.9630 O.3   800  LI5800     -0.2922
      5  C1        17.9560   46.3220   62.0540 C.3   800  LI5800      0.1882
      6  C2        18.0310   47.8510   61.9840 C.3   800  LI5800      0.2072
      7  O2        17.6300   48.3510   60.6970 O.3   800  LI5800     -0.2155
      8  C3        19.4130   48.3550   62.3510 C.2   800  LI5800      0.0541
      9  C4        19.6470   48.8530   63.5830 C.2   800  LI5800      0.2322
     10  O30       18.6360   48.9020   64.4600 O.2   800  LI5800     -0.2834
     11  C30       20.8630   49.3050   63.9350 C.2   800  LI5800      0.2298
     12  O5        21.8780   49.2660   63.0740 O.2   800  LI5800     -0.2835
     13  C31       21.0790   49.8130   65.1590 C.2   800  LI5800      0.0195
     14  C32       22.4410   50.3280   65.5720 C.3   800  LI5800      0.0343
@<TRIPOS>BOND
     1     1     2    1
     2     7     6    1
     3     4     2    1
     4     4     5    1
     5     2     3    1
     6     6     5    1
     7     6     8    1
     8     8     9    2
     9    12    11    1
    10     9    11    1
    11     9    10    1
    12    11    13    2
    13    13    14    1
