@<TRIPOS>MOLECULE
1ycf_FMN_A_1.pdb
 31 33 0 0 0
SMALL
GASTEIGER

@<TRIPOS>ATOM
      1  N1        85.8350   73.8140 -166.3450 N.2   701  FMN701     -0.2890
      2  C2        84.6780   73.0860 -166.3820 C.1   701  FMN701      0.3669
      3  O2        83.6570   73.2080 -165.6820 O.2   701  FMN701     -0.1744
      4  N3        84.5880   71.9790 -167.3880 N.2   701  FMN701     -0.2300
      5  C4        85.6720   71.6640 -168.3100 C.1   701  FMN701      0.2513
      6  O4        85.4290   70.7110 -169.0840 O.2   701  FMN701     -0.2057
      7  C4A       86.8340   72.4590 -168.2130 C.2   701  FMN701      0.2700
      8  N5        87.8470   72.2110 -169.0310 N.2   701  FMN701     -0.3878
      9  C5A       89.0650   72.9850 -168.9850 C.2   701  FMN701      0.1320
     10  C6        90.1900   72.7420 -169.8620 C.2   701  FMN701      0.0250
     11  C7        91.4090   73.5700 -169.7680 C.2   701  FMN701     -0.0238
     12  C7M       92.4110   73.0820 -170.8120 C.3   701  FMN701      0.0308
     13  C8        91.4890   74.6660 -168.7640 C.2   701  FMN701     -0.0280
     14  C8M       92.7020   75.4880 -168.6760 C.3   701  FMN701      0.0304
     15  C9        90.4090   74.9120 -167.9070 C.2   701  FMN701     -0.0041
     16  C9A       89.1300   74.1020 -167.9520 C.3   701  FMN701      0.1497
     17  N10       88.0800   74.4140 -167.0500 N.pl3 701  FMN701     -0.2691
     18  C10       86.9190   73.6150 -167.1550 C.2   701  FMN701      0.2416
     19  C1'       88.0910   75.4830 -166.0290 C.3   701  FMN701      0.1294
     20  C2'       88.7170   75.0820 -164.6860 C.3   701  FMN701      0.2044
     21  O2'       87.9640   74.0090 -164.1390 O.3   701  FMN701     -0.2185
     22  C3'       88.6620   76.2870 -163.8010 C.3   701  FMN701      0.2164
     23  O3'       89.4660   77.3670 -164.3920 O.3   701  FMN701     -0.2175
     24  C4'       89.2460   76.1810 -162.3760 C.3   701  FMN701      0.2147
     25  O4'       89.0700   77.4260 -161.7500 O.3   701  FMN701     -0.2176
     26  C5'       90.7730   75.8160 -162.3100 C.3   701  FMN701      0.1892
     27  O5'       91.0270   75.1500 -161.0300 O.3   701  FMN701     -0.2674
     28  P         92.4620   75.3780 -160.3870 P.3   701  FMN701      0.5327
     29  O1P       92.4410   74.5610 -159.0640 O.3   701  FMN701     -0.1145
     30  O2P       93.4650   74.8210 -161.3110 O.2   701  FMN701     -0.2224
     31  O3P       92.6670   76.9040 -160.1230 O.3   701  FMN701     -0.1145
@<TRIPOS>BOND
     1    12    11    1
     2    10    11    2
     3    10     9    1
     4    11    13    1
     5     6     5    2
     6     8     9    2
     7     8     7    2
     8     9    16    1
     9    13    14    1
    10    13    15    2
    11     5     7    1
    12     5     4    2
    13     7    18    1
    14    16    15    1
    15    16    17    1
    16     4     2    2
    17    18    17    1
    18    18     1    2
    19    17    19    1
    20     2     1    2
    21     2     3    2
    22    19    20    1
    23    20    21    1
    24    20    22    1
    25    23    22    1
    26    22    24    1
    27    24    26    1
    28    24    25    1
    29    26    27    1
    30    30    28    2
    31    27    28    1
    32    28    31    1
    33    28    29    1
