@<TRIPOS>MOLECULE
1ycg_FMN_A_1.pdb
 31 33 0 0 0
SMALL
GASTEIGER

@<TRIPOS>ATOM
      1  N1        86.1030   74.8400 -166.7320 N.2   701  FMN701     -0.2890
      2  C2        84.9450   74.1160 -166.7620 C.1   701  FMN701      0.3669
      3  O2        83.9330   74.2110 -166.0280 O.2   701  FMN701     -0.1744
      4  N3        84.8390   73.0540 -167.8120 N.2   701  FMN701     -0.2300
      5  C4        85.8990   72.7740 -168.7690 C.1   701  FMN701      0.2513
      6  O4        85.6250   71.8560 -169.5660 O.2   701  FMN701     -0.2057
      7  C4A       87.0630   73.5660 -168.6780 C.2   701  FMN701      0.2700
      8  N5        88.0760   73.3540 -169.5280 N.2   701  FMN701     -0.3878
      9  C5A       89.2940   74.1560 -169.4710 C.2   701  FMN701      0.1320
     10  C6        90.4290   73.9830 -170.3650 C.2   701  FMN701      0.0250
     11  C7        91.6350   74.8440 -170.2300 C.2   701  FMN701     -0.0238
     12  C7M       92.6390   74.4470 -171.2930 C.3   701  FMN701      0.0308
     13  C8        91.6980   75.8790 -169.1740 C.2   701  FMN701     -0.0280
     14  C8M       92.8890   76.7280 -169.0420 C.3   701  FMN701      0.0304
     15  C9        90.6200   76.0520 -168.3100 C.2   701  FMN701     -0.0041
     16  C9A       89.3600   75.2100 -168.3790 C.3   701  FMN701      0.1497
     17  N10       88.3170   75.4720 -167.4630 N.pl3 701  FMN701     -0.2691
     18  C10       87.1690   74.6670 -167.5700 C.2   701  FMN701      0.2416
     19  C1'       88.3340   76.4720 -166.4000 C.3   701  FMN701      0.1294
     20  C2'       89.0380   76.0180 -165.1260 C.3   701  FMN701      0.2044
     21  O2'       88.3910   74.8780 -164.6190 O.3   701  FMN701     -0.2185
     22  C3'       88.9590   77.1650 -164.1980 C.3   701  FMN701      0.2164
     23  O3'       89.7020   78.3140 -164.7870 O.3   701  FMN701     -0.2175
     24  C4'       89.5800   77.0120 -162.7880 C.3   701  FMN701      0.2147
     25  O4'       89.3820   78.2030 -162.0880 O.3   701  FMN701     -0.2176
     26  C5'       91.1060   76.6900 -162.7400 C.3   701  FMN701      0.1892
     27  O5'       91.3240   76.1250 -161.4160 O.3   701  FMN701     -0.2674
     28  P         92.7030   76.4230 -160.7260 P.3   701  FMN701      0.5327
     29  O1P       92.6150   75.6840 -159.3510 O.3   701  FMN701     -0.1145
     30  O2P       93.7660   75.8190 -161.5510 O.2   701  FMN701     -0.2224
     31  O3P       92.8820   77.9720 -160.5520 O.3   701  FMN701     -0.1145
@<TRIPOS>BOND
     1    12    11    1
     2    10    11    2
     3    10     9    1
     4    11    13    1
     5     6     5    2
     6     8     9    2
     7     8     7    2
     8     9    16    1
     9    13    14    1
    10    13    15    2
    11     5     7    1
    12     5     4    2
    13     7    18    1
    14    16    15    1
    15    16    17    1
    16     4     2    2
    17    18    17    1
    18    18     1    2
    19    17    19    1
    20     2     1    2
    21     2     3    2
    22    19    20    1
    23    20    21    1
    24    20    22    1
    25    23    22    1
    26    22    24    1
    27    24    26    1
    28    24    25    1
    29    26    27    1
    30    30    28    2
    31    27    28    1
    32    28    31    1
    33    28    29    1
