@<TRIPOS>MOLECULE
1ych_FMN_A_1.pdb
 31 33 0 0 0
SMALL
GASTEIGER

@<TRIPOS>ATOM
      1  N1        86.4630   75.4440 -167.3180 N.2   701  FMN701     -0.2890
      2  C2        85.2990   74.7110 -167.3430 C.1   701  FMN701      0.3669
      3  O2        84.2640   74.8250 -166.6110 O.2   701  FMN701     -0.1744
      4  N3        85.2150   73.6150 -168.3790 N.2   701  FMN701     -0.2300
      5  C4        86.2910   73.3110 -169.3150 C.1   701  FMN701      0.2513
      6  O4        86.0260   72.3720 -170.0840 O.2   701  FMN701     -0.2057
      7  C4A       87.4530   74.1070 -169.2440 C.2   701  FMN701      0.2700
      8  N5        88.4900   73.8630 -170.0910 N.2   701  FMN701     -0.3878
      9  C5A       89.7140   74.6660 -170.0420 C.2   701  FMN701      0.1320
     10  C6        90.8720   74.4810 -170.9230 C.2   701  FMN701      0.0250
     11  C7        92.0750   75.3580 -170.7770 C.2   701  FMN701     -0.0238
     12  C7M       93.1360   74.9830 -171.8070 C.3   701  FMN701      0.0308
     13  C8        92.0990   76.4070 -169.7290 C.2   701  FMN701     -0.0280
     14  C8M       93.2740   77.2820 -169.5640 C.3   701  FMN701      0.0304
     15  C9        91.0070   76.5810 -168.8950 C.2   701  FMN701     -0.0041
     16  C9A       89.7600   75.7470 -168.9700 C.3   701  FMN701      0.1497
     17  N10       88.7090   76.0460 -168.0560 N.pl3 701  FMN701     -0.2691
     18  C10       87.5490   75.2430 -168.1480 C.2   701  FMN701      0.2416
     19  C1'       88.7530   77.0720 -167.0220 C.3   701  FMN701      0.1294
     20  C2'       89.4620   76.6190 -165.7430 C.3   701  FMN701      0.2044
     21  O2'       88.7910   75.5080 -165.1890 O.3   701  FMN701     -0.2185
     22  C3'       89.4330   77.7880 -164.8540 C.3   701  FMN701      0.2164
     23  O3'       90.2170   78.8870 -165.5030 O.3   701  FMN701     -0.2175
     24  C4'       90.0580   77.6390 -163.4530 C.3   701  FMN701      0.2147
     25  O4'       89.9240   78.8630 -162.7610 O.3   701  FMN701     -0.2176
     26  C5'       91.5630   77.2400 -163.4330 C.3   701  FMN701      0.1892
     27  O5'       91.7650   76.6180 -162.1360 O.3   701  FMN701     -0.2674
     28  P         93.1100   76.9440 -161.3890 P.3   701  FMN701      0.5327
     29  O1P       93.0200   76.1280 -160.0480 O.3   701  FMN701     -0.1145
     30  O2P       94.2000   76.4060 -162.2240 O.2   701  FMN701     -0.2224
     31  O3P       93.2180   78.5080 -161.1800 O.3   701  FMN701     -0.1145
@<TRIPOS>BOND
     1    12    11    1
     2    10    11    2
     3    10     9    1
     4    11    13    1
     5     8     9    2
     6     8     7    2
     7     6     5    2
     8     9    16    1
     9    13    14    1
    10    13    15    2
    11     5     7    1
    12     5     4    2
    13     7    18    1
    14    16    15    1
    15    16    17    1
    16     4     2    2
    17    18    17    1
    18    18     1    2
    19    17    19    1
    20     2     1    2
    21     2     3    2
    22    19    20    1
    23    20    21    1
    24    20    22    1
    25    23    22    1
    26    22    24    1
    27    24    26    1
    28    24    25    1
    29    26    27    1
    30    30    28    2
    31    27    28    1
    32    28    31    1
    33    28    29    1
