@<TRIPOS>MOLECULE
1yci_NDF_A_1.pdb
 17 17 0 0 0
SMALL
GASTEIGER

@<TRIPOS>ATOM
      1  CD1       19.9640   26.2530   33.0160 C.ar  400  NDF400     -0.0042
      2  CE1       21.0920   26.3910   33.8350 C.ar  400  NDF400     -0.0003
      3  CZ        22.1630   25.5290   33.6870 C.ar  400  NDF400     -0.0000
      4  CE2       22.1180   24.5170   32.7170 C.ar  400  NDF400     -0.0003
      5  CD2       21.0040   24.3790   31.9090 C.ar  400  NDF400     -0.0042
      6  CG        19.9200   25.2540   32.0610 C.ar  400  NDF400     -0.0199
      7  CB        18.6770   25.0850   31.1830 C.3   400  NDF400      0.0596
      8  CA        18.7960   25.8620   29.8710 C.3   400  NDF400      0.2026
      9  C         17.5210   25.6550   29.0560 C.2   400  NDF400      0.3846
     10  O         17.5440   25.0490   27.9890 O.co2 400  NDF400     -0.2437
     11  OXT       16.4440   26.1010   29.4740 O.co2 400  NDF400     -0.2437
     12  N         19.9690   25.3670   29.1360 N.am  400  NDF400     -0.1858
     13  C2        21.0750   26.0940   28.9940 C.2   400  NDF400      0.3454
     14  O2'       21.1840   27.2410   29.4270 O.2   400  NDF400     -0.2611
     15  C1        22.2630   25.4980   28.2380 C.2   400  NDF400      0.4419
     16  O1        22.1420   24.4000   27.6740 O.co2 400  NDF400     -0.2354
     17  O2        23.3320   26.0870   28.1950 O.co2 400  NDF400     -0.2354
@<TRIPOS>BOND
     1    16    15   ar
     2    10     9   ar
     3    17    15   ar
     4    15    13    1
     5    13    12   am
     6    13    14    2
     7     9    11   ar
     8     9     8    1
     9    12     8    1
    10     8     7    1
    11     7     6    1
    12     5     6   ar
    13     5     4   ar
    14     6     1   ar
    15     4     3   ar
    16     1     2   ar
    17     3     2   ar
