@<TRIPOS>MOLECULE
1ycj_GLU_A_1.pdb
 10 9 0 0 0
SMALL
GASTEIGER

@<TRIPOS>ATOM
      1  N         23.1530   27.4600   52.7320 N.3   998  GLU998     -0.1208
      2  CA        22.1230   27.7300   51.7330 C.3   998  GLU998      0.1949
      3  C         22.5400   27.0910   50.4310 C.2   998  GLU998      0.3819
      4  O         21.8400   27.3170   49.4150 O.co2 998  GLU998     -0.2441
      5  CB        21.9360   29.2880   51.5830 C.3   998  GLU998      0.0424
      6  CG        20.8960   29.9400   52.5040 C.3   998  GLU998      0.1161
      7  CD        19.4690   29.3690   52.4010 C.2   998  GLU998      0.3649
      8  OE1       18.9800   28.9080   51.3280 O.co2 998  GLU998     -0.2457
      9  OE2       18.7450   29.3910   53.4040 O.co2 998  GLU998     -0.2457
     10  OXT       23.6280   26.4570   50.3590 O.co2 998  GLU998     -0.2441
@<TRIPOS>BOND
     1     4     3   ar
     2    10     3   ar
     3     3     2    1
     4     8     7   ar
     5     5     2    1
     6     5     6    1
     7     2     1    1
     8     7     6    1
     9     7     9   ar
