@<TRIPOS>MOLECULE
1ycm_NGH_A_1.pdb
 40 40 0 0 0
SMALL
GASTEIGER

@<TRIPOS>ATOM
      1  C1         7.8980   -3.9230   -5.4320 C.ar  269  NGH269     -0.0319
      2  C2         7.5570   -3.7510   -4.0960 C.ar  269  NGH269     -0.0181
      3  C3         6.6090   -4.6000   -3.5250 C.ar  269  NGH269      0.1202
      4  C4         6.0070   -5.6080   -4.2910 C.ar  269  NGH269     -0.0181
      5  C5         6.3670   -5.7530   -5.6170 C.ar  269  NGH269     -0.0319
      6  C6         7.3140   -4.9200   -6.2070 C.ar  269  NGH269      0.1057
      7  O1         6.1890   -4.5710   -2.2100 O.3   269  NGH269     -0.4951
      8  C7         7.0180   -3.9180   -1.2830 C.3   269  NGH269      0.0788
      9  S1         7.7690   -5.1730   -7.9240 S.O2  269  NGH269      0.0612
     10  O2         9.2510   -5.2270   -7.9960 O.2   269  NGH269     -0.1528
     11  O3         7.0610   -6.3650   -8.4390 O.2   269  NGH269     -0.1528
     12  N          7.1650   -3.6930   -8.6770 N.3   269  NGH269     -0.1702
     13  C9         7.9750   -2.8610   -9.6070 C.3   269  NGH269      0.0233
     14  C10        5.8480   -3.1140   -8.2430 C.3   269  NGH269      0.0661
     15  C11        6.0170   -2.0150   -7.2360 C.2   269  NGH269      0.0714
     16  N1         5.0120   -1.4590   -6.5700 N.am  269  NGH269     -0.3100
     17  O4         5.0660   -0.4410   -5.7650 O.3   269  NGH269     -0.4230
     18  O5         7.1990   -1.5390   -7.0930 O.2   269  NGH269     -0.5408
     19  C12        8.4070   -3.6060  -10.8780 C.3   269  NGH269     -0.0323
     20  C13        9.8510   -4.0690  -10.7930 C.3   269  NGH269     -0.0615
     21  C14        8.2360   -2.6630  -12.0600 C.3   269  NGH269     -0.0615
     22  H1         8.6460   -3.2440   -5.8810 H     269  NGH269      0.0638
     23  H2         8.0380   -2.9530   -3.5220 H     269  NGH269      0.0655
     24  H4         5.2600   -6.2730   -3.8470 H     269  NGH269      0.0655
     25  H5         5.8950   -6.5400   -6.2190 H     269  NGH269      0.0638
     26  H71        7.7210   -4.7050   -1.0010 H     269  NGH269      0.0660
     27  H72        6.4620   -3.5780   -0.4020 H     269  NGH269      0.0660
     28  H73        7.5580   -3.0720   -1.7240 H     269  NGH269      0.0660
     29  H91        8.8590   -2.4570   -9.0790 H     269  NGH269      0.0447
     30  H92        7.2990   -1.9800   -9.8920 H     269  NGH269      0.0447
     31 H101        5.2080   -3.9060   -7.8080 H     269  NGH269      0.0512
     32 H102        5.3280   -2.7640   -9.1610 H     269  NGH269      0.0512
     33  HN1        4.1150   -1.8600   -6.7030 H     269  NGH269      0.1546
     34  H12        7.7540   -4.4970  -11.0450 H     269  NGH269      0.0308
     35 H131       10.2520   -4.3160  -11.7880 H     269  NGH269      0.0233
     36 H132       10.4980   -3.2790  -10.3810 H     269  NGH269      0.0233
     37 H133        9.9550   -4.9630  -10.1640 H     269  NGH269      0.0233
     38 H141        8.3570   -3.1860  -13.0140 H     269  NGH269      0.0233
     39 H142        7.2300   -2.2170  -12.0660 H     269  NGH269      0.0233
     40 H143        8.9650   -1.8410  -12.0320 H     269  NGH269      0.0233
@<TRIPOS>BOND
     1    38    21    1
     2    39    21    1
     3    21    40    1
     4    21    19    1
     5    35    20    1
     6    34    19    1
     7    19    20    1
     8    19    13    1
     9    20    36    1
    10    20    37    1
    11    30    13    1
    12    13    29    1
    13    13    12    1
    14    32    14    1
    15    12    14    1
    16    12     9    1
    17    11     9    2
    18    14    31    1
    19    14    15    1
    20    10     9    2
    21     9     6    1
    22    15    18    2
    23    15    16   am
    24    33    16    1
    25    16    17    1
    26    25     5    1
    27     6     5   ar
    28     6     1   ar
    29    22     1    1
    30     5     4   ar
    31     1     2   ar
    32     4    24    1
    33     4     3   ar
    34     2     3   ar
    35     2    23    1
    36     3     7    1
    37     7     8    1
    38    28     8    1
    39     8    26    1
    40     8    27    1
