@<TRIPOS>MOLECULE
1ycp_III_F_1.pdb
 45 45 0 0 0
SMALL
GASTEIGER

@<TRIPOS>ATOM
      1  N         13.2640   15.9450   51.2160 N.3   308  TYR308     -0.1241
      2  CA        12.0220   15.4630   50.5590 C.3   308  TYR308      0.1605
      3  C         12.0630   13.9270   50.4890 C.2   308  TYR308      0.2264
      4  O         11.0710   13.2740   50.8920 O.2   308  TYR308     -0.2867
      5  CB        11.8840   16.0740   49.1460 C.3   308  TYR308      0.0534
      6  CG        10.8510   15.3780   48.2890 C.ar  308  TYR308     -0.0201
      7  CD1        9.6150   15.0240   48.8160 C.ar  308  TYR308     -0.0009
      8  CD2       11.1470   14.9770   46.9920 C.ar  308  TYR308     -0.0009
      9  CE1        8.7080   14.2770   48.0930 C.ar  308  TYR308      0.0417
     10  CE2       10.2390   14.2230   46.2570 C.ar  308  TYR308      0.0417
     11  CZ         9.0220   13.8760   46.8170 C.ar  308  TYR308      0.1957
     12  OH         8.1150   13.1060   46.1220 O.3   308  TYR308     -0.2866
     13  N          8.8930   11.5550   44.3920 N.3   314  GLY314     -0.1210
     14  CA        10.0100   11.5060   43.4190 C.3   314  GLY314      0.1956
     15  C          9.9680   12.6460   42.4160 C.2   314  GLY314      0.2612
     16  O          8.9800   12.8450   41.7160 O.2   314  GLY314     -0.2717
     17  N         11.0670   13.3850   42.3600 N.am  315  VAL315     -0.1965
     18  CA        11.2590   14.5160   41.4750 C.3   315  VAL315      0.1727
     19  C         11.2410   13.8840   40.0920 C.2   315  VAL315      0.2616
     20  O         12.1510   13.1320   39.7310 O.2   315  VAL315     -0.2715
     21  CB        12.6290   15.1740   41.8000 C.3   315  VAL315      0.0290
     22  CG1       13.3330   15.6700   40.5590 C.3   315  VAL315      0.0023
     23  CG2       12.4300   16.3050   42.7810 C.3   315  VAL315      0.0023
     24  N         10.1820   14.1550   39.3370 N.am  316  ARG316     -0.1963
     25  CA        10.0190   13.5830   38.0070 C.3   316  ARG316      0.1729
     26  C         11.0960   13.8980   36.9700 C.2   316  ARG316      0.2617
     27  O         10.8800   13.7530   35.7600 O.2   316  ARG316     -0.2715
     28  CB         8.6100   13.8580   37.4930 C.3   316  ARG316      0.0348
     29  CG         7.5460   13.0300   38.2200 C.3   316  ARG316      0.0492
     30  CD         7.3230   11.6710   37.5280 C.3   316  ARG316      0.2205
     31  NE         6.5540   10.7290   38.3440 N.pl3 316  ARG316     -0.0865
     32  CZ         5.2300   10.5830   38.2970 C.cat 316  ARG316      0.5346
     33  NH1        4.4950   11.3060   37.4640 N.pl3 316  ARG316      0.1354
     34  NH2        4.6290    9.7300   39.1100 N.pl3 316  ARG316      0.1354
     35  N         12.2300   14.4160   37.4400 N.am  317  GLY317     -0.1941
     36  CA        13.3390   14.6930   36.5520 C.3   317  GLY317      0.1998
     37  C         13.7840   13.3300   36.0520 C.2   317  GLY317      0.2480
     38  O         13.3630   12.3180   36.6240 O.2   317  GLY317     -0.2729
     39  N         14.6220   13.2550   35.0030 N.am  318  PRO318     -0.2726
     40  CA        15.1220   12.0070   34.4110 C.3   318  PRO318      0.1402
     41  C         15.9380   11.0360   35.2870 C.2   318  PRO318      0.2269
     42  O         15.6220   10.8540   36.4820 O.2   318  PRO318     -0.2865
     43  CB        15.9000   12.5140   33.1900 C.3   318  PRO318      0.0296
     44  CG        16.3980   13.8310   33.6380 C.3   318  PRO318      0.0237
     45  CD        15.1960   14.4170   34.3100 C.3   318  PRO318      0.0939
@<TRIPOS>BOND
     1    43    44    1
     2    43    40    1
     3    44    45    1
     4    45    39    1
     5    40    39    1
     6    40    41    1
     7    39    37   am
     8    41    42    2
     9    27    26    2
    10    37    36    1
    11    37    38    2
    12    36    35    1
    13    26    35   am
    14    26    25    1
    15    33    32    1
    16    28    25    1
    17    28    29    1
    18    30    29    1
    19    30    31    1
    20    25    24    1
    21    32    31    2
    22    32    34    1
    23    24    19   am
    24    20    19    2
    25    19    18    1
    26    22    21    1
    27    18    21    1
    28    18    17    1
    29    16    15    2
    30    21    23    1
    31    17    15   am
    32    15    14    1
    33    14    13    1
    34    12    11    1
    35    10    11   ar
    36    10     8   ar
    37    11     9   ar
    38     8     6   ar
    39     9     7   ar
    40     6     7   ar
    41     6     5    1
    42     5     2    1
    43     3     2    1
    44     3     4    2
    45     2     1    1
