@<TRIPOS>MOLECULE
1ycp_TYR_N_1.pdb
 12 12 0 0 0
SMALL
GASTEIGER

@<TRIPOS>ATOM
      1  N        -11.0420   69.0560   51.4840 N.3   308  TYR308     -0.1241
      2  CA       -10.4350   69.8330   50.3670 C.3   308  TYR308      0.1605
      3  C        -11.1630   71.1880   50.3240 C.2   308  TYR308      0.2264
      4  O        -10.6450   72.1430   50.9320 O.2   308  TYR308     -0.2867
      5  CB       -10.6090   69.0690   49.0480 C.3   308  TYR308      0.0534
      6  CG        -9.6590   69.4860   47.9680 C.ar  308  TYR308     -0.0201
      7  CD1       -9.9370   70.5870   47.1700 C.ar  308  TYR308     -0.0009
      8  CD2       -8.4530   68.8180   47.7730 C.ar  308  TYR308     -0.0009
      9  CE1       -9.0340   71.0250   46.2140 C.ar  308  TYR308      0.0417
     10  CE2       -7.5340   69.2470   46.8090 C.ar  308  TYR308      0.0417
     11  CZ        -7.8380   70.3550   46.0420 C.ar  308  TYR308      0.1957
     12  OH        -6.9640   70.8450   45.1090 O.3   308  TYR308     -0.2866
@<TRIPOS>BOND
     1    12    11    1
     2    11     9   ar
     3    11    10   ar
     4     9     7   ar
     5    10     8   ar
     6     7     6   ar
     7     8     6   ar
     8     6     5    1
     9     5     2    1
    10     3     2    1
    11     3     4    2
    12     2     1    1
