@<TRIPOS>MOLECULE
1yda_AZM_A_1.pdb
 13 13 0 0 0
SMALL
GASTEIGER

@<TRIPOS>ATOM
      1  C1        -5.1930    2.4560   16.1520 C.ar  264  AZM264      0.2590
      2  C2        -4.6390    4.3570   15.0410 C.ar  264  AZM264      0.2093
      3  C3        -5.4520    6.0000   13.6430 C.2   264  AZM264      0.2478
      4  C4        -5.1420    7.1880   12.7350 C.3   264  AZM264      0.0969
      5  N1        -4.6350   -0.1330   16.8470 N.3   264  AZM264      0.0413
      6  N2        -3.5780    3.8380   15.5520 N.ar  264  AZM264     -0.1222
      7  N3        -3.9150    2.6890   16.2150 N.ar  264  AZM264     -0.1189
      8  N4        -4.4210    5.3940   14.2730 N.am  264  AZM264     -0.1528
      9  O1        -5.8720    1.3760   18.2830 O.2   264  AZM264     -0.1483
     10  O2        -7.2330    0.5160   16.8020 O.2   264  AZM264     -0.1483
     11  O3        -6.6270    5.6470   13.7460 O.2   264  AZM264     -0.2729
     12  S1        -5.8120    0.9610   16.8820 S.O2  264  AZM264      0.1178
     13  S2        -6.1380    3.5870   15.3270 S.2   264  AZM264     -0.0087
@<TRIPOS>BOND
     1     4     3    1
     2     3    11    2
     3     3     8   am
     4     8     2    1
     5     2    13   ar
     6     2     6   ar
     7    13     1   ar
     8     6     7   ar
     9     1     7   ar
    10     1    12    1
    11    10    12    2
    12     5    12    1
    13    12     9    2
