@<TRIPOS>MOLECULE
1ydb_AZM_A_1.pdb
 13 13 0 0 0
SMALL
GASTEIGER

@<TRIPOS>ATOM
      1  C1        -5.0120    2.2110   16.1310 C.ar  264  AZM264      0.2590
      2  C2        -4.4160    4.0180   14.9440 C.ar  264  AZM264      0.2093
      3  C3        -5.1680    5.7640   13.6410 C.2   264  AZM264      0.2478
      4  C4        -4.6670    6.9100   12.7870 C.3   264  AZM264      0.0969
      5  N1        -5.0980   -0.4120   16.2950 N.3   264  AZM264      0.0413
      6  N2        -3.3660    3.4000   15.3680 N.ar  264  AZM264     -0.1222
      7  N3        -3.7160    2.3010   16.0840 N.ar  264  AZM264     -0.1189
      8  N4        -4.1580    5.0620   14.1790 N.am  264  AZM264     -0.1528
      9  O1        -5.4430    0.9180   18.4030 O.2   264  AZM264     -0.1483
     10  O2        -7.2490    0.9930   16.8390 O.2   264  AZM264     -0.1483
     11  O3        -6.3740    5.5610   13.7610 O.2   264  AZM264     -0.2729
     12  S1        -5.7750    0.8600   16.9770 S.O2  264  AZM264      0.1178
     13  S2        -5.9310    3.4180   15.3460 S.2   264  AZM264     -0.0087
@<TRIPOS>BOND
     1     4     3    1
     2     3    11    2
     3     3     8   am
     4     8     2    1
     5     2    13   ar
     6     2     6   ar
     7    13     1   ar
     8     6     7   ar
     9     7     1   ar
    10     1    12    1
    11     5    12    1
    12    10    12    2
    13    12     9    2
