@<TRIPOS>MOLECULE
1ydd_AZM_A_1.pdb
 13 13 0 0 0
SMALL
GASTEIGER

@<TRIPOS>ATOM
      1  C1        -5.4570    2.0850   15.5410 C.ar  264  AZM264      0.2590
      2  C2        -4.9860    3.7530   14.0580 C.ar  264  AZM264      0.2093
      3  C3        -5.6310    5.9630   13.4220 C.2   264  AZM264      0.2478
      4  C4        -5.2880    7.0470   12.4330 C.3   264  AZM264      0.0969
      5  N1        -5.8790   -0.4590   16.1770 N.3   264  AZM264      0.0413
      6  N2        -4.2470    2.7520   13.8460 N.ar  264  AZM264     -0.1222
      7  N3        -4.4860    1.7510   14.7640 N.ar  264  AZM264     -0.1189
      8  N4        -4.8680    4.8790   13.2810 N.am  264  AZM264     -0.1528
      9  O1        -5.0400    1.0010   17.8730 O.2   264  AZM264     -0.1483
     10  O2        -7.4050    1.3340   16.9540 O.2   264  AZM264     -0.1483
     11  O3        -6.4680    6.0050   14.3400 O.2   264  AZM264     -0.2729
     12  S1        -6.0020    0.9590   16.8130 S.O2  264  AZM264      0.1178
     13  S2        -6.1280    3.6700   15.3290 S.2   264  AZM264     -0.0087
@<TRIPOS>BOND
     1     4     3    1
     2     8     3   am
     3     8     2    1
     4     3    11    2
     5     6     2   ar
     6     6     7   ar
     7     2    13   ar
     8     7     1   ar
     9    13     1   ar
    10     1    12    1
    11     5    12    1
    12    12    10    2
    13    12     9    2
