@<TRIPOS>MOLECULE
1ydk_GTX_A_1.pdb
 26 25 0 0 0
SMALL
GASTEIGER

@<TRIPOS>ATOM
      1  N1        25.8140   24.1410   13.1200 N.3   5100  GTX5100    -0.1208
      2  CA1       26.6160   25.2300   12.5920 C.3   5100  GTX5100     0.1948
      3  C1        27.1920   24.8350   11.2590 C.2   5100  GTX5100     0.3819
      4  O11       27.5250   25.7060   10.4230 O.co2 5100  GTX5100    -0.2441
      5  O12       27.3500   23.6320   10.9700 O.co2 5100  GTX5100    -0.2441
      6  CB1       27.7430   25.5880   13.5610 C.3   5100  GTX5100     0.0402
      7  CG1       28.3650   26.9360   13.1990 C.3   5100  GTX5100     0.0889
      8  CD1       29.4220   27.3370   14.2080 C.2   5100  GTX5100     0.2418
      9  OE1       29.4730   26.7140   15.4620 O.2   5100  GTX5100    -0.2733
     10  N2        30.2640   28.3060   13.8560 N.am  5100  GTX5100    -0.1969
     11  CA2       31.2080   28.8780   14.8040 C.3   5100  GTX5100     0.1834
     12  C2        30.8970   30.3270   15.0190 C.2   5100  GTX5100     0.2626
     13  O2        30.6400   31.1440   13.9020 O.2   5100  GTX5100    -0.2714
     14  CB2       32.6350   28.8050   14.2580 C.3   5100  GTX5100     0.0886
     15  SG2       33.1360   27.1560   13.7270 S.3   5100  GTX5100    -0.1379
     16  C1S       33.8320   26.7590   15.3520 C.3   5100  GTX5100     0.0576
     17  C2S       35.1720   26.0400   15.2400 C.3   5100  GTX5100     0.0116
     18  C3S       35.0020   24.5240   15.2500 C.3   5100  GTX5100     0.0009
     19  C4S       36.0700   23.8270   16.0930 C.3   5100  GTX5100     0.0000
     20  C5S       37.4510   23.8420   15.4450 C.3   5100  GTX5100     0.0000
     21  C6S       38.5440   23.7660   16.5110 C.3   5100  GTX5100     0.0000
     22  N3        30.9010   30.7590   16.2810 N.am  5100  GTX5100    -0.1917
     23  CA3       30.4070   32.0700   16.6610 C.3   5100  GTX5100     0.2285
     24  C3        29.1180   32.0270   17.4520 C.2   5100  GTX5100     0.3865
     25  O31       28.6510   33.0890   17.9240 O.co2 5100  GTX5100    -0.2437
     26  O32       28.4980   30.9540   17.6520 O.co2 5100  GTX5100    -0.2437
@<TRIPOS>BOND
     1     4     3   ar
     2     5     3   ar
     3     3     2    1
     4     2     1    1
     5     2     6    1
     6     7     6    1
     7     7     8    1
     8    15    14    1
     9    15    16    1
    10    10     8   am
    11    10    11    1
    12    13    12    2
    13     8     9    2
    14    14    11    1
    15    11    12    1
    16    12    22   am
    17    17    18    1
    18    17    16    1
    19    18    19    1
    20    20    19    1
    21    20    21    1
    22    22    23    1
    23    23    24    1
    24    24    26   ar
    25    24    25   ar
