@<TRIPOS>MOLECULE
1ydr_IQP_E_1.pdb
 20 22 0 0 0
SMALL
GASTEIGER

@<TRIPOS>ATOM
      1  C1         6.9220    9.9070    3.2590 C.ar  351  IQP351      0.1223
      2  C2         7.2230    9.9710    1.8620 C.ar  351  IQP351      0.0199
      3  C3         6.2060   10.0250    0.8770 C.ar  351  IQP351      0.0014
      4  C4         4.8490   10.0170    1.2990 C.ar  351  IQP351      0.0016
      5  C5         4.5100    9.9570    2.6830 C.ar  351  IQP351      0.0205
      6  C6         3.1660    9.9490    3.1070 C.ar  351  IQP351      0.0989
      7  N7         2.8850    9.8900    4.4240 N.ar  351  IQP351     -0.2423
      8  C8         3.8100    9.8370    5.4060 C.ar  351  IQP351      0.0989
      9  C9         5.1500    9.8420    5.0600 C.ar  351  IQP351      0.0220
     10  C10        5.5440    9.9020    3.6810 C.ar  351  IQP351      0.0217
     11  S          8.2560    9.8400    4.4310 S.O2  351  IQP351      0.0633
     12  O1         7.8680    8.9110    5.4940 O.2   351  IQP351     -0.1528
     13  O2         8.4870   11.2270    4.7360 O.2   351  IQP351     -0.1528
     14  N1'        9.4280    9.1390    3.5960 N.3   351  IQP351     -0.1540
     15  C2'       10.7840    9.7940    3.7670 C.3   351  IQP351      0.0970
     16  CM2       11.2730    9.6590    5.2290 C.3   351  IQP351      0.0207
     17  C3'       11.8380    9.0210    2.9300 C.3   351  IQP351      0.1064
     18  N4'       11.6980    7.5310    3.1900 N.3   351  IQP351     -0.2150
     19  C5'       10.3790    6.9420    2.8730 C.3   351  IQP351      0.1078
     20  C6'        9.3930    7.6540    3.8060 C.3   351  IQP351      0.1146
@<TRIPOS>BOND
     1     3     4   ar
     2     3     2   ar
     3     4     5   ar
     4     2     1   ar
     5     5     6   ar
     6     5    10   ar
     7    19    18    1
     8    19    20    1
     9    17    18    1
    10    17    15    1
    11     6     7   ar
    12     1    10   ar
    13     1    11    1
    14    14    15    1
    15    14    20    1
    16    14    11    1
    17    10     9   ar
    18    15    16    1
    19     7     8   ar
    20    11    13    2
    21    11    12    2
    22     9     8   ar
