@<TRIPOS>MOLECULE
1yds_IQS_E_1.pdb
 18 19 0 0 0
SMALL
GASTEIGER

@<TRIPOS>ATOM
      1  C1         6.9860   10.1780    2.9890 C.ar  351  IQS351      0.1236
      2  C2         7.1340   10.1760    1.5900 C.ar  351  IQS351      0.0200
      3  C3         6.0160   10.0210    0.7520 C.ar  351  IQS351      0.0014
      4  C4         4.7310    9.8660    1.2740 C.ar  351  IQS351      0.0016
      5  C5         4.5640    9.8650    2.6710 C.ar  351  IQS351      0.0205
      6  C6         3.2910    9.7100    3.2190 C.ar  351  IQS351      0.0989
      7  N7         3.1280    9.7070    4.5750 N.ar  351  IQS351     -0.2423
      8  C8         4.1840    9.8510    5.3990 C.ar  351  IQS351      0.0989
      9  C9         5.4830   10.0090    4.9180 C.ar  351  IQS351      0.0220
     10  C10        5.6870   10.0190    3.5340 C.ar  351  IQS351      0.0217
     11  S          8.4470   10.3740    3.9930 S.O2  351  IQS351      0.0769
     12  O1         8.1500   11.4220    4.9350 O.2   351  IQS351     -0.1516
     13  O2         9.5850   10.4810    3.1000 O.2   351  IQS351     -0.1516
     14  N1'        8.4810    9.0070    4.8510 N.3   351  IQS351     -0.0763
     15  C2'        9.0040    7.7420    4.3380 C.3   351  IQS351      0.1342
     16  C3'        9.9790    7.9390    3.1780 C.3   351  IQS351      0.1095
     17  N4'       11.1750    7.0990    3.3810 N.3   351  IQS351     -0.2149
     18  C5'       12.3100    7.9960    3.6460 C.3   351  IQS351      0.1075
@<TRIPOS>BOND
     1     3     4   ar
     2     3     2   ar
     3     4     5   ar
     4     2     1   ar
     5     5     6   ar
     6     5    10   ar
     7     1    10   ar
     8     1    11    1
     9    13    11    2
    10    16    17    1
    11    16    15    1
    12     6     7   ar
    13    17    18    1
    14    10     9   ar
    15    11    14    1
    16    11    12    2
    17    15    14    1
    18     7     8   ar
    19     9     8   ar
