@<TRIPOS>MOLECULE
1ydt_IQB_E_1.pdb
 27 29 0 0 0
SMALL
GASTEIGER

@<TRIPOS>ATOM
      1  C1         6.9040   10.2450    2.8280 C.ar  351  IQB351      0.1236
      2  C2         7.0150   10.2910    1.4300 C.ar  351  IQB351      0.0200
      3  C3         5.8710   10.2380    0.6260 C.ar  351  IQB351      0.0014
      4  C4         4.6000   10.1420    1.2050 C.ar  351  IQB351      0.0016
      5  C5         4.4810   10.0960    2.5980 C.ar  351  IQB351      0.0205
      6  C6         3.2200   10.0000    3.1920 C.ar  351  IQB351      0.0989
      7  N7         3.1000    9.9540    4.5420 N.ar  351  IQB351     -0.2423
      8  C8         4.1820   10.0000    5.3550 C.ar  351  IQB351      0.0989
      9  C9         5.4670   10.0980    4.8070 C.ar  351  IQB351      0.0220
     10  C10        5.6280   10.1480    3.4140 C.ar  351  IQB351      0.0217
     11  S          8.3850   10.3200    3.8070 S.O2  351  IQB351      0.0769
     12  O1         8.1680   11.2390    4.8980 O.2   351  IQB351     -0.1516
     13  O2         9.5150   10.5330    2.9260 O.2   351  IQB351     -0.1516
     14  N1'        8.4220    8.8250    4.4030 N.3   351  IQB351     -0.0763
     15  C2'        8.8740    7.7060    3.5960 C.3   351  IQB351      0.1342
     16  C3'       10.1930    8.0520    2.8860 C.3   351  IQB351      0.1099
     17  N4'       11.2740    7.1790    3.3600 N.3   351  IQB351     -0.2117
     18  C5'       12.4220    7.9960    3.7960 C.3   351  IQB351      0.1148
     19  C6'       12.8320    8.9590    2.7140 C.2   351  IQB351     -0.0074
     20  C7'       12.8310   10.2810    2.9320 C.2   351  IQB351     -0.0031
     21  C1'       13.2360   11.2610    1.8630 C.ar  351  IQB351     -0.0002
     22  C2B       14.0680   10.8820    0.7990 C.ar  351  IQB351      0.0005
     23  C3B       14.4270   11.8150   -0.1830 C.ar  351  IQB351      0.0067
     24  C4'       13.9540   13.1310   -0.1000 C.ar  351  IQB351      0.0346
     25 BR4'       14.4220   14.3880   -1.3880 Br    351  IQB351     -0.0490
     26  C5B       13.1280   13.5110    0.9560 C.ar  351  IQB351      0.0067
     27  C6B       12.7720   12.5760    1.9320 C.ar  351  IQB351      0.0005
@<TRIPOS>BOND
     1    25    24    1
     2    23    24   ar
     3    23    22   ar
     4    24    26   ar
     5     3     4   ar
     6     3     2   ar
     7    22    21   ar
     8    26    27   ar
     9     4     5   ar
    10     2     1   ar
    11    21    27   ar
    12    21    20    1
    13     5     6   ar
    14     5    10   ar
    15    19    20    2
    16    19    18    1
    17     1    10   ar
    18     1    11    1
    19    16    17    1
    20    16    15    1
    21    13    11    2
    22     6     7   ar
    23    17    18    1
    24    10     9   ar
    25    15    14    1
    26    11    14    1
    27    11    12    2
    28     7     8   ar
    29     9     8   ar
