@<TRIPOS>MOLECULE
1ydz_HEM_A_1.pdb
 43 50 0 0 0
SMALL
GASTEIGER

@<TRIPOS>ATOM
      1 FE          9.0540   40.8060  -13.9110 Fe    142  HEM142      0.0000
      2  CHA        7.2090   43.2900  -15.3060 C.2   142  HEM142      0.0000
      3  CHB        7.0750   40.8510  -11.1560 C.2   142  HEM142      0.0000
      4  CHC       11.0050   38.3720  -12.4780 C.2   142  HEM142      0.0000
      5  CHD       11.4090   41.1520  -16.4460 C.2   142  HEM142      0.0000
      6  NA         7.4440   41.8570  -13.3400 N.2   142  HEM142      0.0000
      7  C1A        6.8040   42.8540  -14.0580 C.2   142  HEM142      0.0000
      8  C2A        5.6680   43.3540  -13.3040 C.2   142  HEM142      0.0000
      9  C3A        5.6500   42.6770  -12.1490 C.2   142  HEM142      0.0000
     10  C4A        6.7440   41.7330  -12.1610 C.2   142  HEM142      0.0000
     11  CMA        4.6580   42.8080  -10.9670 C.3   142  HEM142      0.0000
     12  CAA        4.7550   44.4950  -13.7790 C.2   142  HEM142      0.0000
     13  CBA        3.4410   44.3240  -14.4940 C.2   142  HEM142      0.0000
     14  CGA        2.5920   45.5270  -14.8250 C.2   142  HEM142      0.0000
     15  O1A        1.4640   45.6140  -14.2630 O.co2 142  HEM142      0.0000
     16  O2A        2.9950   46.3940  -15.6470 O.co2 142  HEM142      0.0000
     17  NB         9.0610   39.8290  -12.1530 N.ar  142  HEM142      0.0000
     18  C1B        8.1350   39.9640  -11.1330 C.ar  142  HEM142      0.0000
     19  C2B        8.4380   39.0120  -10.0760 C.ar  142  HEM142      0.0000
     20  C3B        9.5120   38.3210  -10.4570 C.ar  142  HEM142      0.0000
     21  C4B        9.9280   38.8200  -11.7440 C.ar  142  HEM142      0.0000
     22  CMB        7.6050   38.9040   -8.7790 C.3   142  HEM142      0.0000
     23  CAB       10.2570   37.2170   -9.7030 C.2   142  HEM142      0.0000
     24  CBB       10.5180   37.3680   -8.3950 C.2   142  HEM142      0.0000
     25  NC        10.8090   39.9190  -14.3940 N.2   142  HEM142      0.0000
     26  C1C       11.4790   38.9750  -13.6330 C.2   142  HEM142      0.0000
     27  C2C       12.7690   38.7060  -14.2350 C.2   142  HEM142      0.0000
     28  C3C       12.8770   39.4620  -15.3300 C.2   142  HEM142      0.0000
     29  C4C       11.6520   40.2360  -15.4450 C.2   142  HEM142      0.0000
     30  CMC       13.7620   37.6900  -13.6330 C.3   142  HEM142      0.0000
     31  CAC       14.0380   39.5830  -16.3390 C.2   142  HEM142      0.0000
     32  CBC       15.3220   39.4680  -15.9700 C.2   142  HEM142      0.0000
     33  ND         9.2490   41.9660  -15.5500 N.ar  142  HEM142      0.0000
     34  C1D       10.3180   41.9970  -16.4360 C.ar  142  HEM142      0.0000
     35  C2D       10.1090   43.0750  -17.3910 C.ar  142  HEM142      0.0000
     36  C3D        8.9440   43.6520  -17.0900 C.ar  142  HEM142      0.0000
     37  C4D        8.3930   42.9820  -15.9380 C.ar  142  HEM142      0.0000
     38  CMD       11.1250   43.3820  -18.5100 C.3   142  HEM142      0.0000
     39  CAD        8.2310   44.8560  -17.7590 C.2   142  HEM142      0.0000
     40  CBD        8.7570   46.2320  -17.3740 C.2   142  HEM142      0.0000
     41  CGD        8.2680   47.4260  -18.1340 C.2   142  HEM142      0.0000
     42  O1D        7.6130   48.2630  -17.4470 O.co2 142  HEM142      0.0000
     43  O2D        8.5590   47.5080  -19.3550 O.co2 142  HEM142      0.0000
@<TRIPOS>BOND
     1    43    41   ar
     2    38    35    1
     3    41    42   ar
     4    41    40    1
     5    39    40    2
     6    39    36    1
     7    35    36   ar
     8    35    34   ar
     9    36    37   ar
    10     5    34    2
    11     5    29    1
    12    34    33   ar
    13    31    32    2
    14    31    28    1
    15    37    33   ar
    16    37     2    2
    17    16    14   ar
    18    33     1    1
    19    29    28    1
    20    29    25    2
    21    28    27    2
    22     2     7    1
    23    14    13    1
    24    14    15   ar
    25    13    12    2
    26    25     1    1
    27    25    26    1
    28    27    26    1
    29    27    30    1
    30     7     6    2
    31     7     8    1
    32     1     6    1
    33     1    17    1
    34    12     8    1
    35    26     4    2
    36     6    10    1
    37     8     9    2
    38     4    21    1
    39    10     9    1
    40    10     3    2
    41    17    21   ar
    42    17    18   ar
    43     9    11    1
    44    21    20   ar
    45     3    18    1
    46    18    19   ar
    47    20    19   ar
    48    20    23    1
    49    19    22    1
    50    23    24    2
