@<TRIPOS>MOLECULE
1ye0_HEM_A_1.pdb
 43 50 0 0 0
SMALL
GASTEIGER

@<TRIPOS>ATOM
      1 FE          8.8280   40.9330  -14.6470 Fe    142  HEM142      0.0000
      2  CHA        6.8930   43.4440  -16.0480 C.2   142  HEM142      0.0000
      3  CHB        6.6380   40.8460  -12.0420 C.2   142  HEM142      0.0000
      4  CHC       10.7510   38.5210  -13.0470 C.2   142  HEM142      0.0000
      5  CHD       11.2730   41.4370  -16.8340 C.2   142  HEM142      0.0000
      6  NA         7.0620   41.9280  -14.1790 N.2   142  HEM142      0.0000
      7  C1A        6.4720   42.9870  -14.8440 C.2   142  HEM142      0.0000
      8  C2A        5.3710   43.5210  -14.0770 C.2   142  HEM142      0.0000
      9  C3A        5.3280   42.7990  -12.9670 C.2   142  HEM142      0.0000
     10  C4A        6.3720   41.7920  -13.0100 C.2   142  HEM142      0.0000
     11  CMA        4.3250   42.9840  -11.8190 C.3   142  HEM142      0.0000
     12  CAA        4.4400   44.7140  -14.4690 C.3   142  HEM142      0.0000
     13  CBA        3.2950   44.2720  -15.3840 C.3   142  HEM142      0.0000
     14  CGA        2.4840   45.4240  -16.0140 C.2   142  HEM142      0.0000
     15  O1A        1.2810   45.5930  -15.6520 O.co2 142  HEM142      0.0000
     16  O2A        2.9820   46.1780  -16.9090 O.co2 142  HEM142      0.0000
     17  NB         8.7170   39.8950  -12.8940 N.ar  142  HEM142      0.0000
     18  C1B        7.7140   40.0090  -11.9700 C.ar  142  HEM142      0.0000
     19  C2B        7.9410   39.0470  -10.9170 C.ar  142  HEM142      0.0000
     20  C3B        9.0870   38.4080  -11.2100 C.ar  142  HEM142      0.0000
     21  C4B        9.5880   38.9270  -12.4420 C.ar  142  HEM142      0.0000
     22  CMB        7.0220   38.8540   -9.6650 C.3   142  HEM142      0.0000
     23  CAB        9.8040   37.2920  -10.4290 C.2   142  HEM142      0.0000
     24  CBB        9.6270   37.1470   -9.1240 C.2   142  HEM142      0.0000
     25  NC        10.6320   40.1690  -14.8470 N.2   142  HEM142      0.0000
     26  C1C       11.2420   39.1150  -14.1770 C.2   142  HEM142      0.0000
     27  C2C       12.5630   38.9190  -14.7130 C.2   142  HEM142      0.0000
     28  C3C       12.5470   39.5240  -15.8650 C.2   142  HEM142      0.0000
     29  C4C       11.4500   40.4560  -15.9000 C.2   142  HEM142      0.0000
     30  CMC       13.3850   37.6480  -14.5090 C.3   142  HEM142      0.0000
     31  CAC       13.6850   39.4380  -16.8780 C.2   142  HEM142      0.0000
     32  CBC       14.8450   39.9560  -16.5500 C.2   142  HEM142      0.0000
     33  ND         9.0580   42.2720  -16.1500 N.ar  142  HEM142      0.0000
     34  C1D       10.1680   42.2510  -16.9880 C.ar  142  HEM142      0.0000
     35  C2D        9.9740   43.2110  -18.0760 C.ar  142  HEM142      0.0000
     36  C3D        8.6110   43.8300  -17.8320 C.ar  142  HEM142      0.0000
     37  C4D        8.1140   43.1850  -16.6220 C.ar  142  HEM142      0.0000
     38  CMD       10.9050   43.5810  -19.2540 C.3   142  HEM142      0.0000
     39  CAD        7.9630   44.9280  -18.7030 C.3   142  HEM142      0.0000
     40  CBD        8.3620   46.2800  -18.1130 C.3   142  HEM142      0.0000
     41  CGD        8.0560   47.4640  -19.0150 C.2   142  HEM142      0.0000
     42  O1D        7.5670   48.4740  -18.4400 O.co2 142  HEM142      0.0000
     43  O2D        8.2930   47.4060  -20.2700 O.co2 142  HEM142      0.0000
@<TRIPOS>BOND
     1    43    41   ar
     2    38    35    1
     3    41    42   ar
     4    41    40    1
     5    39    40    1
     6    39    36    1
     7    35    36   ar
     8    35    34   ar
     9    36    37   ar
    10    34     5    2
    11    34    33   ar
    12    16    14   ar
    13    31    32    2
    14    31    28    1
    15     5    29    1
    16    37    33   ar
    17    37     2    2
    18    33     1    1
    19     2     7    1
    20    14    15   ar
    21    14    13    1
    22    29    28    1
    23    29    25    2
    24    28    27    2
    25    13    12    1
    26    25     1    1
    27    25    26    1
    28     7     6    2
    29     7     8    1
    30    27    30    1
    31    27    26    1
    32     1     6    1
    33     1    17    1
    34    12     8    1
    35     6    10    1
    36    26     4    2
    37     8     9    2
    38     4    21    1
    39    10     9    1
    40    10     3    2
    41     9    11    1
    42    17    21   ar
    43    17    18   ar
    44    21    20   ar
    45     3    18    1
    46    18    19   ar
    47    20    19   ar
    48    20    23    1
    49    19    22    1
    50    23    24    2
