@<TRIPOS>MOLECULE
1ye1_HEM_A_1.pdb
 43 50 0 0 0
SMALL
GASTEIGER

@<TRIPOS>ATOM
      1 FE          8.4560   40.6560  -14.4600 Fe    142  HEM142      0.0000
      2  CHA        6.9000   43.4610  -15.6710 C.2   142  HEM142      0.0000
      3  CHB        6.3910   40.7740  -11.6490 C.2   142  HEM142      0.0000
      4  CHC       10.4530   38.3100  -12.8260 C.2   142  HEM142      0.0000
      5  CHD       11.0950   41.2520  -16.6930 C.2   142  HEM142      0.0000
      6  NA         6.9710   41.8580  -13.7940 N.2   142  HEM142      0.0000
      7  C1A        6.4670   42.9360  -14.4680 C.2   142  HEM142      0.0000
      8  C2A        5.3350   43.4440  -13.7470 C.2   142  HEM142      0.0000
      9  C3A        5.1590   42.7000  -12.6680 C.2   142  HEM142      0.0000
     10  C4A        6.1840   41.7070  -12.6560 C.2   142  HEM142      0.0000
     11  CMA        4.1130   42.8920  -11.5330 C.3   142  HEM142      0.0000
     12  CAA        4.5630   44.6550  -14.3150 C.3   142  HEM142      0.0000
     13  CBA        3.3090   44.2870  -15.1240 C.3   142  HEM142      0.0000
     14  CGA        2.4430   45.5260  -15.3180 C.2   142  HEM142      0.0000
     15  O1A        1.4450   45.5950  -14.5600 O.co2 142  HEM142      0.0000
     16  O2A        2.8550   46.3610  -16.1670 O.co2 142  HEM142      0.0000
     17  NB         8.4600   39.7640  -12.6110 N.ar  142  HEM142      0.0000
     18  C1B        7.5180   39.9600  -11.6060 C.ar  142  HEM142      0.0000
     19  C2B        7.8130   39.0580  -10.5160 C.ar  142  HEM142      0.0000
     20  C3B        8.9230   38.3770  -10.8340 C.ar  142  HEM142      0.0000
     21  C4B        9.3470   38.8130  -12.1430 C.ar  142  HEM142      0.0000
     22  CMB        6.9450   38.9720   -9.2610 C.3   142  HEM142      0.0000
     23  CAB        9.6980   37.3290   -9.9970 C.2   142  HEM142      0.0000
     24  CBB        9.0360   36.6010   -9.1070 C.2   142  HEM142      0.0000
     25  NC        10.3420   39.9150  -14.7380 N.2   142  HEM142      0.0000
     26  C1C       10.9670   38.9340  -13.9750 C.2   142  HEM142      0.0000
     27  C2C       12.2980   38.7220  -14.4690 C.2   142  HEM142      0.0000
     28  C3C       12.4920   39.5530  -15.4980 C.2   142  HEM142      0.0000
     29  C4C       11.2710   40.3130  -15.6880 C.2   142  HEM142      0.0000
     30  CMC       13.2640   37.6850  -13.8650 C.3   142  HEM142      0.0000
     31  CAC       13.7350   39.7020  -16.3900 C.2   142  HEM142      0.0000
     32  CBC       14.9840   39.6300  -15.9220 C.2   142  HEM142      0.0000
     33  ND         8.9220   42.0830  -15.8550 N.ar  142  HEM142      0.0000
     34  C1D        9.9910   42.0680  -16.7570 C.ar  142  HEM142      0.0000
     35  C2D        9.7940   43.1070  -17.7500 C.ar  142  HEM142      0.0000
     36  C3D        8.6400   43.7010  -17.4710 C.ar  142  HEM142      0.0000
     37  C4D        8.0950   43.0960  -16.2710 C.ar  142  HEM142      0.0000
     38  CMD       10.7980   43.4040  -18.8880 C.3   142  HEM142      0.0000
     39  CAD        7.9240   44.8930  -18.1670 C.3   142  HEM142      0.0000
     40  CBD        8.4180   46.2320  -17.6480 C.3   142  HEM142      0.0000
     41  CGD        7.8820   47.4860  -18.2510 C.2   142  HEM142      0.0000
     42  O1D        7.3740   48.3530  -17.4950 O.co2 142  HEM142      0.0000
     43  O2D        8.0040   47.5930  -19.4910 O.co2 142  HEM142      0.0000
@<TRIPOS>BOND
     1    43    41   ar
     2    38    35    1
     3    41    40    1
     4    41    42   ar
     5    39    40    1
     6    39    36    1
     7    35    36   ar
     8    35    34   ar
     9    36    37   ar
    10    34     5    2
    11    34    33   ar
    12     5    29    1
    13    31    32    2
    14    31    28    1
    15    37    33   ar
    16    37     2    2
    17    16    14   ar
    18    33     1    1
    19    29    28    1
    20    29    25    2
    21     2     7    1
    22    28    27    2
    23    14    13    1
    24    14    15   ar
    25    13    12    1
    26    25     1    1
    27    25    26    1
    28    27    26    1
    29    27    30    1
    30     7     6    2
    31     7     8    1
    32     1     6    1
    33     1    17    1
    34    12     8    1
    35    26     4    2
    36     6    10    1
    37     8     9    2
    38     4    21    1
    39     9    10    1
    40     9    11    1
    41    10     3    2
    42    17    21   ar
    43    17    18   ar
    44    21    20   ar
    45     3    18    1
    46    18    19   ar
    47    20    19   ar
    48    20    23    1
    49    19    22    1
    50    23    24    2
