@<TRIPOS>MOLECULE
1ye2_HEM_A_1.pdb
 43 50 0 0 0
SMALL
GASTEIGER

@<TRIPOS>ATOM
      1 FE          8.2870   40.8930  -14.7160 Fe    142  HEM142      0.0000
      2  CHA        6.5050   43.4880  -16.1560 C.2   142  HEM142      0.0000
      3  CHB        6.1270   40.9480  -12.1180 C.2   142  HEM142      0.0000
      4  CHC       10.1700   38.4670  -13.1390 C.2   142  HEM142      0.0000
      5  CHD       10.7500   41.3100  -16.9870 C.2   142  HEM142      0.0000
      6  NA         6.5990   42.0220  -14.2550 N.2   142  HEM142      0.0000
      7  C1A        6.0500   43.0280  -14.9730 C.2   142  HEM142      0.0000
      8  C2A        4.9110   43.5490  -14.2590 C.2   142  HEM142      0.0000
      9  C3A        4.7910   42.8570  -13.1200 C.2   142  HEM142      0.0000
     10  C4A        5.8780   41.8750  -13.1040 C.2   142  HEM142      0.0000
     11  CMA        3.6980   43.0670  -12.0410 C.3   142  HEM142      0.0000
     12  CAA        4.0240   44.7120  -14.7420 C.3   142  HEM142      0.0000
     13  CBA        2.8200   44.2500  -15.5400 C.3   142  HEM142      0.0000
     14  CGA        1.9040   45.4480  -15.7010 C.2   142  HEM142      0.0000
     15  O1A        0.8290   45.4410  -15.0590 O.co2 142  HEM142      0.0000
     16  O2A        2.2490   46.4060  -16.4400 O.co2 142  HEM142      0.0000
     17  NB         8.1790   39.8850  -12.9890 N.ar  142  HEM142      0.0000
     18  C1B        7.1610   40.0300  -12.0770 C.ar  142  HEM142      0.0000
     19  C2B        7.3190   39.0220  -11.0750 C.ar  142  HEM142      0.0000
     20  C3B        8.4370   38.3640  -11.3260 C.ar  142  HEM142      0.0000
     21  C4B        8.9870   38.8700  -12.5630 C.ar  142  HEM142      0.0000
     22  CMB        6.4560   38.8420   -9.8200 C.3   142  HEM142      0.0000
     23  CAB        8.9880   37.1990  -10.5030 C.2   142  HEM142      0.0000
     24  CBB        9.3250   37.3060   -9.2330 C.2   142  HEM142      0.0000
     25  NC        10.1340   40.0230  -15.0020 N.2   142  HEM142      0.0000
     26  C1C       10.7220   39.0410  -14.2520 C.2   142  HEM142      0.0000
     27  C2C       11.9800   38.7120  -14.8850 C.2   142  HEM142      0.0000
     28  C3C       12.1150   39.5020  -15.9330 C.2   142  HEM142      0.0000
     29  C4C       10.9400   40.3310  -16.0440 C.2   142  HEM142      0.0000
     30  CMC       12.9360   37.6310  -14.4110 C.3   142  HEM142      0.0000
     31  CAC       13.2680   39.4950  -16.9230 C.2   142  HEM142      0.0000
     32  CBC       14.5230   39.5760  -16.4380 C.2   142  HEM142      0.0000
     33  ND         8.5820   42.1880  -16.2980 N.ar  142  HEM142      0.0000
     34  C1D        9.6890   42.1660  -17.1170 C.ar  142  HEM142      0.0000
     35  C2D        9.5650   43.1630  -18.1640 C.ar  142  HEM142      0.0000
     36  C3D        8.2380   43.8200  -17.9110 C.ar  142  HEM142      0.0000
     37  C4D        7.7090   43.1710  -16.7350 C.ar  142  HEM142      0.0000
     38  CMD       10.5390   43.4970  -19.3040 C.3   142  HEM142      0.0000
     39  CAD        7.6440   44.9960  -18.6980 C.3   142  HEM142      0.0000
     40  CBD        8.1250   46.2760  -18.0460 C.3   142  HEM142      0.0000
     41  CGD        7.6400   47.4790  -18.8450 C.2   142  HEM142      0.0000
     42  O1D        6.9970   48.4060  -18.2960 O.co2 142  HEM142      0.0000
     43  O2D        7.9200   47.5190  -20.0450 O.co2 142  HEM142      0.0000
@<TRIPOS>BOND
     1    43    41   ar
     2    38    35    1
     3    41    42   ar
     4    41    40    1
     5    39    40    1
     6    39    36    1
     7    35    36   ar
     8    35    34   ar
     9    36    37   ar
    10    34     5    2
    11    34    33   ar
    12     5    29    1
    13    31    32    2
    14    31    28    1
    15    37    33   ar
    16    37     2    2
    17    16    14   ar
    18    33     1    1
    19     2     7    1
    20    29    28    1
    21    29    25    2
    22    28    27    2
    23    14    13    1
    24    14    15   ar
    25    13    12    1
    26    25     1    1
    27    25    26    1
    28     7     8    1
    29     7     6    2
    30    27    30    1
    31    27    26    1
    32    12     8    1
    33     1     6    1
    34     1    17    1
    35     8     9    2
    36     6    10    1
    37    26     4    2
    38     4    21    1
    39     9    10    1
    40     9    11    1
    41    10     3    2
    42    17    21   ar
    43    17    18   ar
    44    21    20   ar
    45     3    18    1
    46    18    19   ar
    47    20    19   ar
    48    20    23    1
    49    19    22    1
    50    23    24    2
