@<TRIPOS>MOLECULE
1ye4_NAD_A_1.pdb
 44 48 0 0 0
SMALL
GASTEIGER

@<TRIPOS>ATOM
      1  PA       114.1780   11.0870    7.4690 P.3   800  NAD800      0.2189
      2  O1A      113.1770   11.6690    8.2710 O.3   800  NAD800     -0.4371
      3  O2A      114.4090   11.3520    5.9960 O.2   800  NAD800     -0.5170
      4  O5B      114.0640    9.4760    7.5460 O.3   800  NAD800     -0.3112
      5  C5B      114.6330    8.8140    8.6790 C.3   800  NAD800      0.1813
      6  C4B      114.7530    7.2760    8.4640 C.3   800  NAD800      0.1821
      7  O4B      113.4790    6.5010    8.2350 O.3   800  NAD800     -0.3135
      8  C3B      115.7450    6.7860    7.3640 C.3   800  NAD800      0.2184
      9  O3B      117.0890    6.7440    7.8320 O.3   800  NAD800     -0.2174
     10  C2B      115.2010    5.4340    6.9520 C.3   800  NAD800      0.2570
     11  O2B      115.7880    4.3510    7.6600 O.3   800  NAD800     -0.2130
     12  C1B      113.6840    5.4980    7.2450 C.3   800  NAD800      0.3186
     13  N9A      112.7910    5.7500    6.1060 N.pl3 800  NAD800     -0.1439
     14  C8A      112.9160    6.5580    4.9990 C.3   800  NAD800      0.3377
     15  N7A      111.9290    6.4330    4.1180 N.2   800  NAD800     -0.2095
     16  C5A      111.0940    5.4820    4.7040 C.2   800  NAD800      0.2526
     17  C6A      109.8770    4.9210    4.2410 C.2   800  NAD800      0.4393
     18  N6A      109.2260    5.2060    3.0940 N.pl3 800  NAD800      0.2180
     19  N1A      109.2580    3.9660    5.0650 N.2   800  NAD800      0.0021
     20  C2A      109.8350    3.5820    6.2870 C.3   800  NAD800      0.5254
     21  N3A      111.0300    4.1110    6.7620 N.2   800  NAD800     -0.0055
     22  C4A      111.6290    5.0550    5.9320 C.2   800  NAD800      0.3518
     23  O3       115.5890   11.3320    8.2000 O.3   800  NAD800     -0.2703
     24  PN       116.7310   12.4630    8.2760 P.3   800  NAD800      0.2189
     25  O1N      117.8950   12.0220    7.4730 O.2   800  NAD800     -0.5170
     26  O2N      116.9770   12.6770    9.7200 O.3   800  NAD800     -0.4371
     27  O5D      116.1530   13.8020    7.6320 O.3   800  NAD800     -0.3112
     28  C5D      115.9020   13.9000    6.2060 C.3   800  NAD800      0.1813
     29  C4D      116.9300   14.7570    5.4970 C.3   800  NAD800      0.1799
     30  O4D      116.8960   16.1640    5.8490 O.3   800  NAD800     -0.3327
     31  C3D      118.4460   14.3470    5.5830 C.3   800  NAD800      0.2158
     32  O3D      118.8410   13.3840    4.6030 O.3   800  NAD800     -0.2175
     33  C2D      119.2010   15.6550    5.4620 C.3   800  NAD800      0.2309
     34  O2D      119.5830   15.9510    4.1280 O.3   800  NAD800     -0.2158
     35  C1D      118.2620   16.6830    5.9810 C.3   800  NAD800      0.2263
     36  N1N      118.5180   17.1570    7.3850 N.pl3 800  NAD800     -0.2787
     37  C2N      118.8410   18.5160    7.6300 C.3   800  NAD800      0.1244
     38  C3N      119.1100   18.9140    8.9290 C.2   800  NAD800      0.0544
     39  C7N      119.4650   20.3860    9.1920 C.2   800  NAD800      0.2818
     40  O7N      119.7140   20.6910   10.3520 O.2   800  NAD800     -0.2670
     41  N7N      119.4980   21.2540    8.2070 N.am  800  NAD800     -0.0839
     42  C4N      119.0700   17.9610   10.0430 C.2   800  NAD800      0.0033
     43  C5N      118.7340   16.6050    9.7580 C.2   800  NAD800      0.0157
     44  C6N      118.4540   16.1780    8.4310 C.2   800  NAD800      0.0633
@<TRIPOS>BOND
     1    18    17    1
     2    15    16    2
     3    15    14    1
     4    34    33    1
     5    17    16    1
     6    17    19    2
     7    32    31    1
     8    16    22    1
     9    14    13    1
    10    19    20    1
    11    33    31    1
    12    33    35    1
    13    29    31    1
    14    29    30    1
    15    29    28    1
    16    30    35    1
    17    22    13    1
    18    22    21    2
    19    35    36    1
    20     3     1    2
    21    13    12    1
    22    28    27    1
    23    20    21    1
    24    10    12    1
    25    10     8    1
    26    10    11    1
    27    12     7    1
    28     8     9    1
    29     8     6    1
    30    36    37    1
    31    36    44    1
    32     1     4    1
    33     1    23    1
    34     1     2    1
    35    25    24    2
    36     4     5    1
    37    37    38    1
    38    27    24    1
    39    23    24    1
    40    41    39   am
    41     7     6    1
    42    24    26    1
    43    44    43    2
    44     6     5    1
    45    38    39    1
    46    38    42    2
    47    39    40    2
    48    43    42    1
