@<TRIPOS>MOLECULE
1ye6_NAD_B_1.pdb
 44 48 0 0 0
SMALL
GASTEIGER

@<TRIPOS>ATOM
      1  PA       100.5100   41.2510   38.9780 P.3   1001  NAD1001     0.2189
      2  O1A      100.5900   39.8470   38.8900 O.2   1001  NAD1001    -0.5170
      3  O2A      101.5740   42.1540   39.5520 O.3   1001  NAD1001    -0.4371
      4  O5B       99.1810   41.6420   39.7790 O.3   1001  NAD1001    -0.3112
      5  C5B       97.9340   41.5380   39.0940 C.3   1001  NAD1001     0.1813
      6  C4B       96.7220   41.7770   40.0430 C.3   1001  NAD1001     0.1821
      7  O4B       96.5300   40.8400   41.1970 O.3   1001  NAD1001    -0.3135
      8  C3B       96.5590   43.1970   40.6550 C.3   1001  NAD1001     0.2184
      9  O3B       95.8980   43.9890   39.6810 O.3   1001  NAD1001    -0.2174
     10  C2B       95.7630   42.9870   41.9270 C.3   1001  NAD1001     0.2570
     11  O2B       94.3650   43.1640   41.7940 O.3   1001  NAD1001    -0.2130
     12  C1B       96.0790   41.5230   42.3640 C.3   1001  NAD1001     0.3186
     13  N9A       97.0660   41.4550   43.4440 N.pl3 1001  NAD1001    -0.1439
     14  C8A       98.2650   42.0960   43.6550 C.3   1001  NAD1001     0.3377
     15  N7A       98.8210   41.8350   44.8260 N.2   1001  NAD1001    -0.2095
     16  C5A       97.9210   40.9560   45.4160 C.2   1001  NAD1001     0.2526
     17  C6A       97.9700   40.3280   46.6790 C.2   1001  NAD1001     0.4393
     18  N6A       98.9380   40.4580   47.6170 N.pl3 1001  NAD1001     0.2180
     19  N1A       96.9020   39.4780   47.0100 N.2   1001  NAD1001     0.0021
     20  C2A       95.8360   39.2690   46.1080 C.3   1001  NAD1001     0.5254
     21  N3A       95.7680   39.8790   44.8570 N.2   1001  NAD1001    -0.0055
     22  C4A       96.8380   40.7150   44.5600 C.2   1001  NAD1001     0.3518
     23  O3       100.1950   41.7870   37.4860 O.3   1001  NAD1001    -0.2703
     24  PN       100.7930   42.8580   36.4450 P.3   1001  NAD1001     0.2189
     25  O1N      100.4820   44.2210   36.8970 O.3   1001  NAD1001    -0.4371
     26  O2N      100.2560   42.4730   35.1280 O.2   1001  NAD1001    -0.5170
     27  O5D      102.3620   42.6750   36.4520 O.3   1001  NAD1001    -0.3112
     28  C5D      103.1790   43.4120   37.3970 C.3   1001  NAD1001     0.1813
     29  C4D      103.9040   44.5680   36.7410 C.3   1001  NAD1001     0.1799
     30  O4D      104.8950   44.1990   35.7380 O.3   1001  NAD1001    -0.3327
     31  C3D      103.0710   45.7250   36.0660 C.3   1001  NAD1001     0.2158
     32  O3D      102.5180   46.6800   36.9790 O.3   1001  NAD1001    -0.2175
     33  C2D      104.0480   46.3180   35.0610 C.3   1001  NAD1001     0.2309
     34  O2D      104.8900   47.3200   35.6030 O.3   1001  NAD1001    -0.2158
     35  C1D      104.8480   45.1580   34.6120 C.3   1001  NAD1001     0.2263
     36  N1N      104.3980   44.5120   33.3210 N.pl3 1001  NAD1001    -0.2787
     37  C2N      105.2700   44.4990   32.2050 C.3   1001  NAD1001     0.1244
     38  C3N      104.8300   43.9350   31.0130 C.2   1001  NAD1001     0.0544
     39  C7N      105.7800   43.9270   29.8250 C.2   1001  NAD1001     0.2818
     40  O7N      105.3640   43.4360   28.8020 O.2   1001  NAD1001    -0.2670
     41  N7N      106.9830   44.4280   29.9240 N.am  1001  NAD1001    -0.0839
     42  C4N      103.4850   43.3640   30.8840 C.2   1001  NAD1001     0.0033
     43  C5N      102.6350   43.3900   32.0300 C.2   1001  NAD1001     0.0157
     44  C6N      103.0690   43.9630   33.2640 C.2   1001  NAD1001     0.0633
@<TRIPOS>BOND
     1    40    39    2
     2    39    41   am
     3    39    38    1
     4    42    38    2
     5    42    43    1
     6    38    37    1
     7    43    44    2
     8    37    36    1
     9    44    36    1
    10    36    35    1
    11    35    33    1
    12    35    30    1
    13    33    34    1
    14    33    31    1
    15    26    24    2
    16    30    29    1
    17    31    29    1
    18    31    32    1
    19    24    27    1
    20    24    25    1
    21    24    23    1
    22    27    28    1
    23    29    28    1
    24    23     1    1
    25     2     1    2
    26     1     3    1
    27     1     4    1
    28     5     4    1
    29     5     6    1
    30     9     8    1
    31     6     8    1
    32     6     7    1
    33     8    10    1
    34     7    12    1
    35    11    10    1
    36    10    12    1
    37    12    13    1
    38    13    14    1
    39    13    22    1
    40    14    15    1
    41    22    21    2
    42    22    16    1
    43    15    16    2
    44    21    20    1
    45    16    17    1
    46    20    19    1
    47    17    19    2
    48    17    18    1
