@<TRIPOS>MOLECULE
1ye6_NAP_A_1.pdb
 48 52 0 0 0
SMALL
GASTEIGER

@<TRIPOS>ATOM
      1  PA       112.7540   10.6430    6.7430 P.3   1000  NAP1000     0.2189
      2  O1A      111.4170   10.8600    7.0940 O.3   1000  NAP1000    -0.4371
      3  O2A      113.3870   10.9910    5.4210 O.2   1000  NAP1000    -0.5170
      4  O5B      113.1410    9.0850    6.9850 O.3   1000  NAP1000    -0.3112
      5  C5B      113.2010    8.6020    8.3320 C.3   1000  NAP1000     0.1813
      6  C4B      113.0610    7.0370    8.4290 C.3   1000  NAP1000     0.1820
      7  O4B      111.8110    6.5120    7.8600 O.3   1000  NAP1000    -0.3136
      8  C3B      114.1890    6.1590    7.8390 C.3   1000  NAP1000     0.2157
      9  O3B      114.5580    5.3260    8.9370 O.3   1000  NAP1000    -0.2175
     10  C2B      113.5560    5.3550    6.7190 C.3   1000  NAP1000     0.2314
     11  O2B      114.0350    4.0090    6.6630 O.3   1000  NAP1000    -0.2630
     12  C1B      112.0290    5.3810    7.0410 C.3   1000  NAP1000     0.3158
     13  N9A      111.1970    5.6200    5.8850 N.pl3 1000  NAP1000    -0.1439
     14  C8A      111.3650    6.4270    4.7790 C.3   1000  NAP1000     0.3377
     15  N7A      110.3640    6.3810    3.9190 N.2   1000  NAP1000    -0.2095
     16  C5A      109.4840    5.4800    4.5140 C.2   1000  NAP1000     0.2526
     17  C6A      108.2290    5.0170    4.0740 C.2   1000  NAP1000     0.4393
     18  N6A      107.5860    5.3630    2.9490 N.pl3 1000  NAP1000     0.2180
     19  N1A      107.5660    4.0990    4.8920 N.2   1000  NAP1000     0.0021
     20  C2A      108.1370    3.6630    6.0980 C.3   1000  NAP1000     0.5254
     21  N3A      109.3690    4.1030    6.5550 N.2   1000  NAP1000    -0.0055
     22  C4A      110.0050    5.0080    5.7260 C.2   1000  NAP1000     0.3518
     23  O3       113.6340   11.3860    7.8080 O.3   1000  NAP1000    -0.2703
     24  PN       115.1020   11.9590    7.8180 P.3   1000  NAP1000     0.2189
     25  O1N      115.8830   11.4680    6.6850 O.2   1000  NAP1000    -0.5170
     26  O2N      115.6050   11.6460    9.1780 O.3   1000  NAP1000    -0.4371
     27  O5D      114.8800   13.5090    7.6200 O.3   1000  NAP1000    -0.3112
     28  C5D      114.2510   14.0010    6.3990 C.3   1000  NAP1000     0.1813
     29  C4D      115.2540   14.8080    5.6130 C.3   1000  NAP1000     0.1799
     30  O4D      115.1870   16.2190    5.9550 O.3   1000  NAP1000    -0.3327
     31  C3D      116.7810   14.4370    5.7380 C.3   1000  NAP1000     0.2158
     32  O3D      117.2270   13.4810    4.7770 O.3   1000  NAP1000    -0.2175
     33  C2D      117.5040   15.7660    5.6340 C.3   1000  NAP1000     0.2309
     34  O2D      117.8940   16.0870    4.3170 O.3   1000  NAP1000    -0.2158
     35  C1D      116.5380   16.7640    6.1430 C.3   1000  NAP1000     0.2263
     36  N1N      116.7550   17.1940    7.5660 N.pl3 1000  NAP1000    -0.2787
     37  C2N      117.0550   18.5430    7.8580 C.3   1000  NAP1000     0.1244
     38  C3N      117.2940   18.9010    9.1810 C.2   1000  NAP1000     0.0544
     39  C7N      117.6240   20.3620    9.4950 C.2   1000  NAP1000     0.2818
     40  O7N      117.8370   20.6310   10.6570 O.2   1000  NAP1000    -0.2670
     41  N7N      117.6720   21.2620    8.5480 N.am  1000  NAP1000    -0.0839
     42  C4N      117.2450   17.9170   10.2640 C.2   1000  NAP1000     0.0033
     43  C5N      116.9350   16.5690    9.9330 C.2   1000  NAP1000     0.0157
     44  C6N      116.6870   16.1780    8.5880 C.2   1000  NAP1000     0.0633
     45  P2B      114.6030    3.2610    5.3230 P.3   1000  NAP1000     0.5328
     46  O1X      113.3910    3.0120    4.4050 O.2   1000  NAP1000    -0.2224
     47  O2X      115.5650    4.2740    4.7850 O.3   1000  NAP1000    -0.1145
     48  O3X      115.2230    1.9620    5.8050 O.3   1000  NAP1000    -0.1145
@<TRIPOS>BOND
     1    18    17    1
     2    15    16    2
     3    15    14    1
     4    17    16    1
     5    17    19    2
     6    34    33    1
     7    46    45    2
     8    16    22    1
     9    32    31    1
    10    14    13    1
    11    47    45    1
    12    19    20    1
    13    45    48    1
    14    45    11    1
    15     3     1    2
    16    29    31    1
    17    29    30    1
    18    29    28    1
    19    33    31    1
    20    33    35    1
    21    22    13    1
    22    22    21    2
    23    13    12    1
    24    30    35    1
    25    20    21    1
    26    35    36    1
    27    28    27    1
    28    11    10    1
    29    25    24    2
    30    10    12    1
    31    10     8    1
    32     1     4    1
    33     1     2    1
    34     1    23    1
    35     4     5    1
    36    12     7    1
    37    36    37    1
    38    36    44    1
    39    27    24    1
    40    23    24    1
    41    24    26    1
    42     8     6    1
    43     8     9    1
    44    37    38    1
    45     7     6    1
    46     5     6    1
    47    41    39   am
    48    44    43    2
    49    38    39    1
    50    38    42    2
    51    39    40    2
    52    43    42    1
