@<TRIPOS>MOLECULE
1ye9_HDD_E_1.pdb
 44 52 0 0 0
SMALL
GASTEIGER

@<TRIPOS>ATOM
      1 FE          5.1760   -1.9970    4.7120 Fe    760  HDD760      0.0000
      2  CHA        7.3020   -0.3850    5.9630 C.2   760  HDD760      0.0000
      3  CHB        2.9260   -0.7880    7.1410 C.2   760  HDD760      0.0000
      4  CHC        2.8810   -3.6460    3.4460 C.2   760  HDD760      0.0000
      5  CHD        6.9490   -3.0220    2.7010 C.2   760  HDD760      0.0000
      6  NA         5.2400   -0.6840    6.3730 N.2   760  HDD760      0.0000
      7  C1A        6.3180   -0.0600    6.7450 C.2   760  HDD760      0.0000
      8  C2A        6.2410    0.8030    7.8460 C.2   760  HDD760      0.0000
      9  C3A        4.8460    0.6550    8.2200 C.2   760  HDD760      0.0000
     10  C4A        4.3070   -0.3190    7.2230 C.2   760  HDD760      0.0000
     11  CMA        4.1800    1.3490    9.3620 C.3   760  HDD760      0.0000
     12  CAA        7.2600    1.6670    8.5800 C.3   760  HDD760      0.0000
     13  CBA        7.5490    1.1150    9.9860 C.3   760  HDD760      0.0000
     14  CGA        8.5180    2.1080   10.5520 C.2   760  HDD760      0.0000
     15  O1A        9.7460    1.9490   10.2970 O.co2 760  HDD760      0.0000
     16  O2A        8.0180    3.0570   11.1940 O.co2 760  HDD760      0.0000
     17  NB         3.1370   -2.2580    5.1920 N.ar  760  HDD760      0.0000
     18  C1B        2.4080   -1.7260    6.1590 C.ar  760  HDD760      0.0000
     19  C2B        1.0770   -2.1790    6.1280 C.ar  760  HDD760      0.0000
     20  C3B        1.0360   -3.0810    4.9380 C.ar  760  HDD760      0.0000
     21  C4B        2.3330   -3.0480    4.4720 C.ar  760  HDD760      0.0000
     22  CMB       -0.0660   -1.8180    7.0460 C.3   760  HDD760      0.0000
     23  CAB       -0.1200   -3.8560    4.4020 C.2   760  HDD760      0.0000
     24  CBB       -1.3080   -3.8600    4.9920 C.2   760  HDD760      0.0000
     25  NC         4.9540   -3.3110    3.0850 N.2   760  HDD760      0.0000
     26  C1C        3.8780   -3.9440    2.6660 C.2   760  HDD760      0.0000
     27  C2C        4.0690   -4.7740    1.5460 C.2   760  HDD760      0.0000
     28  C3C        5.5210   -4.5180    1.3150 C.2   760  HDD760      0.0000
     29  C4C        5.8950   -3.6410    2.3160 C.2   760  HDD760      0.0000
     30  CMC        3.1230   -5.6480    0.7460 C.3   760  HDD760      0.0000
     31  CAC        6.3580   -5.0850    0.2560 C.2   760  HDD760      0.0000
     32  CBC        6.2120   -6.3670    0.0280 C.2   760  HDD760      0.0000
     33  ND         7.0030   -1.7110    4.3420 N.pl3 760  HDD760      0.0000
     34  C1D        7.6270   -2.2800    3.3730 C.2   760  HDD760      0.0000
     35  C2D        9.0630   -1.9020    3.2900 C.2   760  HDD760      0.0000
     36  C3D        9.2980   -0.9620    4.5010 C.2   760  HDD760      0.0000
     37  C4D        7.8520   -0.9270    5.0100 C.2   760  HDD760      0.0000
     38  CMD        9.2210   -0.9820    2.0980 C.3   760  HDD760      0.0000
     39  CAD       10.2230    0.1940    4.1050 C.2   760  HDD760      0.0000
     40  CBD       11.3880    0.3650    5.0970 C.2   760  HDD760      0.0000
     41  CGD       11.0930   -0.6620    6.1150 C.2   760  HDD760      0.0000
     42  O1D        9.9260   -1.4160    5.7070 O.3   760  HDD760      0.0000
     43  O2D       11.7380   -0.8310    7.1470 O.2   760  HDD760      0.0000
     44  OND        9.7450   -3.1420    3.1530 O.2   760  HDD760      0.0000
@<TRIPOS>BOND
     1    32    31    2
     2    31    28    1
     3    30    27    1
     4    28    27    2
     5    28    29    1
     6    27    26    1
     7    38    35    1
     8    29     5    1
     9    29    25    2
    10    26    25    1
    11    26     4    2
    12     5    34    2
    13    25     1    1
    14    44    35    1
    15    35    34    1
    16    35    36    2
    17    34    33    1
    18     4    21    1
    19    39    36    1
    20    39    40    2
    21    33     1    1
    22    33    37    1
    23    23    20    1
    24    23    24    2
    25    21    20   ar
    26    21    17   ar
    27    36    37    1
    28    36    42    1
    29     1    17    1
    30     1     6    1
    31    20    19   ar
    32    37     2    2
    33    40    41    1
    34    17    18   ar
    35    42    41    1
    36     2     7    1
    37    41    43    2
    38    19    18   ar
    39    19    22    1
    40    18     3    1
    41     6     7    2
    42     6    10    1
    43     7     8    1
    44     3    10    2
    45    10     9    1
    46     8     9    2
    47     8    12    1
    48     9    11    1
    49    12    13    1
    50    13    14    1
    51    15    14   ar
    52    14    16   ar
