@<TRIPOS>MOLECULE
1yea_HEM_A_1.pdb
 43 50 0 0 0
SMALL
GASTEIGER

@<TRIPOS>ATOM
      1 FE          2.5530   21.0090   13.3340 Fe    104  HEM104      0.0000
      2  CHA        4.8920   18.7180   14.5020 C.2   104  HEM104      0.0000
      3  CHB        3.6920   20.5490   10.1610 C.2   104  HEM104      0.0000
      4  CHC       -0.0720   22.8200   12.0560 C.2   104  HEM104      0.0000
      5  CHD        1.5680   21.6820   16.4780 C.2   104  HEM104      0.0000
      6  NA         4.0070   19.8700   12.5350 N.ar  104  HEM104      0.0000
      7  C1A        4.8230   18.9680   13.1290 C.ar  104  HEM104      0.0000
      8  C2A        5.5990   18.2420   12.1490 C.ar  104  HEM104      0.0000
      9  C3A        5.2740   18.7380   10.9380 C.ar  104  HEM104      0.0000
     10  C4A        4.2600   19.7530   11.1580 C.ar  104  HEM104      0.0000
     11  CMA        5.8400   18.3340    9.5490 C.3   104  HEM104      0.0000
     12  CAA        6.6630   17.1440   12.4370 C.3   104  HEM104      0.0000
     13  CBA        8.0910   17.7240   12.6010 C.3   104  HEM104      0.0000
     14  CGA        9.2810   16.8640   12.9040 C.2   104  HEM104      0.0000
     15  O1A       10.4260   17.4630   13.0600 O.co2 104  HEM104      0.0000
     16  O2A        9.1430   15.6100   12.9760 O.co2 104  HEM104      0.0000
     17  NB         1.8710   21.5030   11.4520 N.2   104  HEM104      0.0000
     18  C1B        2.6060   21.3660   10.2900 C.2   104  HEM104      0.0000
     19  C2B        1.9390   22.1420    9.2120 C.2   104  HEM104      0.0000
     20  C3B        0.9120   22.7610    9.7400 C.2   104  HEM104      0.0000
     21  C4B        0.8630   22.3790   11.1770 C.2   104  HEM104      0.0000
     22  CMB        2.5120   22.1980    7.8050 C.3   104  HEM104      0.0000
     23  CAB       -0.1960   23.6500    9.1350 C.3   104  HEM104      0.0000
     24  CBB       -1.3270   22.9890    8.3350 C.3   104  HEM104      0.0000
     25  NC         1.0350   22.0000   14.0940 N.ar  104  HEM104      0.0000
     26  C1C        0.1660   22.8330   13.4260 C.ar  104  HEM104      0.0000
     27  C2C       -0.5080   23.7090   14.3430 C.ar  104  HEM104      0.0000
     28  C3C       -0.1450   23.3150   15.5950 C.ar  104  HEM104      0.0000
     29  C4C        0.8600   22.2980   15.4680 C.ar  104  HEM104      0.0000
     30  CMC       -1.5830   24.7270   13.8610 C.3   104  HEM104      0.0000
     31  CAC       -0.5220   23.9640   16.9620 C.3   104  HEM104      0.0000
     32  CBC       -1.8860   23.6970   17.5530 C.3   104  HEM104      0.0000
     33  ND         3.1770   20.3880   15.1490 N.2   104  HEM104      0.0000
     34  C1D        2.5760   20.7410   16.3670 C.2   104  HEM104      0.0000
     35  C2D        3.1350   19.8780   17.4210 C.2   104  HEM104      0.0000
     36  C3D        4.0360   19.1110   16.8470 C.2   104  HEM104      0.0000
     37  C4D        4.0580   19.3760   15.4000 C.2   104  HEM104      0.0000
     38  CMD        2.6750   19.9630   18.9040 C.3   104  HEM104      0.0000
     39  CAD        4.9240   17.9840   17.4330 C.3   104  HEM104      0.0000
     40  CBD        4.0570   16.7220   17.6380 C.3   104  HEM104      0.0000
     41  CGD        4.7950   15.7060   18.4760 C.2   104  HEM104      0.0000
     42  O1D        5.9750   15.9560   18.7950 O.co2 104  HEM104      0.0000
     43  O2D        4.1330   14.6870   18.6640 O.co2 104  HEM104      0.0000
@<TRIPOS>BOND
     1    22    19    1
     2    24    23    1
     3    23    20    1
     4    19    20    2
     5    19    18    1
     6    11     9    1
     7    20    21    1
     8     3    18    1
     9     3    10    2
    10    18    17    2
    11     9    10   ar
    12     9     8   ar
    13    10     6   ar
    14    21    17    1
    15    21     4    2
    16    17     1    1
    17     4    26    1
    18     8    12    1
    19     8     7   ar
    20    12    13    1
    21     6     7   ar
    22     6     1    1
    23    13    14    1
    24    14    16   ar
    25    14    15   ar
    26     7     2    2
    27     1    25    1
    28     1    33    1
    29    26    25   ar
    30    26    27   ar
    31    30    27    1
    32    25    29   ar
    33    27    28   ar
    34     2    37    1
    35    33    37    2
    36    33    34    1
    37    37    36    1
    38    29    28   ar
    39    29     5    1
    40    28    31    1
    41    34     5    2
    42    34    35    1
    43    36    35    2
    44    36    39    1
    45    31    32    1
    46    35    38    1
    47    39    40    1
    48    40    41    1
    49    41    43   ar
    50    41    42   ar
