@<TRIPOS>MOLECULE
1yeb_HEM_A_1.pdb
 43 50 0 0 0
SMALL
GASTEIGER

@<TRIPOS>ATOM
      1 FE          2.7030   20.8390   13.2540 Fe    104  HEM104      0.0000
      2  CHA        4.9780   18.7120   14.4030 C.2   104  HEM104      0.0000
      3  CHB        3.8970   20.5760   10.0910 C.2   104  HEM104      0.0000
      4  CHC        0.0880   22.7590   12.0590 C.2   104  HEM104      0.0000
      5  CHD        1.9350   21.8580   16.4640 C.2   104  HEM104      0.0000
      6  NA         4.1990   19.8350   12.3950 N.ar  104  HEM104      0.0000
      7  C1A        5.0060   18.9250   13.0230 C.ar  104  HEM104      0.0000
      8  C2A        5.8010   18.2570   12.0320 C.ar  104  HEM104      0.0000
      9  C3A        5.5080   18.7780   10.8480 C.ar  104  HEM104      0.0000
     10  C4A        4.4830   19.7900   11.0770 C.ar  104  HEM104      0.0000
     11  CMA        6.0240   18.4840    9.3920 C.3   104  HEM104      0.0000
     12  CAA        6.8460   17.1770   12.4280 C.3   104  HEM104      0.0000
     13  CBA        8.3030   17.6430   12.0510 C.3   104  HEM104      0.0000
     14  CGA        9.4320   16.8920   12.7140 C.2   104  HEM104      0.0000
     15  O1A       10.5120   17.5560   12.9720 O.co2 104  HEM104      0.0000
     16  O2A        9.1590   15.6530   12.8900 O.co2 104  HEM104      0.0000
     17  NB         2.0880   21.4980   11.4370 N.2   104  HEM104      0.0000
     18  C1B        2.8100   21.4000   10.2700 C.2   104  HEM104      0.0000
     19  C2B        2.1050   22.1170    9.1990 C.2   104  HEM104      0.0000
     20  C3B        1.0670   22.7230    9.7360 C.2   104  HEM104      0.0000
     21  C4B        1.0420   22.3250   11.1620 C.2   104  HEM104      0.0000
     22  CMB        2.6530   22.1250    7.7380 C.3   104  HEM104      0.0000
     23  CAB       -0.0510   23.6300    9.1420 C.3   104  HEM104      0.0000
     24  CBB       -1.1980   23.0260    8.3240 C.3   104  HEM104      0.0000
     25  NC         1.3000   22.0380   14.0790 N.ar  104  HEM104      0.0000
     26  C1C        0.3390   22.7740   13.4060 C.ar  104  HEM104      0.0000
     27  C2C       -0.4010   23.5830   14.3420 C.ar  104  HEM104      0.0000
     28  C3C        0.0510   23.2790   15.5840 C.ar  104  HEM104      0.0000
     29  C4C        1.1760   22.3490   15.4270 C.ar  104  HEM104      0.0000
     30  CMC       -1.5920   24.4880   13.9310 C.3   104  HEM104      0.0000
     31  CAC       -0.3420   23.9140   16.9300 C.3   104  HEM104      0.0000
     32  CBC       -1.8400   23.8960   17.2590 C.3   104  HEM104      0.0000
     33  ND         3.3450   20.3800   15.0870 N.2   104  HEM104      0.0000
     34  C1D        2.8590   20.8420   16.3170 C.2   104  HEM104      0.0000
     35  C2D        3.4130   20.0320   17.3800 C.2   104  HEM104      0.0000
     36  C3D        4.2640   19.1330   16.8270 C.2   104  HEM104      0.0000
     37  C4D        4.2410   19.3640   15.3810 C.2   104  HEM104      0.0000
     38  CMD        3.0930   20.1900   18.8710 C.3   104  HEM104      0.0000
     39  CAD        5.1740   18.0820   17.4980 C.2   104  HEM104      0.0000
     40  CBD        4.6570   16.6370   17.4700 C.2   104  HEM104      0.0000
     41  CGD        5.3280   15.6540   18.3680 C.2   104  HEM104      0.0000
     42  O1D        6.4810   15.8830   18.7960 O.co2 104  HEM104      0.0000
     43  O2D        4.6650   14.5690   18.5760 O.co2 104  HEM104      0.0000
@<TRIPOS>BOND
     1    22    19    1
     2    24    23    1
     3    23    20    1
     4    19    20    2
     5    19    18    1
     6    11     9    1
     7    20    21    1
     8     3    18    1
     9     3    10    2
    10    18    17    2
    11     9    10   ar
    12     9     8   ar
    13    10     6   ar
    14    21    17    1
    15    21     4    2
    16    17     1    1
    17     8    12    1
    18     8     7   ar
    19    13    12    1
    20    13    14    1
    21     4    26    1
    22     6     7   ar
    23     6     1    1
    24    14    16   ar
    25    14    15   ar
    26     7     2    2
    27     1    25    1
    28     1    33    1
    29    26    25   ar
    30    26    27   ar
    31    30    27    1
    32    25    29   ar
    33    27    28   ar
    34     2    37    1
    35    33    37    2
    36    33    34    1
    37    37    36    1
    38    29    28   ar
    39    29     5    1
    40    28    31    1
    41    34     5    2
    42    34    35    1
    43    36    35    2
    44    36    39    1
    45    31    32    1
    46    35    38    1
    47    40    39    2
    48    40    41    1
    49    41    43   ar
    50    41    42   ar
