@<TRIPOS>MOLECULE
1yec_PNB_H_1.pdb
 24 24 0 0 0
SMALL
GASTEIGER

@<TRIPOS>ATOM
      1  N1         7.7480   40.3360   62.3440 N.pl3 551  PNB551      0.0577
      2  O4         7.7420   41.4980   61.9490 O.2   551  PNB551     -0.1261
      3  O5         6.8030   39.9310   62.9820 O.2   551  PNB551     -0.1261
      4  C1        10.8490   37.5080   61.9240 C.ar  551  PNB551      0.0079
      5  C2        11.0600   38.7560   61.3570 C.ar  551  PNB551     -0.0001
      6  C3        10.0580   39.7200   61.4440 C.ar  551  PNB551      0.0238
      7  C4         8.8660   39.3850   62.1060 C.ar  551  PNB551      0.1429
      8  C5         8.7110   38.1200   62.6380 C.ar  551  PNB551      0.0238
      9  C6         9.6920   37.2010   62.5450 C.ar  551  PNB551     -0.0001
     10  C7        11.8830   36.4280   61.9790 C.3   551  PNB551      0.1779
     11  O1        13.1950   36.8940   61.6730 O.3   551  PNB551     -0.2878
     12  P1        14.2800   37.5030   62.7250 P.3   551  PNB551      0.3700
     13  O2        14.3550   38.9220   62.4100 O.2   551  PNB551     -0.2555
     14  O3        13.9560   37.1140   64.0710 O.3   551  PNB551     -0.1398
     15  C8        15.7630   36.7430   62.2620 C.3   551  PNB551      0.1186
     16  C9        16.0680   36.8370   60.7890 C.3   551  PNB551      0.0224
     17  C10       17.4050   36.1730   60.5920 C.3   551  PNB551      0.0875
     18  C11       17.8620   35.9900   59.1590 C.2   551  PNB551      0.2419
     19  O6        18.4790   36.9130   58.5980 O.2   551  PNB551     -0.2733
     20  N2        17.5800   34.8110   58.5720 N.am  551  PNB551     -0.1932
     21  C12       17.9350   34.5030   57.3230 C.3   551  PNB551      0.2284
     22  C13       16.9150   34.8900   56.2140 C.2   551  PNB551      0.3865
     23  O7        16.6790   34.0810   55.2910 O.co2 551  PNB551     -0.2437
     24  O8        16.4500   36.0330   56.1460 O.co2 551  PNB551     -0.2437
@<TRIPOS>BOND
     1    23    22   ar
     2    24    22   ar
     3    22    21    1
     4    21    20    1
     5    20    18   am
     6    19    18    2
     7    18    17    1
     8    17    16    1
     9    16    15    1
    10     5     6   ar
    11     5     4   ar
    12     6     7   ar
    13    11    10    1
    14    11    12    1
    15     4    10    1
    16     4     9   ar
    17     2     1    2
    18     7     1    1
    19     7     8   ar
    20    15    12    1
    21     1     3    2
    22    13    12    2
    23     9     8   ar
    24    12    14    1
