@<TRIPOS>MOLECULE
1yed_PNB_A_1.pdb
 24 24 0 0 0
SMALL
GASTEIGER

@<TRIPOS>ATOM
      1  N1        19.2930   67.2120   35.2450 N.pl3 552  PNB552      0.0577
      2  O4        20.1870   66.6890   34.5450 O.2   552  PNB552     -0.1261
      3  O5        19.5650   67.6120   36.3910 O.2   552  PNB552     -0.1261
      4  C1        15.2820   67.6560   33.7980 C.ar  552  PNB552      0.0079
      5  C2        15.6160   68.0980   35.0700 C.ar  552  PNB552     -0.0001
      6  C3        16.9200   67.9530   35.5410 C.ar  552  PNB552      0.0238
      7  C4        17.9070   67.3760   34.7230 C.ar  552  PNB552      0.1429
      8  C5        17.5640   66.9290   33.4410 C.ar  552  PNB552      0.0238
      9  C6        16.2570   67.0830   32.9900 C.ar  552  PNB552     -0.0001
     10  C7        13.8680   67.7990   33.2570 C.3   552  PNB552      0.1779
     11  O1        13.2930   69.1640   33.3920 O.3   552  PNB552     -0.2878
     12  P1        13.4850   70.3350   32.2450 P.3   552  PNB552      0.3700
     13  O2        14.0440   71.4660   32.9040 O.3   552  PNB552     -0.1398
     14  O3        14.2410   69.8080   31.1170 O.2   552  PNB552     -0.2555
     15  C8        11.8650   70.7100   31.8050 C.3   552  PNB552      0.1186
     16  C9        10.8580   70.3730   32.9270 C.3   552  PNB552      0.0224
     17  C10        9.4430   70.1500   32.3800 C.3   552  PNB552      0.0875
     18  C11        8.3330   70.1300   33.4470 C.2   552  PNB552      0.2419
     19  O6         8.4370   70.8900   34.4020 O.2   552  PNB552     -0.2733
     20  N2         7.2450   69.3330   33.3120 N.am  552  PNB552     -0.1932
     21  C12        6.2290   69.3500   34.1960 C.3   552  PNB552      0.2284
     22  C13        6.4270   68.4740   35.4360 C.2   552  PNB552      0.3865
     23  O7         5.4520   67.8320   35.8550 O.co2 552  PNB552     -0.2437
     24  O8         7.3590   68.7280   36.2160 O.co2 552  PNB552     -0.2437
@<TRIPOS>BOND
     1    14    12    2
     2    15    12    1
     3    15    16    1
     4    12    13    1
     5    12    11    1
     6    17    16    1
     7    17    18    1
     8     9     8   ar
     9     9     4   ar
    10    10    11    1
    11    10     4    1
    12    20    18   am
    13    20    21    1
    14     8     7   ar
    15    18    19    2
    16     4     5   ar
    17    21    22    1
    18     2     1    2
    19     7     1    1
    20     7     6   ar
    21     5     6   ar
    22     1     3    2
    23    22    23   ar
    24    22    24   ar
