@<TRIPOS>MOLECULE
1yee_PNB_H_1.pdb
 24 24 0 0 0
SMALL
GASTEIGER

@<TRIPOS>ATOM
      1  N1         4.6960   -2.2520    7.5420 N.pl3 551  PNB551      0.0577
      2  O4         3.6610   -1.6090    7.7630 O.2   551  PNB551     -0.1261
      3  O5         5.8250   -1.6940    7.4290 O.2   551  PNB551     -0.1261
      4  C1         4.8060   -6.3670    6.7840 C.ar  551  PNB551      0.0079
      5  C2         3.5810   -5.7780    7.2080 C.ar  551  PNB551     -0.0001
      6  C3         3.4990   -4.4260    7.5030 C.ar  551  PNB551      0.0238
      7  C4         4.6620   -3.6780    7.3630 C.ar  551  PNB551      0.1429
      8  C5         5.8750   -4.2610    6.9530 C.ar  551  PNB551      0.0238
      9  C6         5.9520   -5.6120    6.6610 C.ar  551  PNB551     -0.0001
     10  C7         4.9270   -7.7880    6.4310 C.3   551  PNB551      0.1779
     11  O1         3.6210   -8.3100    6.1130 O.3   551  PNB551     -0.2878
     12  P1         3.1750   -8.5840    4.6090 P.3   551  PNB551      0.3700
     13  O2         2.1510   -7.6700    4.3380 O.3   551  PNB551     -0.1398
     14  O3         4.2970   -8.5450    3.7860 O.2   551  PNB551     -0.2555
     15  C8         2.5070  -10.1740    4.5720 C.3   551  PNB551      0.1186
     16  C9         2.2050  -10.8950    5.8780 C.3   551  PNB551      0.0224
     17  C10        1.4740  -12.1510    5.4280 C.3   551  PNB551      0.0875
     18  C11        1.1050  -13.2420    6.3970 C.2   551  PNB551      0.2419
     19  O6        -0.0460  -13.5690    6.4860 O.2   551  PNB551     -0.2733
     20  N2         2.0460  -13.8730    7.1410 N.am  551  PNB551     -0.1932
     21  C12        1.7030  -14.8650    7.9730 C.3   551  PNB551      0.2284
     22  C13        1.4480  -14.3780    9.3930 C.2   551  PNB551      0.3865
     23  O7         1.8780  -15.1100   10.3350 O.co2 551  PNB551     -0.2437
     24  O8         0.7600  -13.3470    9.6090 O.co2 551  PNB551     -0.2437
@<TRIPOS>BOND
     1    14    12    2
     2    13    12    1
     3    15    12    1
     4    15    16    1
     5    12    11    1
     6    17    16    1
     7    17    18    1
     8    11    10    1
     9    18    19    2
    10    18    20   am
    11    10     4    1
    12     9     4   ar
    13     9     8   ar
    14     4     5   ar
    15     8     7   ar
    16    20    21    1
    17     5     6   ar
    18     7     6   ar
    19     7     1    1
    20     3     1    2
    21     1     2    2
    22    21    22    1
    23    22    24   ar
    24    22    23   ar
