@<TRIPOS>MOLECULE
1yef_PNC_L_1.pdb
 23 23 0 0 0
SMALL
GASTEIGER

@<TRIPOS>ATOM
      1  C1        10.6350   37.5750   61.5150 C.ar  551  PNC551     -0.0005
      2  C2        10.7150   38.8790   61.0050 C.ar  551  PNC551     -0.0009
      3  C3         9.6490   39.7560   61.1410 C.ar  551  PNC551      0.0238
      4  C4         8.4920   39.3390   61.7910 C.ar  551  PNC551      0.1429
      5  C5         8.4010   38.0480   62.2950 C.ar  551  PNC551      0.0238
      6  C6         9.4720   37.1660   62.1600 C.ar  551  PNC551     -0.0009
      7  C7        11.8120   36.6130   61.4030 C.3   551  PNC551      0.1415
      8  C8        15.1090   38.3240   61.3060 C.3   551  PNC551      0.0873
      9  C9        15.6370   37.6800   60.0290 C.3   551  PNC551      0.0192
     10  C10       16.6320   36.5640   60.2880 C.3   551  PNC551      0.0873
     11  C11       17.4640   36.1960   59.0260 C.2   551  PNC551      0.2419
     12  C12       18.0610   34.4880   57.5830 C.3   551  PNC551      0.2284
     13  C13       17.2460   34.0770   56.3540 C.2   551  PNC551      0.3865
     14  C14       13.9070   37.6280   61.9070 C.2   551  PNC551      0.2417
     15  N1         7.3750   40.2640   61.9710 N.pl3 551  PNC551      0.0577
     16  N2        17.3680   34.9120   58.6200 N.am  551  PNC551     -0.1932
     17  N3        12.9510   37.2640   61.0430 N.am  551  PNC551     -0.2006
     18  O2        13.8470   37.4120   63.1010 O.2   551  PNC551     -0.2733
     19  O4         7.4550   41.4450   61.6310 O.2   551  PNC551     -0.1261
     20  O5         6.3520   39.8520   62.4690 O.2   551  PNC551     -0.1261
     21  O6        18.1920   37.0410   58.4490 O.2   551  PNC551     -0.2733
     22  O7        17.6720   33.0840   55.7300 O.co2 551  PNC551     -0.2437
     23  O8        16.2290   34.7150   55.9410 O.co2 551  PNC551     -0.2437
@<TRIPOS>BOND
     1    22    13   ar
     2    23    13   ar
     3    13    12    1
     4    12    16    1
     5    21    11    2
     6    16    11   am
     7    11    10    1
     8     9    10    1
     9     9     8    1
    10     2     3   ar
    11     2     1   ar
    12    17     7    1
    13    17    14   am
    14     3     4   ar
    15     8    14    1
    16     7     1    1
    17     1     6   ar
    18    19    15    2
    19     4    15    1
    20     4     5   ar
    21    14    18    2
    22    15    20    2
    23     6     5   ar
