@<TRIPOS>MOLECULE
1yeg_BPN_L_1.pdb
 11 11 0 0 0
SMALL
GASTEIGER

@<TRIPOS>ATOM
      1  C1        10.6050   37.6460   62.0530 C.ar  551  BPN551      0.0107
      2  C2        10.7880   38.9170   61.5110 C.ar  551  BPN551     -0.0000
      3  C3         9.8030   39.8870   61.6440 C.ar  551  BPN551      0.0238
      4  C4         8.6310   39.5850   62.3180 C.ar  551  BPN551      0.1429
      5  C5         8.4380   38.3120   62.8600 C.ar  551  BPN551      0.0238
      6  C6         9.4260   37.3400   62.7270 C.ar  551  BPN551     -0.0000
      7  C7        11.6830   36.6060   61.9160 C.3   551  BPN551      0.2086
      8  N1         7.5920   40.6060   62.5010 N.pl3 551  BPN551      0.0577
      9  O1        12.3110   36.3000   63.1630 O.3   551  BPN551     -0.2152
     10  O4         7.7390   41.7690   62.1280 O.2   551  BPN551     -0.1261
     11  O5         6.5580   40.2960   63.0430 O.2   551  BPN551     -0.1261
@<TRIPOS>BOND
     1     2     3   ar
     2     2     1   ar
     3     3     4   ar
     4     7     1    1
     5     7     9    1
     6     1     6   ar
     7    10     8    2
     8     4     8    1
     9     4     5   ar
    10     8    11    2
    11     6     5   ar
