@<TRIPOS>MOLECULE
1yei_PGG_L_1.pdb
 23 23 0 0 0
SMALL
GASTEIGER

@<TRIPOS>ATOM
      1  C1        11.8160   37.6100   61.7770 C.ar  551  PGG551      0.1469
      2  C2        11.6170   38.9150   61.3230 C.ar  551  PGG551      0.0391
      3  C3        10.3510   39.4890   61.4830 C.ar  551  PGG551      0.0272
      4  C4         9.3390   38.7460   62.0880 C.ar  551  PGG551      0.1431
      5  C5         9.5750   37.4180   62.5310 C.ar  551  PGG551      0.0272
      6  C6        10.8320   36.8280   62.3770 C.ar  551  PGG551      0.0391
      7  P1        14.2800   37.6130   62.6360 P.3   551  PGG551      0.4175
      8  O1        13.0930   37.0790   61.6490 O.3   551  PGG551     -0.4208
      9  O2        14.4440   39.0080   62.3740 O.2   551  PGG551     -0.2411
     10  O3        13.9260   37.2270   63.9920 O.3   551  PGG551     -0.1296
     11  C8        15.6960   36.7280   62.1440 C.3   551  PGG551      0.1318
     12  C9        16.1100   36.8950   60.6990 C.3   551  PGG551      0.0236
     13  C10       17.3960   36.1000   60.5310 C.3   551  PGG551      0.0875
     14  C11       17.8600   35.9380   59.0990 C.2   551  PGG551      0.2419
     15  N2        17.5560   34.7760   58.4840 N.am  551  PGG551     -0.1932
     16  O6        18.4960   36.8780   58.5530 O.2   551  PGG551     -0.2733
     17  C12       17.8940   34.4970   57.2240 C.3   551  PGG551      0.2284
     18  C13       16.7390   34.7250   56.2150 C.2   551  PGG551      0.3865
     19  O7        16.6240   33.9260   55.2600 O.co2 551  PGG551     -0.2437
     20  O8        16.2180   35.8600   56.1190 O.co2 551  PGG551     -0.2437
     21  N1         8.0100   39.3660   62.3160 N.pl3 551  PGG551      0.0577
     22  O4         7.7370   40.5310   61.9380 O.2   551  PGG551     -0.1261
     23  O5         7.1700   38.7140   62.9130 O.2   551  PGG551     -0.1261
@<TRIPOS>BOND
     1    19    18   ar
     2    20    18   ar
     3    18    17    1
     4    17    15    1
     5    15    14   am
     6    16    14    2
     7    14    13    1
     8    13    12    1
     9    12    11    1
    10     2     3   ar
    11     2     1   ar
    12     3     4   ar
    13     8     1    1
    14     8     7    1
    15     1     6   ar
    16    22    21    2
    17     4    21    1
    18     4     5   ar
    19    11     7    1
    20    21    23    2
    21     9     7    2
    22     6     5   ar
    23     7    10    1
