@<TRIPOS>MOLECULE
1yej_PNF_L_1.pdb
 27 27 0 0 0
SMALL
GASTEIGER

@<TRIPOS>ATOM
      1  C1        11.7240   37.6520   61.5920 C.ar  551  PNF551      0.1469
      2  C2        11.5950   38.9440   61.0990 C.ar  551  PNF551      0.0391
      3  C3        10.3830   39.5810   61.2410 C.ar  551  PNF551      0.0272
      4  C4         9.3230   38.9240   61.8670 C.ar  551  PNF551      0.1431
      5  C5         9.4940   37.6010   62.3560 C.ar  551  PNF551      0.0272
      6  C6        10.7220   36.9360   62.2210 C.ar  551  PNF551      0.0391
      7  P1        14.2130   37.5270   62.3610 P.3   551  PNF551      0.4175
      8  O1        12.9460   37.0450   61.4460 O.3   551  PNF551     -0.4208
      9  O2        14.4460   38.9260   62.1110 O.2   551  PNF551     -0.2411
     10  O3        13.9650   37.0920   63.7470 O.3   551  PNF551     -0.1296
     11  C8        15.5100   36.5790   61.7560 C.3   551  PNF551      0.1318
     12  C9        16.0650   37.0440   60.4760 C.3   551  PNF551      0.0236
     13  C10       17.2700   36.1540   60.2140 C.3   551  PNF551      0.0875
     14  C11       17.6240   36.0770   58.7520 C.2   551  PNF551      0.2414
     15  N2        17.3290   34.9030   58.0520 N.am  551  PNF551     -0.2054
     16  O6        18.1670   37.0950   58.2460 O.2   551  PNF551     -0.2733
     17  C12       17.5900   34.6900   56.7120 C.3   551  PNF551      0.1151
     18  C13       16.5890   33.7390   56.0350 C.3   551  PNF551      0.0234
     19  C14       17.2310   32.9210   54.8670 C.3   551  PNF551      0.0024
     20  C15       17.0470   31.3850   54.9810 C.3   551  PNF551      0.0119
     21  C16       16.7600   30.6380   53.6670 C.3   551  PNF551      0.1141
     22  C17       15.7740   29.4520   53.7680 C.2   551  PNF551      0.3649
     23  O7        15.6460   28.8790   54.7890 O.co2 551  PNF551     -0.2457
     24  O8        15.0990   29.0450   52.8370 O.co2 551  PNF551     -0.2457
     25  N1         8.0130   39.6060   62.0260 N.pl3 551  PNF551      0.0577
     26  O4         7.8500   40.7940   61.7110 O.2   551  PNF551     -0.1261
     27  O5         7.0620   38.9830   62.4940 O.2   551  PNF551     -0.1261
@<TRIPOS>BOND
     1    24    22   ar
     2    21    22    1
     3    21    20    1
     4    22    23   ar
     5    19    20    1
     6    19    18    1
     7    18    17    1
     8    17    15    1
     9    15    14   am
    10    16    14    2
    11    14    13    1
    12    13    12    1
    13    12    11    1
    14     2     3   ar
    15     2     1   ar
    16     3     4   ar
    17     8     1    1
    18     8     7    1
    19     1     6   ar
    20    26    25    2
    21    11     7    1
    22     4    25    1
    23     4     5   ar
    24    25    27    2
    25     9     7    2
    26     6     5   ar
    27     7    10    1
