@<TRIPOS>MOLECULE
1yek_NPO_H_1.pdb
 10 10 0 0 0
SMALL
GASTEIGER

@<TRIPOS>ATOM
      1  C1         8.9100   39.6480   61.9060 C.ar  551  NPO551      0.1431
      2  C2        10.0700   40.0680   61.3230 C.ar  551  NPO551      0.0274
      3  C3        11.1370   39.1960   61.2640 C.ar  551  NPO551      0.0437
      4  C4        11.0380   37.9140   61.7850 C.ar  551  NPO551      0.1958
      5  C5         9.8660   37.4770   62.3700 C.ar  551  NPO551      0.0437
      6  C6         8.7990   38.3520   62.4280 C.ar  551  NPO551      0.0274
      7  OH        12.1270   37.0880   61.7200 O.3   551  NPO551     -0.2866
      8  N1         7.7940   40.5740   62.0350 N.pl3 551  NPO551      0.0577
      9  O2         7.8930   41.7640   61.6960 O.2   551  NPO551     -0.1261
     10  O3         6.7430   40.1510   62.5030 O.2   551  NPO551     -0.1261
@<TRIPOS>BOND
     1     3     2   ar
     2     3     4   ar
     3     2     1   ar
     4     9     8    2
     5     7     4    1
     6     4     5   ar
     7     1     8    1
     8     1     6   ar
     9     8    10    2
    10     5     6   ar
