@<TRIPOS>MOLECULE
1yen_HEM_A_1.pdb
 43 50 0 0 0
SMALL
GASTEIGER

@<TRIPOS>ATOM
      1 FE          8.9550   40.9850  -13.8640 Fe    142  HEM142      0.0000
      2  CHA        7.1680   43.3180  -15.3250 C.2   142  HEM142      0.0000
      3  CHB        6.9090   40.9710  -11.1630 C.2   142  HEM142      0.0000
      4  CHC       10.9490   38.7250  -12.1640 C.2   142  HEM142      0.0000
      5  CHD       11.2880   41.1290  -16.2490 C.2   142  HEM142      0.0000
      6  NA         7.4140   41.9140  -13.3580 N.2   142  HEM142      0.0000
      7  C1A        6.8240   42.9060  -14.0830 C.2   142  HEM142      0.0000
      8  C2A        5.7110   43.4650  -13.3760 C.2   142  HEM142      0.0000
      9  C3A        5.6460   42.8350  -12.2380 C.2   142  HEM142      0.0000
     10  C4A        6.6880   41.8430  -12.1990 C.2   142  HEM142      0.0000
     11  CMA        4.6140   43.1420  -11.1630 C.3   142  HEM142      0.0000
     12  CAA        4.8260   44.6450  -13.8450 C.3   142  HEM142      0.0000
     13  CBA        3.5220   44.3030  -14.5530 C.3   142  HEM142      0.0000
     14  CGA        2.7430   45.5940  -14.7770 C.2   142  HEM142      0.0000
     15  O1A        1.4910   45.5620  -14.8900 O.co2 142  HEM142      0.0000
     16  O2A        3.3820   46.6750  -14.8400 O.co2 142  HEM142      0.0000
     17  NB         8.9770   40.0570  -12.0080 N.ar  142  HEM142      0.0000
     18  C1B        7.9760   40.1090  -11.0670 C.ar  142  HEM142      0.0000
     19  C2B        8.2250   39.1340  -10.0160 C.ar  142  HEM142      0.0000
     20  C3B        9.3400   38.5050  -10.3090 C.ar  142  HEM142      0.0000
     21  C4B        9.8060   39.0710  -11.5460 C.ar  142  HEM142      0.0000
     22  CMB        7.3360   38.8760   -8.7840 C.3   142  HEM142      0.0000
     23  CAB       10.0510   37.3990   -9.5160 C.2   142  HEM142      0.0000
     24  CBB        9.5530   36.9290   -8.3740 C.2   142  HEM142      0.0000
     25  NC        10.6920   40.1650  -14.1290 N.2   142  HEM142      0.0000
     26  C1C       11.3600   39.2490  -13.3530 C.2   142  HEM142      0.0000
     27  C2C       12.6500   38.9320  -13.9110 C.2   142  HEM142      0.0000
     28  C3C       12.6810   39.4880  -15.0950 C.2   142  HEM142      0.0000
     29  C4C       11.5210   40.3220  -15.1970 C.2   142  HEM142      0.0000
     30  CMC       13.5450   37.8040  -13.3490 C.3   142  HEM142      0.0000
     31  CAC       13.8050   39.4340  -16.1380 C.2   142  HEM142      0.0000
     32  CBC       15.0160   38.9950  -15.8390 C.2   142  HEM142      0.0000
     33  ND         9.1840   42.0100  -15.5010 N.ar  142  HEM142      0.0000
     34  C1D       10.2330   41.9590  -16.3830 C.ar  142  HEM142      0.0000
     35  C2D       10.0730   42.9100  -17.4630 C.ar  142  HEM142      0.0000
     36  C3D        8.7490   43.5870  -17.1670 C.ar  142  HEM142      0.0000
     37  C4D        8.3020   42.9680  -15.9530 C.ar  142  HEM142      0.0000
     38  CMD       10.9950   43.1870  -18.6710 C.3   142  HEM142      0.0000
     39  CAD        8.0440   44.6990  -17.9900 C.3   142  HEM142      0.0000
     40  CBD        8.7570   46.0230  -17.7990 C.3   142  HEM142      0.0000
     41  CGD        7.9110   47.1070  -18.3820 C.2   142  HEM142      0.0000
     42  O1D        7.1690   47.7720  -17.6030 O.co2 142  HEM142      0.0000
     43  O2D        8.0310   47.2850  -19.6260 O.co2 142  HEM142      0.0000
@<TRIPOS>BOND
     1    43    41   ar
     2    38    35    1
     3    41    40    1
     4    41    42   ar
     5    39    40    1
     6    39    36    1
     7    35    36   ar
     8    35    34   ar
     9    36    37   ar
    10    34     5    2
    11    34    33   ar
    12     5    29    1
    13    31    32    2
    14    31    28    1
    15    37    33   ar
    16    37     2    2
    17    33     1    1
    18     2     7    1
    19    29    28    1
    20    29    25    2
    21    28    27    2
    22    15    14   ar
    23    16    14   ar
    24    14    13    1
    25    13    12    1
    26    25     1    1
    27    25    26    1
    28     7     8    1
    29     7     6    2
    30    27    26    1
    31    27    30    1
    32     1     6    1
    33     1    17    1
    34    12     8    1
    35     8     9    2
    36     6    10    1
    37    26     4    2
    38     9    10    1
    39     9    11    1
    40    10     3    2
    41     4    21    1
    42    17    21   ar
    43    17    18   ar
    44    21    20   ar
    45     3    18    1
    46    18    19   ar
    47    20    19   ar
    48    20    23    1
    49    19    22    1
    50    23    24    2
