@<TRIPOS>MOLECULE
1yeo_HEM_A_1.pdb
 43 50 0 0 0
SMALL
GASTEIGER

@<TRIPOS>ATOM
      1 FE          8.1720   40.9360  -14.0550 Fe    142  HEM142      0.0000
      2  CHA        6.2640   43.3490  -15.5640 C.2   142  HEM142      0.0000
      3  CHB        6.0670   41.0290  -11.3670 C.2   142  HEM142      0.0000
      4  CHC       10.0840   38.5720  -12.5750 C.2   142  HEM142      0.0000
      5  CHD       10.6090   41.2730  -16.4670 C.2   142  HEM142      0.0000
      6  NA         6.4630   41.9780  -13.5590 N.2   142  HEM142      0.0000
      7  C1A        5.8910   42.9800  -14.3100 C.2   142  HEM142      0.0000
      8  C2A        4.8360   43.5700  -13.5560 C.2   142  HEM142      0.0000
      9  C3A        4.7700   42.9460  -12.3940 C.2   142  HEM142      0.0000
     10  C4A        5.7950   41.9250  -12.3660 C.2   142  HEM142      0.0000
     11  CMA        3.7530   43.2800  -11.2900 C.3   142  HEM142      0.0000
     12  CAA        3.9320   44.7360  -14.0250 C.3   142  HEM142      0.0000
     13  CBA        2.6710   44.1440  -14.6080 C.3   142  HEM142      0.0000
     14  CGA        1.7470   45.2950  -14.9090 C.2   142  HEM142      0.0000
     15  O1A        0.8200   45.5260  -14.0790 O.co2 142  HEM142      0.0000
     16  O2A        1.9470   45.9650  -15.9670 O.co2 142  HEM142      0.0000
     17  NB         8.1300   40.0270  -12.3420 N.ar  142  HEM142      0.0000
     18  C1B        7.1250   40.1330  -11.3930 C.ar  142  HEM142      0.0000
     19  C2B        7.3420   39.1080  -10.4000 C.ar  142  HEM142      0.0000
     20  C3B        8.4500   38.4540  -10.7040 C.ar  142  HEM142      0.0000
     21  C4B        8.9410   39.0000  -11.9430 C.ar  142  HEM142      0.0000
     22  CMB        6.4490   38.9160   -9.1610 C.3   142  HEM142      0.0000
     23  CAB        9.0710   37.2770   -9.9300 C.2   142  HEM142      0.0000
     24  CBB        9.2180   37.3500   -8.6110 C.2   142  HEM142      0.0000
     25  NC        10.0250   40.1130  -14.4190 N.2   142  HEM142      0.0000
     26  C1C       10.5940   39.0990  -13.7100 C.2   142  HEM142      0.0000
     27  C2C       11.8540   38.7470  -14.3080 C.2   142  HEM142      0.0000
     28  C3C       11.9540   39.4370  -15.4410 C.2   142  HEM142      0.0000
     29  C4C       10.8310   40.3390  -15.4960 C.2   142  HEM142      0.0000
     30  CMC       12.6950   37.5510  -13.8490 C.3   142  HEM142      0.0000
     31  CAC       13.0770   39.3780  -16.4950 C.2   142  HEM142      0.0000
     32  CBC       14.3480   39.4300  -16.0820 C.2   142  HEM142      0.0000
     33  ND         8.3930   42.0950  -15.6990 N.ar  142  HEM142      0.0000
     34  C1D        9.4800   42.0580  -16.5690 C.ar  142  HEM142      0.0000
     35  C2D        9.2730   43.0010  -17.6480 C.ar  142  HEM142      0.0000
     36  C3D        7.9390   43.6230  -17.3840 C.ar  142  HEM142      0.0000
     37  C4D        7.4720   43.0270  -16.1540 C.ar  142  HEM142      0.0000
     38  CMD       10.1830   43.3150  -18.8420 C.3   142  HEM142      0.0000
     39  CAD        7.2710   44.7050  -18.2530 C.3   142  HEM142      0.0000
     40  CBD        7.8440   46.0230  -17.7890 C.3   142  HEM142      0.0000
     41  CGD        7.3960   47.1370  -18.6950 C.2   142  HEM142      0.0000
     42  O1D        6.6980   48.0360  -18.1990 O.co2 142  HEM142      0.0000
     43  O2D        7.7520   47.1350  -19.8900 O.co2 142  HEM142      0.0000
@<TRIPOS>BOND
     1    43    41   ar
     2    38    35    1
     3    41    42   ar
     4    41    40    1
     5    39    40    1
     6    39    36    1
     7    35    36   ar
     8    35    34   ar
     9    36    37   ar
    10    34     5    2
    11    34    33   ar
    12    31    32    2
    13    31    28    1
    14     5    29    1
    15    37    33   ar
    16    37     2    2
    17    16    14   ar
    18    33     1    1
    19     2     7    1
    20    29    28    1
    21    29    25    2
    22    28    27    2
    23    14    13    1
    24    14    15   ar
    25    13    12    1
    26    25     1    1
    27    25    26    1
    28     7     6    2
    29     7     8    1
    30    27    30    1
    31    27    26    1
    32     1     6    1
    33     1    17    1
    34    12     8    1
    35    26     4    2
    36     6    10    1
    37     8     9    2
    38     4    21    1
    39     9    10    1
    40     9    11    1
    41    10     3    2
    42    17    21   ar
    43    17    18   ar
    44    21    20   ar
    45    18     3    1
    46    18    19   ar
    47    20    19   ar
    48    20    23    1
    49    19    22    1
    50    23    24    2
