@<TRIPOS>MOLECULE
1yeq_HEM_A_1.pdb
 43 50 0 0 0
SMALL
GASTEIGER

@<TRIPOS>ATOM
      1 FE          8.1040   41.0890  -14.1220 Fe    142  HEM142      0.0000
      2  CHA        6.2950   43.4450  -15.6290 C.2   142  HEM142      0.0000
      3  CHB        5.8090   40.9850  -11.5330 C.2   142  HEM142      0.0000
      4  CHC       10.0170   38.8780  -12.6330 C.2   142  HEM142      0.0000
      5  CHD       10.6470   41.5230  -16.5820 C.2   142  HEM142      0.0000
      6  NA         6.3550   41.9700  -13.6790 N.2   142  HEM142      0.0000
      7  C1A        5.8700   43.0280  -14.4060 C.2   142  HEM142      0.0000
      8  C2A        4.7910   43.6440  -13.6770 C.2   142  HEM142      0.0000
      9  C3A        4.6450   42.9810  -12.5270 C.2   142  HEM142      0.0000
     10  C4A        5.6200   41.9140  -12.5140 C.2   142  HEM142      0.0000
     11  CMA        3.6140   43.2810  -11.4260 C.3   142  HEM142      0.0000
     12  CAA        4.0050   44.8760  -14.1820 C.3   142  HEM142      0.0000
     13  CBA        2.5910   44.5610  -14.6640 C.3   142  HEM142      0.0000
     14  CGA        1.9290   45.8720  -15.0430 C.2   142  HEM142      0.0000
     15  O1A        0.7730   45.8350  -15.5370 O.co2 142  HEM142      0.0000
     16  O2A        2.5440   46.9670  -14.8660 O.co2 142  HEM142      0.0000
     17  NB         7.9080   40.1300  -12.4400 N.ar  142  HEM142      0.0000
     18  C1B        6.9410   40.2070  -11.4640 C.ar  142  HEM142      0.0000
     19  C2B        7.3160   39.3260  -10.3720 C.ar  142  HEM142      0.0000
     20  C3B        8.4770   38.7640  -10.6930 C.ar  142  HEM142      0.0000
     21  C4B        8.8640   39.2520  -11.9930 C.ar  142  HEM142      0.0000
     22  CMB        6.5230   39.1320   -9.0650 C.3   142  HEM142      0.0000
     23  CAB        9.3180   37.7620   -9.8810 C.2   142  HEM142      0.0000
     24  CBB        8.8420   37.2260   -8.7480 C.2   142  HEM142      0.0000
     25  NC         9.9800   40.4180  -14.5290 N.2   142  HEM142      0.0000
     26  C1C       10.5300   39.4010  -13.7910 C.2   142  HEM142      0.0000
     27  C2C       11.8330   39.0760  -14.3340 C.2   142  HEM142      0.0000
     28  C3C       11.9080   39.6720  -15.5240 C.2   142  HEM142      0.0000
     29  C4C       10.8190   40.6070  -15.5980 C.2   142  HEM142      0.0000
     30  CMC       12.6080   37.8080  -13.9160 C.3   142  HEM142      0.0000
     31  CAC       13.0410   39.5700  -16.5660 C.2   142  HEM142      0.0000
     32  CBC       14.3060   39.8140  -16.2260 C.2   142  HEM142      0.0000
     33  ND         8.4280   42.2520  -15.8190 N.ar  142  HEM142      0.0000
     34  C1D        9.5310   42.2980  -16.6730 C.ar  142  HEM142      0.0000
     35  C2D        9.3450   43.3000  -17.6940 C.ar  142  HEM142      0.0000
     36  C3D        7.9830   43.9070  -17.3940 C.ar  142  HEM142      0.0000
     37  C4D        7.5010   43.1980  -16.2260 C.ar  142  HEM142      0.0000
     38  CMD       10.3390   43.6570  -18.8180 C.3   142  HEM142      0.0000
     39  CAD        7.2510   45.0170  -18.1630 C.3   142  HEM142      0.0000
     40  CBD        8.0680   46.2910  -18.1980 C.3   142  HEM142      0.0000
     41  CGD        7.1800   47.4240  -18.6500 C.2   142  HEM142      0.0000
     42  O1D        6.3610   47.9060  -17.8180 O.co2 142  HEM142      0.0000
     43  O2D        7.3010   47.8360  -19.8370 O.co2 142  HEM142      0.0000
@<TRIPOS>BOND
     1    43    41   ar
     2    38    35    1
     3    41    40    1
     4    41    42   ar
     5    40    39    1
     6    39    36    1
     7    35    36   ar
     8    35    34   ar
     9    36    37   ar
    10    34     5    2
    11    34    33   ar
    12     5    29    1
    13    31    32    2
    14    31    28    1
    15    37    33   ar
    16    37     2    2
    17    33     1    1
    18     2     7    1
    19    29    28    1
    20    29    25    2
    21    15    14   ar
    22    28    27    2
    23    14    16   ar
    24    14    13    1
    25    13    12    1
    26    25     1    1
    27    25    26    1
    28     7     6    2
    29     7     8    1
    30    27    30    1
    31    27    26    1
    32    12     8    1
    33     1     6    1
    34     1    17    1
    35    26     4    2
    36     6    10    1
    37     8     9    2
    38     4    21    1
    39     9    10    1
    40     9    11    1
    41    10     3    2
    42    17    21   ar
    43    17    18   ar
    44    21    20   ar
    45     3    18    1
    46    18    19   ar
    47    20    19   ar
    48    20    23    1
    49    19    22    1
    50    23    24    2
