@<TRIPOS>MOLECULE
1yet_GDM_A_1.pdb
 40 41 0 0 0
SMALL
GASTEIGER

@<TRIPOS>ATOM
      1  O1        38.4350  -50.9890   68.1470 O.2   275  GDM275     -0.2096
      2  O2        37.5890  -47.3870   62.6380 O.3   275  GDM275     -0.3451
      3  O3        37.9680  -44.7170   63.2480 O.3   275  GDM275     -0.4290
      4  O4        38.9370  -43.2560   61.7630 O.2   275  GDM275     -0.2227
      5  O5        44.9430  -43.4780   64.4210 O.3   275  GDM275     -0.2202
      6  O6        45.4050  -46.2650   63.7580 O.3   275  GDM275     -0.3510
      7  O7        43.2450  -44.8190   68.5200 O.2   275  GDM275     -0.4687
      8  O8        40.6420  -44.5160   69.2530 O.2   275  GDM275     -0.2877
      9  O9        42.1120  -49.4480   68.1200 O.2   275  GDM275     -0.2844
     10  N1        39.5890  -49.1610   68.8170 N.2   275  GDM275     -0.3338
     11  N2        36.7290  -43.1860   62.2470 N.am  275  GDM275     -0.0475
     12  C1        39.2170  -50.1180   67.8480 C.1   275  GDM275      0.2003
     13  C2        39.8780  -50.0730   66.5040 C.2   275  GDM275      0.0728
     14  C3        39.7130  -48.9800   65.7140 C.2   275  GDM275      0.0081
     15  C4        40.2930  -48.7990   64.3870 C.2   275  GDM275     -0.0016
     16  C5        39.8560  -47.9390   63.4440 C.2   275  GDM275      0.0069
     17  C6        38.7090  -46.9950   63.5290 C.3   275  GDM275      0.1811
     18  C7        39.1110  -45.5010   63.1470 C.3   275  GDM275      0.2197
     19  C8        40.2740  -44.8800   64.1120 C.2   275  GDM275     -0.0059
     20  C9        41.4060  -44.4320   63.5920 C.2   275  GDM275     -0.0288
     21  C10       42.5670  -43.7870   64.2880 C.3   275  GDM275      0.0544
     22  C11       43.9320  -44.3370   63.8430 C.3   275  GDM275      0.1828
     23  C12       44.1430  -45.7890   64.2740 C.3   275  GDM275      0.1458
     24  C13       44.1980  -45.9760   65.7870 C.3   275  GDM275      0.0325
     25  C14       44.3630  -47.4320   66.2830 C.3   275  GDM275      0.0071
     26  C15       44.1620  -47.5820   67.8310 C.3   275  GDM275      0.0330
     27  C16       42.7820  -47.1900   68.2720 C.2   275  GDM275      0.0558
     28  C17       42.3590  -45.9580   68.5760 C.2   275  GDM275      0.1727
     29  C18       40.9730  -45.6670   68.9870 C.2   275  GDM275      0.2136
     30  C19       40.0010  -46.7620   69.0660 C.3   275  GDM275      0.1355
     31  C20       40.3710  -48.0090   68.7820 C.2   275  GDM275      0.1682
     32  C21       41.7830  -48.2910   68.3730 C.2   275  GDM275      0.2212
     33  C22       40.6640  -51.2890   66.1240 C.3   275  GDM275      0.0447
     34  C23       37.8540  -48.5360   61.7580 C.3   275  GDM275      0.1746
     35  C24       37.9700  -43.6720   62.3560 C.2   275  GDM275      0.4413
     36  C25       39.9400  -44.8150   65.6040 C.3   275  GDM275      0.0297
     37  C26       42.4790  -42.2760   63.9780 C.3   275  GDM275      0.0074
     38  C27       45.4000  -46.4540   62.3080 C.3   275  GDM275      0.1741
     39  C28       43.4520  -48.3420   65.5110 C.3   275  GDM275      0.0004
     40  C29       44.6220  -44.8250   68.9240 C.3   275  GDM275      0.2526
@<TRIPOS>BOND
     1    34     2    1
     2     4    35    2
     3    11    35   am
     4    38     6    1
     5    35     3    1
     6     2    17    1
     7    18     3    1
     8    18    17    1
     9    18    19    1
    10    16    17    1
    11    16    15    2
    12    20    19    2
    13    20    21    1
    14     6    23    1
    15    22    23    1
    16    22    21    1
    17    22     5    1
    18    37    21    1
    19    19    36    1
    20    23    24    1
    21    15    14    1
    22    39    25    1
    23    14    13    2
    24    24    25    1
    25    33    13    1
    26    25    26    1
    27    13    12    1
    28    26    27    1
    29    12     1    2
    30    12    10    2
    31     9    32    2
    32    27    32    1
    33    27    28    2
    34    32    31    1
    35     7    28    1
    36     7    40    1
    37    28    29    1
    38    31    10    2
    39    31    30    1
    40    29    30    1
    41    29     8    2
