@<TRIPOS>MOLECULE
1yeu_HEM_A_1.pdb
 43 50 0 0 0
SMALL
GASTEIGER

@<TRIPOS>ATOM
      1 FE          8.2660   40.9080  -14.0250 Fe    142  HEM142      0.0000
      2  CHA        6.3150   43.3130  -15.5850 C.2   142  HEM142      0.0000
      3  CHB        6.1070   40.9530  -11.4310 C.2   142  HEM142      0.0000
      4  CHC       10.1900   38.5780  -12.5010 C.2   142  HEM142      0.0000
      5  CHD       10.6170   41.2640  -16.4230 C.2   142  HEM142      0.0000
      6  NA         6.5080   41.9340  -13.5990 N.2   142  HEM142      0.0000
      7  C1A        5.9400   42.9240  -14.3340 C.2   142  HEM142      0.0000
      8  C2A        4.8410   43.4770  -13.6020 C.2   142  HEM142      0.0000
      9  C3A        4.7640   42.8440  -12.4600 C.2   142  HEM142      0.0000
     10  C4A        5.8180   41.8450  -12.4320 C.2   142  HEM142      0.0000
     11  CMA        3.7190   43.1350  -11.3650 C.3   142  HEM142      0.0000
     12  CAA        3.9580   44.6330  -14.0950 C.3   142  HEM142      0.0000
     13  CBA        2.6240   44.2270  -14.6820 C.3   142  HEM142      0.0000
     14  CGA        2.0460   45.5000  -15.2960 C.2   142  HEM142      0.0000
     15  O1A        1.2770   45.3760  -16.2650 O.co2 142  HEM142      0.0000
     16  O2A        2.3760   46.6450  -14.8730 O.co2 142  HEM142      0.0000
     17  NB         8.1950   39.9720  -12.3700 N.ar  142  HEM142      0.0000
     18  C1B        7.1990   40.0840  -11.4380 C.ar  142  HEM142      0.0000
     19  C2B        7.4460   39.0970  -10.4210 C.ar  142  HEM142      0.0000
     20  C3B        8.5660   38.4760  -10.6600 C.ar  142  HEM142      0.0000
     21  C4B        9.0240   38.9680  -11.9060 C.ar  142  HEM142      0.0000
     22  CMB        6.5420   38.9320   -9.1900 C.3   142  HEM142      0.0000
     23  CAB        9.2000   37.3190   -9.8510 C.2   142  HEM142      0.0000
     24  CBB        9.3090   37.3010   -8.5410 C.2   142  HEM142      0.0000
     25  NC        10.0970   40.1250  -14.3730 N.2   142  HEM142      0.0000
     26  C1C       10.6920   39.1540  -13.6380 C.2   142  HEM142      0.0000
     27  C2C       11.9630   38.8440  -14.2150 C.2   142  HEM142      0.0000
     28  C3C       12.0350   39.4980  -15.3640 C.2   142  HEM142      0.0000
     29  C4C       10.8870   40.3730  -15.4290 C.2   142  HEM142      0.0000
     30  CMC       12.7850   37.6480  -13.7060 C.3   142  HEM142      0.0000
     31  CAC       13.1670   39.4500  -16.3680 C.2   142  HEM142      0.0000
     32  CBC       14.4180   39.4090  -15.8790 C.2   142  HEM142      0.0000
     33  ND         8.4130   42.0480  -15.7100 N.ar  142  HEM142      0.0000
     34  C1D        9.4950   42.0170  -16.5670 C.ar  142  HEM142      0.0000
     35  C2D        9.2960   42.9680  -17.6460 C.ar  142  HEM142      0.0000
     36  C3D        7.9700   43.5890  -17.4100 C.ar  142  HEM142      0.0000
     37  C4D        7.5150   43.0040  -16.1760 C.ar  142  HEM142      0.0000
     38  CMD       10.2180   43.3020  -18.8310 C.3   142  HEM142      0.0000
     39  CAD        7.3120   44.6780  -18.2930 C.3   142  HEM142      0.0000
     40  CBD        7.7290   45.9980  -17.6740 C.3   142  HEM142      0.0000
     41  CGD        7.3310   47.1820  -18.5270 C.2   142  HEM142      0.0000
     42  O1D        6.7460   48.1280  -17.9540 O.co2 142  HEM142      0.0000
     43  O2D        7.6570   47.2050  -19.7340 O.co2 142  HEM142      0.0000
@<TRIPOS>BOND
     1    43    41   ar
     2    38    35    1
     3    41    42   ar
     4    41    40    1
     5    39    40    1
     6    39    36    1
     7    35    36   ar
     8    35    34   ar
     9    36    37   ar
    10    34     5    2
    11    34    33   ar
    12     5    29    1
    13    31    32    2
    14    31    28    1
    15    15    14   ar
    16    37    33   ar
    17    37     2    2
    18    33     1    1
    19     2     7    1
    20    29    28    1
    21    29    25    2
    22    28    27    2
    23    14    16   ar
    24    14    13    1
    25    13    12    1
    26    25     1    1
    27    25    26    1
    28     7     8    1
    29     7     6    2
    30    27    30    1
    31    27    26    1
    32    12     8    1
    33     1     6    1
    34     1    17    1
    35    26     4    2
    36     8     9    2
    37     6    10    1
    38     4    21    1
    39     9    10    1
    40     9    11    1
    41    10     3    2
    42    17    21   ar
    43    17    18   ar
    44    21    20   ar
    45    18     3    1
    46    18    19   ar
    47    20    19   ar
    48    20    23    1
    49    19    22    1
    50    23    24    2
