@<TRIPOS>MOLECULE
1yev_HEM_A_1.pdb
 43 50 0 0 0
SMALL
GASTEIGER

@<TRIPOS>ATOM
      1 FE          8.1740   40.9620  -13.9570 Fe    142  HEM142      0.0000
      2  CHA        6.3330   43.4190  -15.4790 C.2   142  HEM142      0.0000
      3  CHB        6.0390   41.0160  -11.2970 C.2   142  HEM142      0.0000
      4  CHC       10.0830   38.6110  -12.4920 C.2   142  HEM142      0.0000
      5  CHD       10.5130   41.2500  -16.4300 C.2   142  HEM142      0.0000
      6  NA         6.5220   42.0150  -13.4840 N.2   142  HEM142      0.0000
      7  C1A        5.9410   42.9990  -14.2430 C.2   142  HEM142      0.0000
      8  C2A        4.8280   43.5400  -13.5210 C.2   142  HEM142      0.0000
      9  C3A        4.7490   42.9090  -12.3710 C.2   142  HEM142      0.0000
     10  C4A        5.8030   41.9180  -12.3100 C.2   142  HEM142      0.0000
     11  CMA        3.6930   43.2090  -11.3030 C.3   142  HEM142      0.0000
     12  CAA        3.9230   44.7100  -13.9560 C.3   142  HEM142      0.0000
     13  CBA        2.5780   44.2690  -14.4570 C.3   142  HEM142      0.0000
     14  CGA        1.9290   45.4850  -15.0930 C.2   142  HEM142      0.0000
     15  O1A        0.9570   45.2250  -15.8280 O.co2 142  HEM142      0.0000
     16  O2A        2.3720   46.6690  -14.9170 O.co2 142  HEM142      0.0000
     17  NB         8.0880   40.0330  -12.2520 N.ar  142  HEM142      0.0000
     18  C1B        7.0780   40.1030  -11.3200 C.ar  142  HEM142      0.0000
     19  C2B        7.3220   39.0830  -10.3440 C.ar  142  HEM142      0.0000
     20  C3B        8.4250   38.4640  -10.6480 C.ar  142  HEM142      0.0000
     21  C4B        8.9400   39.0350  -11.8440 C.ar  142  HEM142      0.0000
     22  CMB        6.4780   38.7810   -9.0970 C.3   142  HEM142      0.0000
     23  CAB        8.9720   37.3130   -9.8090 C.2   142  HEM142      0.0000
     24  CBB        9.1740   37.5440   -8.5300 C.2   142  HEM142      0.0000
     25  NC         9.9690   40.1160  -14.3410 N.2   142  HEM142      0.0000
     26  C1C       10.5620   39.1190  -13.6320 C.2   142  HEM142      0.0000
     27  C2C       11.8200   38.7820  -14.2670 C.2   142  HEM142      0.0000
     28  C3C       11.9170   39.4970  -15.3830 C.2   142  HEM142      0.0000
     29  C4C       10.7610   40.3630  -15.4190 C.2   142  HEM142      0.0000
     30  CMC       12.7430   37.6570  -13.8070 C.3   142  HEM142      0.0000
     31  CAC       13.0370   39.4630  -16.4330 C.2   142  HEM142      0.0000
     32  CBC       14.3040   39.3320  -15.9770 C.2   142  HEM142      0.0000
     33  ND         8.3830   42.1160  -15.6810 N.ar  142  HEM142      0.0000
     34  C1D        9.4200   42.0470  -16.5580 C.ar  142  HEM142      0.0000
     35  C2D        9.1960   42.9550  -17.6740 C.ar  142  HEM142      0.0000
     36  C3D        7.8870   43.6030  -17.3830 C.ar  142  HEM142      0.0000
     37  C4D        7.4710   43.0560  -16.1220 C.ar  142  HEM142      0.0000
     38  CMD       10.1020   43.1980  -18.8970 C.3   142  HEM142      0.0000
     39  CAD        7.1920   44.6740  -18.2380 C.3   142  HEM142      0.0000
     40  CBD        7.7710   45.9590  -17.6950 C.3   142  HEM142      0.0000
     41  CGD        7.1630   47.1390  -18.4120 C.2   142  HEM142      0.0000
     42  O1D        6.6340   48.0040  -17.6940 O.co2 142  HEM142      0.0000
     43  O2D        7.2160   47.1920  -19.6500 O.co2 142  HEM142      0.0000
@<TRIPOS>BOND
     1    43    41   ar
     2    38    35    1
     3    41    40    1
     4    41    42   ar
     5    39    40    1
     6    39    36    1
     7    35    36   ar
     8    35    34   ar
     9    36    37   ar
    10    34     5    2
    11    34    33   ar
    12    31    32    2
    13    31    28    1
    14     5    29    1
    15    37    33   ar
    16    37     2    2
    17    15    14   ar
    18    33     1    1
    19     2     7    1
    20    29    28    1
    21    29    25    2
    22    28    27    2
    23    14    16   ar
    24    14    13    1
    25    13    12    1
    26    25     1    1
    27    25    26    1
    28    27    30    1
    29    27    26    1
    30     7     8    1
    31     7     6    2
    32     1     6    1
    33     1    17    1
    34    12     8    1
    35    26     4    2
    36     8     9    2
    37     6    10    1
    38     4    21    1
    39     9    10    1
    40     9    11    1
    41    10     3    2
    42    17    21   ar
    43    17    18   ar
    44    21    20   ar
    45    18     3    1
    46    18    19   ar
    47    20    19   ar
    48    20    23    1
    49    19    22    1
    50    23    24    2
