@<TRIPOS>MOLECULE
1yf3_SAH_A_1.pdb
 26 28 0 0 0
SMALL
GASTEIGER

@<TRIPOS>ATOM
      1  N         13.4050   10.5100   38.3930 N.3   400  SAH400     -0.1208
      2  CA        12.3050   11.3340   37.7290 C.3   400  SAH400      0.1952
      3  CB        11.0140   10.6690   37.3750 C.3   400  SAH400      0.0422
      4  CG        10.9780    9.4640   36.4640 C.3   400  SAH400      0.0597
      5  SD         9.2800    9.4430   35.7820 S.3   400  SAH400     -0.1375
      6  C         12.0220   12.5620   38.6820 C.2   400  SAH400      0.3819
      7  O         12.6700   12.6740   39.7440 O.co2 400  SAH400     -0.2441
      8  OXT       11.1080   13.3900   38.2740 O.co2 400  SAH400     -0.2441
      9  C5'        9.3410    8.1790   34.5870 C.3   400  SAH400      0.0899
     10  C4'        9.8730    8.7580   33.2010 C.3   400  SAH400      0.1630
     11  O4'        9.8520    7.6330   32.3450 O.3   400  SAH400     -0.3153
     12  C3'        9.0110    9.7720   32.4760 C.3   400  SAH400      0.2168
     13  O3'        9.6240   11.0600   32.5120 O.3   400  SAH400     -0.2175
     14  C2'        8.8820    9.1440   31.0180 C.3   400  SAH400      0.2569
     15  O2'        8.9290   10.1280   29.9880 O.3   400  SAH400     -0.2130
     16  C1'       10.0400    8.1450   30.9880 C.3   400  SAH400      0.3185
     17  N9         9.9510    7.1160   30.1310 N.pl3 400  SAH400     -0.1439
     18  C8         8.9330    6.2660   29.7450 C.3   400  SAH400      0.3377
     19  N7         9.2720    5.3650   28.8740 N.2   400  SAH400     -0.2095
     20  C5        10.6520    5.6090   28.6310 C.2   400  SAH400      0.2526
     21  C6        11.6040    4.9480   27.7730 C.2   400  SAH400      0.4393
     22  N6        11.3080    3.9000   26.9940 N.pl3 400  SAH400      0.2180
     23  N1        12.8710    5.4750   27.8020 N.2   400  SAH400      0.0021
     24  C2        13.2230    6.5370   28.5780 C.3   400  SAH400      0.5254
     25  N3        12.3430    7.1900   29.4120 N.2   400  SAH400     -0.0055
     26  C4        11.0810    6.6710   29.3850 C.2   400  SAH400      0.3518
@<TRIPOS>BOND
     1    22    21    1
     2    21    23    2
     3    21    20    1
     4    23    24    1
     5    24    25    1
     6    20    19    2
     7    20    26    1
     8    19    18    1
     9    26    25    2
    10    26    17    1
    11    18    17    1
    12    15    14    1
    13    17    16    1
    14    16    14    1
    15    16    11    1
    16    14    12    1
    17    11    10    1
    18    12    13    1
    19    12    10    1
    20    10     9    1
    21     9     5    1
    22     5     4    1
    23     4     3    1
    24     3     2    1
    25     2     1    1
    26     2     6    1
    27     8     6   ar
    28     6     7   ar
