@<TRIPOS>MOLECULE
1yf6_SPO_M_1.pdb
 42 41 0 0 0
SMALL
GASTEIGER

@<TRIPOS>ATOM
      1  CM1       89.2250   79.0620   86.5390 C.3   860  SPO860      0.1739
      2  O1        89.1190   80.4880   86.4760 O.3   860  SPO860     -0.3555
      3  C1        89.3190   81.4020   85.4150 C.3   860  SPO860      0.0970
      4  C2        90.8030   81.7270   85.3620 C.3   860  SPO860      0.0300
      5  C3        88.6250   82.7020   85.7950 C.3   860  SPO860      0.0300
      6  C4        88.8520   80.9600   84.0100 C.3   860  SPO860      0.0532
      7  C5        87.5290   80.2000   84.0600 C.2   860  SPO860     -0.0240
      8  C6        86.6000   80.4870   83.1060 C.2   860  SPO860     -0.0088
      9  C7        85.3270   79.7520   82.8670 C.2   860  SPO860     -0.0222
     10  C8        84.8300   78.7870   83.9240 C.3   860  SPO860      0.0310
     11  C9        84.7080   79.9100   81.6270 C.2   860  SPO860     -0.0043
     12  C10       83.4840   79.1960   81.1560 C.2   860  SPO860     -0.0007
     13  C11       82.9210   79.4520   79.9690 C.2   860  SPO860     -0.0046
     14  C12       81.7200   78.7840   79.3810 C.2   860  SPO860     -0.0258
     15  C13       81.0210   77.7180   80.1370 C.3   860  SPO860      0.0307
     16  C14       81.3760   79.1030   78.1000 C.2   860  SPO860     -0.0257
     17  C15       80.2740   78.5740   77.2890 C.3   860  SPO860      0.0513
     18  C16       79.8470   79.0930   76.0880 C.2   860  SPO860     -0.0257
     19  C17       78.7120   78.4770   75.3780 C.2   860  SPO860     -0.0261
     20  C18       78.1720   77.1650   75.9060 C.3   860  SPO860      0.0307
     21  C19       77.9530   78.6320   74.2800 C.2   860  SPO860     -0.0088
     22  C20       77.8080   79.5750   73.3340 C.2   860  SPO860     -0.0218
     23  C21       76.9580   79.6460   72.3120 C.3   860  SPO860      0.0517
     24  C22       77.2980   80.9720   71.7480 C.2   860  SPO860     -0.0257
     25  C23       76.8060   81.7080   70.7550 C.2   860  SPO860     -0.0258
     26  C24       75.7580   81.2420   69.8630 C.3   860  SPO860      0.0307
     27  C25       77.4190   83.0710   70.6130 C.2   860  SPO860     -0.0046
     28  C26       77.3110   83.9180   69.5900 C.2   860  SPO860     -0.0010
     29  C27       78.0530   85.2030   69.6850 C.2   860  SPO860     -0.0085
     30  C28       78.1940   86.1040   68.6910 C.2   860  SPO860     -0.0436
     31  C29       77.6160   85.9110   67.3420 C.3   860  SPO860      0.0264
     32  C30       78.9120   87.4490   68.9360 C.3   860  SPO860      0.0267
     33  C31       77.9070   88.6030   68.6880 C.3   860  SPO860      0.0297
     34  C32       78.4700   89.9290   69.1260 C.2   860  SPO860     -0.0342
     35  C33       77.8850   90.8820   69.9270 C.2   860  SPO860     -0.0478
     36  C34       76.5360   90.6340   70.5170 C.3   860  SPO860      0.0260
     37  C35       78.6300   92.1730   70.2780 C.3   860  SPO860      0.0263
     38  C36       78.3110   93.4710   69.5260 C.3   860  SPO860      0.0297
     39  C37       79.2860   93.6840   68.3520 C.2   860  SPO860     -0.0342
     40  C38       79.5610   94.8120   67.5550 C.2   860  SPO860     -0.0478
     41  C39       78.8670   96.1430   67.7680 C.3   860  SPO860      0.0260
     42  C40       80.5840   94.6890   66.4190 C.3   860  SPO860      0.0260
@<TRIPOS>BOND
     1    42    40    1
     2    31    30    1
     3    40    41    1
     4    40    39    2
     5    39    38    1
     6    33    32    1
     7    33    34    1
     8    30    32    1
     9    30    29    2
    10    34    35    2
    11    38    37    1
    12    28    29    1
    13    28    27    2
    14    26    25    1
    15    35    37    1
    16    35    36    1
    17    27    25    1
    18    25    24    2
    19    24    23    1
    20    23    22    1
    21    22    21    2
    22    21    19    1
    23    19    20    1
    24    19    18    2
    25    18    17    1
    26    17    16    1
    27    16    14    2
    28    14    13    1
    29    14    15    1
    30    13    12    2
    31    12    11    1
    32    11     9    2
    33     9     8    1
    34     9    10    1
    35     8     7    2
    36     6     7    1
    37     6     3    1
    38     4     3    1
    39     3     5    1
    40     3     2    1
    41     2     1    1
