@<TRIPOS>MOLECULE
1yf6_U10_L_1.pdb
 16 16 0 0 0
SMALL
GASTEIGER

@<TRIPOS>ATOM
      1  C1        91.6360   67.2980   62.9590 C.2   858  U10858      0.0234
      2  C2        91.4600   67.2370   61.4830 C.2   858  U10858      0.2285
      3  C3        92.6340   67.2980   60.5500 C.2   858  U10858      0.2140
      4  C4        93.8740   67.4140   61.1180 C.2   858  U10858      0.2143
      5  C5        94.0860   67.4730   62.5770 C.2   858  U10858      0.2321
      6  C6        92.9150   67.4110   63.5280 C.2   858  U10858      0.0410
      7  C1M       90.3790   67.2360   63.8380 C.3   858  U10858      0.0346
      8  C3M       91.9710   68.0820   58.1220 C.3   858  U10858      0.2528
      9  C4M       95.9770   66.4220   60.1750 C.3   858  U10858      0.2528
     10  C7        93.2460   67.4880   65.0330 C.2   858  U10858     -0.0015
     11  C8        93.4560   66.2140   65.7080 C.2   858  U10858     -0.0257
     12  C9        93.5450   65.9570   67.0800 C.3   858  U10858      0.0307
     13  O2        90.3680   67.1380   60.9170 O.2   858  U10858     -0.2835
     14  O3        92.2790   67.2290   59.1500 O.2   858  U10858     -0.4652
     15  O4        95.0520   67.4940   60.2140 O.2   858  U10858     -0.4652
     16  O5        95.1870   67.5770   63.1250 O.2   858  U10858     -0.2832
@<TRIPOS>BOND
     1     8    14    1
     2    14     3    1
     3     9    15    1
     4    15     4    1
     5     3     4    2
     6     3     2    1
     7    13     2    2
     8     4     5    1
     9     2     1    1
    10     5    16    2
    11     5     6    1
    12     1     6    2
    13     1     7    1
    14     6    10    1
    15    10    11    2
    16    11    12    1
