@<TRIPOS>MOLECULE
1yff_HEM_A_1.pdb
 43 50 0 0 0
SMALL
GASTEIGER

@<TRIPOS>ATOM
      1 FE          7.5090   15.1600  -39.0860 Fe    142  HEM142      0.0000
      2  CHA        6.3740   12.7690  -41.1800 C.2   142  HEM142      0.0000
      3  CHB        4.8390   17.0830  -39.8500 C.2   142  HEM142      0.0000
      4  CHC        8.5450   17.4580  -36.8930 C.2   142  HEM142      0.0000
      5  CHD       10.3220   13.4060  -38.6070 C.2   142  HEM142      0.0000
      6  NA         5.9440   14.9610  -40.2460 N.ar  142  HEM142      0.0000
      7  C1A        5.5930   13.8820  -41.0280 C.ar  142  HEM142      0.0000
      8  C2A        4.4060   14.1470  -41.8200 C.ar  142  HEM142      0.0000
      9  C3A        3.9950   15.3910  -41.4620 C.ar  142  HEM142      0.0000
     10  C4A        4.9470   15.8740  -40.4850 C.ar  142  HEM142      0.0000
     11  CMA        2.7860   16.1630  -41.9840 C.3   142  HEM142      0.0000
     12  CAA        3.8030   13.2760  -42.9230 C.3   142  HEM142      0.0000
     13  CBA        2.8970   12.1550  -42.4270 C.3   142  HEM142      0.0000
     14  CGA        2.1170   11.4800  -43.5430 C.2   142  HEM142      0.0000
     15  O1A        2.6460   11.3470  -44.6670 O.co2 142  HEM142      0.0000
     16  O2A        0.9600   11.0770  -43.2870 O.co2 142  HEM142      0.0000
     17  NB         6.8140   16.8780  -38.4610 N.2   142  HEM142      0.0000
     18  C1B        5.7020   17.5480  -38.8870 C.2   142  HEM142      0.0000
     19  C2B        5.5380   18.7970  -38.1770 C.2   142  HEM142      0.0000
     20  C3B        6.5670   18.9040  -37.2750 C.2   142  HEM142      0.0000
     21  C4B        7.3490   17.7010  -37.4960 C.2   142  HEM142      0.0000
     22  CMB        4.3710   19.7400  -38.4280 C.3   142  HEM142      0.0000
     23  CAB        6.7880   19.8320  -36.2440 C.3   142  HEM142      0.0000
     24  CBB        7.2770   21.1950  -36.3730 C.3   142  HEM142      0.0000
     25  NC         9.0890   15.3770  -37.9990 N.ar  142  HEM142      0.0000
     26  C1C        9.3700   16.3970  -37.1480 C.ar  142  HEM142      0.0000
     27  C2C       10.6710   16.2590  -36.5770 C.ar  142  HEM142      0.0000
     28  C3C       11.2400   15.1360  -37.0900 C.ar  142  HEM142      0.0000
     29  C4C       10.2050   14.5900  -37.9450 C.ar  142  HEM142      0.0000
     30  CMC       11.1520   17.2220  -35.5190 C.3   142  HEM142      0.0000
     31  CAC       12.4750   14.5370  -36.8680 C.3   142  HEM142      0.0000
     32  CBC       13.7710   15.0990  -37.1580 C.3   142  HEM142      0.0000
     33  ND         8.1930   13.4510  -39.7350 N.2   142  HEM142      0.0000
     34  C1D        9.3890   12.8690  -39.4410 C.2   142  HEM142      0.0000
     35  C2D        9.6090   11.6820  -40.2120 C.2   142  HEM142      0.0000
     36  C3D        8.5550   11.5470  -41.0650 C.2   142  HEM142      0.0000
     37  C4D        7.6280   12.5930  -40.6520 C.2   142  HEM142      0.0000
     38  CMD       10.7990   10.7540  -40.0250 C.3   142  HEM142      0.0000
     39  CAD        8.5760   10.8190  -42.4120 C.3   142  HEM142      0.0000
     40  CBD        7.4140    9.9650  -42.8960 C.3   142  HEM142      0.0000
     41  CGD        7.4910    9.6800  -44.3860 C.2   142  HEM142      0.0000
     42  O1D        6.5240   10.0180  -45.1030 O.co2 142  HEM142      0.0000
     43  O2D        8.5170    9.1310  -44.8440 O.co2 142  HEM142      0.0000
@<TRIPOS>BOND
     1    42    41   ar
     2    43    41   ar
     3    15    14   ar
     4    41    40    1
     5    14    16   ar
     6    14    13    1
     7    12    13    1
     8    12     8    1
     9    40    39    1
    10    39    36    1
    11    11     9    1
    12     8     9   ar
    13     8     7   ar
    14     9    10   ar
    15     2     7    2
    16     2    37    1
    17    36    37    1
    18    36    35    2
    19     7     6   ar
    20    37    33    2
    21    10     6   ar
    22    10     3    2
    23     6     1    1
    24    35    38    1
    25    35    34    1
    26     3    18    1
    27    33    34    1
    28    33     1    1
    29    34     5    2
    30     1    17    1
    31     1    25    1
    32    18    17    2
    33    18    19    1
    34     5    29    1
    35    17    21    1
    36    22    19    1
    37    19    20    2
    38    25    29   ar
    39    25    26   ar
    40    29    28   ar
    41    21    20    1
    42    21     4    2
    43    20    23    1
    44    32    31    1
    45    26     4    1
    46    26    27   ar
    47    28    31    1
    48    28    27   ar
    49    27    30    1
    50    24    23    1
