@<TRIPOS>MOLECULE
1yfj_SAH_A_1.pdb
 26 28 0 0 0
SMALL
GASTEIGER

@<TRIPOS>ATOM
      1  N         52.1070  158.9340   77.0280 N.3   401  SAH401     -0.1208
      2  CA        52.8740  158.3120   78.1750 C.3   401  SAH401      0.1952
      3  CB        53.9030  159.1310   78.8510 C.3   401  SAH401      0.0422
      4  CG        55.0280  159.6630   78.0080 C.3   401  SAH401      0.0597
      5  SD        56.2080  160.3740   79.1670 S.3   401  SAH401     -0.1375
      6  C         51.8030  157.8230   79.1870 C.2   401  SAH401      0.3819
      7  O         50.6130  158.0070   78.9190 O.co2 401  SAH401     -0.2441
      8  OXT       52.2510  157.2380   80.2470 O.co2 401  SAH401     -0.2441
      9  C5'       57.6780  160.5260   78.1780 C.3   401  SAH401      0.0899
     10  C4'       58.4380  159.1240   77.9950 C.3   401  SAH401      0.1630
     11  O4'       59.5660  159.4750   77.2530 O.3   401  SAH401     -0.3153
     12  C3'       59.0120  158.4960   79.2210 C.3   401  SAH401      0.2168
     13  O3'       58.3500  157.2850   79.4870 O.3   401  SAH401     -0.2175
     14  C2'       60.5510  158.3270   78.8780 C.3   401  SAH401      0.2569
     15  O2'       61.1090  157.1470   79.4400 O.3   401  SAH401     -0.2130
     16  C1'       60.5520  158.3710   77.3580 C.3   401  SAH401      0.3185
     17  N9        61.6410  158.8090   76.7430 N.pl3 401  SAH401     -0.1439
     18  C8        62.5850  159.7440   77.0830 C.3   401  SAH401      0.3377
     19  N7        63.5090  159.9400   76.2140 N.2   401  SAH401     -0.2095
     20  C5        63.1870  159.0810   75.1760 C.2   401  SAH401      0.2526
     21  C6        63.8290  158.8780   73.9230 C.2   401  SAH401      0.4393
     22  N6        64.9390  159.5630   73.5470 N.pl3 401  SAH401      0.2180
     23  N1        63.2190  157.9190   73.1140 N.2   401  SAH401      0.0021
     24  C2        62.1060  157.2410   73.4890 C.3   401  SAH401      0.5254
     25  N3        61.4550  157.4310   74.6970 N.2   401  SAH401     -0.0055
     26  C4        62.0510  158.3630   75.4790 C.2   401  SAH401      0.3518
@<TRIPOS>BOND
     1    23    24    1
     2    23    21    2
     3    24    25    1
     4    22    21    1
     5    21    20    1
     6    25    26    2
     7    20    26    1
     8    20    19    2
     9    26    17    1
    10    19    18    1
    11    17    18    1
    12    17    16    1
    13     1     2    1
    14    11    16    1
    15    11    10    1
    16    16    14    1
    17    10     9    1
    18    10    12    1
    19     4     3    1
    20     4     5    1
    21     2     3    1
    22     2     6    1
    23     9     5    1
    24    14    12    1
    25    14    15    1
    26     7     6   ar
    27     6     8   ar
    28    12    13    1
