@<TRIPOS>MOLECULE
1yfk_CIT_A_1.pdb
 13 12 0 0 0
SMALL
GASTEIGER

@<TRIPOS>ATOM
      1  C1         1.9590   -2.9200   55.0190 C.2   500  CIT500      0.3680
      2  O1         1.3710   -3.5890   55.9250 O.co2 500  CIT500     -0.2455
      3  O2         2.6480   -1.9960   55.2920 O.co2 500  CIT500     -0.2455
      4  C2         1.7640   -3.3870   53.6090 C.3   500  CIT500      0.1560
      5  C3         2.4880   -2.5330   52.5260 C.3   500  CIT500      0.2402
      6  O7         3.9030   -2.4730   52.7820 O.3   500  CIT500     -0.2129
      7  C4         2.2600   -3.1520   51.1070 C.3   500  CIT500      0.1560
      8  C5         3.1140   -4.4580   51.0280 C.2   500  CIT500      0.3680
      9  O3         4.3390   -4.5840   50.8990 O.co2 500  CIT500     -0.2455
     10  O4         2.3060   -5.4520   51.1420 O.co2 500  CIT500     -0.2455
     11  C6         2.1990   -1.0060   52.2460 C.2   500  CIT500      0.3927
     12  O5         2.6750   -0.2600   51.3740 O.co2 500  CIT500     -0.2429
     13  O6         1.3440   -0.6900   53.1240 O.co2 500  CIT500     -0.2429
@<TRIPOS>BOND
     1     9     8   ar
     2     8     7    1
     3     8    10   ar
     4     7     5    1
     5    12    11   ar
     6    11     5    1
     7    11    13   ar
     8     5     6    1
     9     5     4    1
    10     4     1    1
    11     1     3   ar
    12     1     2   ar
