@<TRIPOS>MOLECULE
1yfl_SFG_A_1.pdb
 27 29 0 0 0
SMALL
GASTEIGER

@<TRIPOS>ATOM
      1  N        110.2300   55.4910   38.6000 N.3   300  SFG300     -0.1208
      2  CA       108.9160   55.4090   37.9210 C.3   300  SFG300      0.1944
      3  C        108.1750   56.7550   37.7670 C.2   300  SFG300      0.3819
      4  O        107.6210   57.0610   36.6800 O.co2 300  SFG300     -0.2441
      5  OXT      108.1960   57.5040   38.7620 O.co2 300  SFG300     -0.2441
      6  CB       107.9230   54.4630   38.6320 C.3   300  SFG300      0.0321
      7  CG       108.2580   52.9340   38.6490 C.3   300  SFG300      0.0212
      8  CD       107.0400   52.1830   39.2080 C.3   300  SFG300      0.0944
      9  NE       106.6210   52.7460   40.5250 N.3   300  SFG300     -0.1328
     10  C5'      107.3860   50.6760   39.2220 C.3   300  SFG300      0.0514
     11  C4'      107.6240   50.0700   37.8330 C.3   300  SFG300      0.1537
     12  O4'      108.2390   48.7810   37.7470 O.3   300  SFG300     -0.3161
     13  C3'      106.4360   50.0790   36.8660 C.3   300  SFG300      0.2159
     14  O3'      106.6270   50.9700   35.7860 O.3   300  SFG300     -0.2175
     15  C2'      106.2430   48.5890   36.5810 C.3   300  SFG300      0.2569
     16  O2'      105.7240   48.3620   35.2650 O.3   300  SFG300     -0.2130
     17  C1'      107.6650   48.0490   36.6880 C.3   300  SFG300      0.3185
     18  N9       107.8960   46.6360   37.0140 N.pl3 300  SFG300     -0.1439
     19  C8       107.1940   45.7180   37.7210 C.3   300  SFG300      0.3377
     20  N7       107.7880   44.5100   37.7720 N.2   300  SFG300     -0.2095
     21  C5       108.9670   44.6350   37.0460 C.2   300  SFG300      0.2526
     22  C6       110.0660   43.8410   36.6700 C.2   300  SFG300      0.4393
     23  N6       110.1570   42.5400   37.0530 N.pl3 300  SFG300      0.2180
     24  N1       111.1100   44.3380   35.8950 N.2   300  SFG300      0.0021
     25  C2       111.0860   45.6370   35.4820 C.3   300  SFG300      0.5254
     26  N3       110.0490   46.4630   35.8180 N.2   300  SFG300     -0.0055
     27  C4       109.0230   45.9640   36.5770 C.2   300  SFG300      0.3518
@<TRIPOS>BOND
     1    16    15    1
     2    25    26    1
     3    25    24    1
     4    14    13    1
     5    26    27    2
     6    24    22    2
     7    27    18    1
     8    27    21    1
     9    15    17    1
    10    15    13    1
    11    22    21    1
    12    22    23    1
    13     4     3   ar
    14    17    18    1
    15    17    12    1
    16    13    11    1
    17    18    19    1
    18    21    20    2
    19    19    20    1
    20    12    11    1
    21     3     2    1
    22     3     5   ar
    23    11    10    1
    24     2     1    1
    25     2     6    1
    26     6     7    1
    27     7     8    1
    28     8    10    1
    29     8     9    1
