@<TRIPOS>MOLECULE
1yfr_ATP_A_1.pdb
 31 33 0 0 0
SMALL
GASTEIGER

@<TRIPOS>ATOM
      1  PG       130.0690   13.2640   42.6970 P.3   1500  ATP1500     0.5373
      2  O1G      130.6610   12.3300   43.7290 O.3   1500  ATP1500    -0.1143
      3  O2G      130.2160   12.7510   41.2590 O.2   1500  ATP1500    -0.2221
      4  O3G      128.6260   13.6360   43.0610 O.3   1500  ATP1500    -0.1143
      5  PB       132.4150   14.9160   42.1510 P.3   1500  ATP1500     0.2277
      6  O1B      133.2520   15.7230   43.1030 O.3   1500  ATP1500    -0.4368
      7  O2B      132.9830   13.7160   41.4620 O.2   1500  ATP1500    -0.5168
      8  O3B      131.0200   14.5440   42.8750 O.3   1500  ATP1500    -0.2258
      9  PA       132.5110   17.3040   40.5210 P.3   1500  ATP1500     0.2189
     10  O1A      132.1670   18.2170   41.6300 O.3   1500  ATP1500    -0.4371
     11  O2A      133.9150   17.2160   40.0600 O.2   1500  ATP1500    -0.5170
     12  O3A      131.9830   15.8690   40.9560 O.3   1500  ATP1500    -0.2700
     13  O5'      131.5880   17.5790   39.2530 O.3   1500  ATP1500    -0.3112
     14  C5'      130.5980   18.6030   39.2730 C.3   1500  ATP1500     0.1813
     15  C4'      129.2230   17.9990   39.3470 C.3   1500  ATP1500     0.1821
     16  O4'      129.0260   17.1870   38.1710 O.3   1500  ATP1500    -0.3135
     17  C3'      128.9870   17.0530   40.4870 C.3   1500  ATP1500     0.2184
     18  O3'      128.5730   17.7610   41.6380 O.3   1500  ATP1500    -0.2174
     19  C2'      127.8240   16.2380   39.9580 C.3   1500  ATP1500     0.2570
     20  O2'      126.6490   16.9700   40.1430 O.3   1500  ATP1500    -0.2130
     21  C1'      128.1610   16.1180   38.4670 C.3   1500  ATP1500     0.3186
     22  N9       128.7980   14.8620   38.0080 N.pl3 1500  ATP1500    -0.1439
     23  C8       130.1190   14.4920   38.0830 C.3   1500  ATP1500     0.3377
     24  N7       130.3650   13.3080   37.5640 N.2   1500  ATP1500    -0.2095
     25  C5       129.1310   12.8690   37.1130 C.2   1500  ATP1500     0.2526
     26  C6       128.7000   11.6690   36.4290 C.2   1500  ATP1500     0.4393
     27  N6       129.4960   10.6440   36.1220 N.pl3 1500  ATP1500     0.2180
     28  N1       127.3940   11.5670   36.0960 N.2   1500  ATP1500     0.0021
     29  C2       126.5650   12.5690   36.4420 C.3   1500  ATP1500     0.5254
     30  N3       126.8360   13.7230   37.0930 N.2   1500  ATP1500    -0.0055
     31  C4       128.1440   13.8170   37.3850 C.2   1500  ATP1500     0.3518
@<TRIPOS>BOND
     1    28    26    2
     2    28    29    1
     3    27    26    1
     4    26    25    1
     5    29    30    1
     6    30    31    2
     7    25    31    1
     8    25    24    2
     9    31    22    1
    10    24    23    1
    11    22    23    1
    12    22    21    1
    13    16    21    1
    14    16    15    1
    15    21    19    1
    16    13    14    1
    17    13     9    1
    18    14    15    1
    19    15    17    1
    20    19    20    1
    21    19    17    1
    22    11     9    2
    23    17    18    1
    24     9    12    1
    25     9    10    1
    26    12     5    1
    27     3     1    2
    28     7     5    2
    29     5     8    1
    30     5     6    1
    31     1     8    1
    32     1     4    1
    33     1     2    1
