@<TRIPOS>MOLECULE
1yfw_4AA_A_1.pdb
 12 12 0 0 0
SMALL
GASTEIGER

@<TRIPOS>ATOM
      1  OAB        6.4580   26.0730    5.3120 O.co2 401  4AA401     -0.2405
      2  CAH        7.0940   25.3950    6.1170 C.2   401  4AA401      0.3892
      3  OAC        6.4930   24.8630    7.0480 O.co2 401  4AA401     -0.2405
      4  CAL        8.6080   25.2150    5.9680 C.ar  401  4AA401      0.0997
      5  CAG        9.3290   26.0470    5.1160 C.ar  401  4AA401      0.0090
      6  CAF       10.7050   25.8860    4.9730 C.ar  401  4AA401      0.0149
      7  CAJ       11.3650   24.8870    5.6830 C.ar  401  4AA401      0.0979
      8 CLAE       13.0770   24.6880    5.5310 Cl    401  4AA401     -0.0789
      9  CAK       10.6460   24.0520    6.5320 C.ar  401  4AA401      0.2229
     10  OAD       11.2910   23.0560    7.1980 O.3   401  4AA401     -0.2842
     11  CAI        9.2720   24.2180    6.6790 C.ar  401  4AA401      0.1350
     12  NAA        8.6000   23.4260    7.5110 N.pl3 401  4AA401     -0.1245
@<TRIPOS>BOND
     1     6     5   ar
     2     6     7   ar
     3     5     4   ar
     4     1     2   ar
     5     8     7    1
     6     7     9   ar
     7     4     2    1
     8     4    11   ar
     9     2     3   ar
    10     9    11   ar
    11     9    10    1
    12    11    12    1
