@<TRIPOS>MOLECULE
1yfx_4AA_A_1.pdb
 12 12 0 0 0
SMALL
GASTEIGER

@<TRIPOS>ATOM
      1  OAB        6.2140   25.9180    5.2900 O.co2 401  4AA401     -0.2405
      2  CAH        6.8530   25.2860    6.1290 C.2   401  4AA401      0.3892
      3  OAC        6.2660   24.8500    7.1190 O.co2 401  4AA401     -0.2405
      4  CAL        8.3570   25.0550    5.9580 C.ar  401  4AA401      0.0997
      5  CAG        9.0860   25.8490    5.0780 C.ar  401  4AA401      0.0090
      6  CAF       10.4560   25.6530    4.9270 C.ar  401  4AA401      0.0149
      7  CAJ       11.1020   24.6600    5.6580 C.ar  401  4AA401      0.0979
      8 CLAE       12.8100   24.4390    5.5090 Cl    401  4AA401     -0.0789
      9  CAK       10.3720   23.8610    6.5330 C.ar  401  4AA401      0.2229
     10  OAD       10.9970   22.8700    7.2220 O.3   401  4AA401     -0.2842
     11  CAI        9.0030   24.0600    6.6870 C.ar  401  4AA401      0.1350
     12  NAA        8.3180   23.3000    7.5360 N.pl3 401  4AA401     -0.1245
@<TRIPOS>BOND
     1     6     5   ar
     2     6     7   ar
     3     5     4   ar
     4     1     2   ar
     5     8     7    1
     6     7     9   ar
     7     4     2    1
     8     4    11   ar
     9     2     3   ar
    10     9    11   ar
    11     9    10    1
    12    11    12    1
