@<TRIPOS>MOLECULE
1yfy_3HA_A_1.pdb
 11 11 0 0 0
SMALL
GASTEIGER

@<TRIPOS>ATOM
      1  O8         7.0350   24.1660    6.7290 O.co2 401  3HA401     -0.2405
      2  C7         7.5570   25.1320    6.1740 C.2   401  3HA401      0.3892
      3  O9         6.8380   26.0320    5.7450 O.co2 401  3HA401     -0.2405
      4  C2         9.0780   25.2090    6.0140 C.ar  401  3HA401      0.0996
      5  C1         9.6800   26.4410    5.7770 C.ar  401  3HA401      0.0082
      6  C6        11.0640   26.5360    5.6730 C.ar  401  3HA401      0.0036
      7  C5        11.8500   25.3950    5.8070 C.ar  401  3HA401      0.0435
      8  C4        11.2490   24.1620    6.0410 C.ar  401  3HA401      0.2125
      9  O11       12.0210   23.0500    6.1740 O.3   401  3HA401     -0.2851
     10  C3         9.8650   24.0680    6.1440 C.ar  401  3HA401      0.1342
     11  N10        9.3010   22.8810    6.3480 N.pl3 401  3HA401     -0.1245
@<TRIPOS>BOND
     1     6     5   ar
     2     6     7   ar
     3     3     2   ar
     4     5     4   ar
     5     7     8   ar
     6     4    10   ar
     7     4     2    1
     8     8    10   ar
     9     8     9    1
    10    10    11    1
    11     2     1   ar
