@<TRIPOS>MOLECULE
1yfz_IMP_A_1.pdb
 23 25 0 0 0
SMALL
GASTEIGER

@<TRIPOS>ATOM
      1  P         42.2720   35.8040   66.6010 P.3   1210  IMP1210     0.5327
      2  O1P       41.0280   36.6050   66.4070 O.2   1210  IMP1210    -0.2224
      3  O2P       43.3340   36.6840   67.1810 O.3   1210  IMP1210    -0.1145
      4  O3P       42.0260   34.5820   67.5020 O.3   1210  IMP1210    -0.1145
      5  O5'       42.8330   35.1990   65.2090 O.3   1210  IMP1210    -0.2675
      6  C5'       42.8680   36.1300   64.0900 C.3   1210  IMP1210     0.1860
      7  C4'       43.3950   35.5960   62.7700 C.3   1210  IMP1210     0.1823
      8  O4'       43.8470   36.8230   62.0610 O.3   1210  IMP1210    -0.3135
      9  C3'       44.6330   34.6540   62.7660 C.3   1210  IMP1210     0.2184
     10  O3'       44.3640   33.3810   62.1790 O.3   1210  IMP1210    -0.2174
     11  C2'       45.7210   35.3900   62.0070 C.3   1210  IMP1210     0.2570
     12  O2'       46.5460   34.5480   61.2290 O.3   1210  IMP1210    -0.2130
     13  C1'       44.8940   36.3870   61.2120 C.3   1210  IMP1210     0.3186
     14  N9        45.7140   37.5800   60.7710 N.pl3 1210  IMP1210    -0.1435
     15  C8        46.0520   37.9690   59.4990 C.3   1210  IMP1210     0.3382
     16  N7        46.7730   39.0490   59.4640 N.2   1210  IMP1210    -0.2054
     17  C5        46.9440   39.4260   60.7630 C.2   1210  IMP1210     0.2446
     18  C6        47.6490   40.5440   61.3390 C.1   1210  IMP1210     0.1792
     19  O6        48.2740   41.4230   60.7380 O.2   1210  IMP1210    -0.2203
     20  N1        47.5880   40.5840   62.7740 N.2   1210  IMP1210    -0.1458
     21  C2        46.9020   39.6250   63.5300 C.3   1210  IMP1210     0.4017
     22  N3        46.2400   38.5750   62.9670 N.2   1210  IMP1210    -0.0334
     23  C4        46.2940   38.5340   61.6150 C.2   1210  IMP1210     0.3528
@<TRIPOS>BOND
     1    16    15    1
     2    16    17    2
     3    15    14    1
     4    19    18    2
     5    17    18    1
     6    17    23    1
     7    14    13    1
     8    14    23    1
     9    13    11    1
    10    13     8    1
    11    12    11    1
    12    18    20    2
    13    23    22    2
    14    11     9    1
    15     8     7    1
    16    10     9    1
    17     9     7    1
    18     7     6    1
    19    20    21    1
    20    22    21    1
    21     6     5    1
    22     5     1    1
    23     2     1    2
    24     1     3    1
    25     1     4    1
