@<TRIPOS>MOLECULE
1yg5_HEM_A_1.pdb
 43 50 0 0 0
SMALL
GASTEIGER

@<TRIPOS>ATOM
      1 FE          8.7160   41.0480  -14.0100 Fe    142  HEM142      0.0000
      2  CHA        6.9360   43.3400  -15.3930 C.2   142  HEM142      0.0000
      3  CHB        6.7360   41.1350  -11.1960 C.2   142  HEM142      0.0000
      4  CHC       10.7570   38.8180  -12.3300 C.2   142  HEM142      0.0000
      5  CHD       11.1620   41.4530  -16.2360 C.2   142  HEM142      0.0000
      6  NA         7.1700   42.0620  -13.4150 N.2   142  HEM142      0.0000
      7  C1A        6.4970   42.9450  -14.1850 C.2   142  HEM142      0.0000
      8  C2A        5.2620   43.4050  -13.5750 C.2   142  HEM142      0.0000
      9  C3A        5.2170   42.8000  -12.4040 C.2   142  HEM142      0.0000
     10  C4A        6.3950   41.9440  -12.2740 C.2   142  HEM142      0.0000
     11  CMA        4.0980   42.9760  -11.3980 C.3   142  HEM142      0.0000
     12  CAA        4.2930   44.4440  -14.2260 C.3   142  HEM142      0.0000
     13  CBA        2.8240   44.5780  -13.7790 C.3   142  HEM142      0.0000
     14  CGA        2.1690   45.8050  -14.4610 C.2   142  HEM142      0.0000
     15  O1A        1.7470   45.7160  -15.6670 O.co2 142  HEM142      0.0000
     16  O2A        2.0670   46.9050  -13.8210 O.co2 142  HEM142      0.0000
     17  NB         8.7780   40.2180  -12.1260 N.ar  142  HEM142      0.0000
     18  C1B        7.8230   40.2990  -11.1480 C.ar  142  HEM142      0.0000
     19  C2B        8.1360   39.3370  -10.1130 C.ar  142  HEM142      0.0000
     20  C3B        9.2440   38.7120  -10.4470 C.ar  142  HEM142      0.0000
     21  C4B        9.6530   39.2350  -11.6940 C.ar  142  HEM142      0.0000
     22  CMB        7.3700   39.0960   -8.8180 C.3   142  HEM142      0.0000
     23  CAB        9.9910   37.6280   -9.6740 C.2   142  HEM142      0.0000
     24  CBB        9.5160   37.2610   -8.4940 C.2   142  HEM142      0.0000
     25  NC        10.5450   40.4090  -14.1760 N.2   142  HEM142      0.0000
     26  C1C       11.1610   39.3750  -13.5030 C.2   142  HEM142      0.0000
     27  C2C       12.2090   38.8140  -14.3040 C.2   142  HEM142      0.0000
     28  C3C       12.4530   39.6580  -15.2400 C.2   142  HEM142      0.0000
     29  C4C       11.3470   40.5720  -15.2590 C.2   142  HEM142      0.0000
     30  CMC       13.2830   37.8690  -13.8120 C.3   142  HEM142      0.0000
     31  CAC       13.5780   39.4830  -16.2670 C.2   142  HEM142      0.0000
     32  CBC       14.8290   39.5050  -15.8210 C.2   142  HEM142      0.0000
     33  ND         9.0480   42.1980  -15.5190 N.ar  142  HEM142      0.0000
     34  C1D       10.0810   42.2130  -16.3930 C.ar  142  HEM142      0.0000
     35  C2D        9.9060   43.1680  -17.4650 C.ar  142  HEM142      0.0000
     36  C3D        8.5690   43.7470  -17.1780 C.ar  142  HEM142      0.0000
     37  C4D        8.1320   43.0870  -15.9770 C.ar  142  HEM142      0.0000
     38  CMD       10.7910   43.5530  -18.6660 C.3   142  HEM142      0.0000
     39  CAD        7.8780   44.8350  -18.0190 C.3   142  HEM142      0.0000
     40  CBD        8.3370   46.2080  -17.5390 C.3   142  HEM142      0.0000
     41  CGD        7.9920   47.2930  -18.5110 C.2   142  HEM142      0.0000
     42  O1D        7.3740   48.2770  -18.0680 O.co2 142  HEM142      0.0000
     43  O2D        8.3650   47.1700  -19.7040 O.co2 142  HEM142      0.0000
@<TRIPOS>BOND
     1    43    41   ar
     2    38    35    1
     3    41    42   ar
     4    41    40    1
     5    39    40    1
     6    39    36    1
     7    35    36   ar
     8    35    34   ar
     9    36    37   ar
    10    34     5    2
    11    34    33   ar
    12    31    32    2
    13    31    28    1
    14     5    29    1
    15    37    33   ar
    16    37     2    2
    17    15    14   ar
    18    33     1    1
    19     2     7    1
    20    29    28    1
    21    29    25    2
    22    28    27    2
    23    14    16   ar
    24    14    13    1
    25    27    30    1
    26    27    26    1
    27    12    13    1
    28    12     8    1
    29     7     8    1
    30     7     6    2
    31    25     1    1
    32    25    26    1
    33     1     6    1
    34     1    17    1
    35     8     9    2
    36    26     4    2
    37     6    10    1
    38     9    10    1
    39     9    11    1
    40     4    21    1
    41    10     3    2
    42    17    21   ar
    43    17    18   ar
    44    21    20   ar
    45     3    18    1
    46    18    19   ar
    47    20    19   ar
    48    20    23    1
    49    19    22    1
    50    23    24    2
