@<TRIPOS>MOLECULE
1ygc_905_H_1.pdb
 38 40 0 0 0
SMALL
GASTEIGER

@<TRIPOS>ATOM
      1  O1        11.7260   38.9400   27.7690 O.3     1  9051       -0.2863
      2  C1        12.2260   38.6600   29.1430 C.ar    1  9051        0.2047
      3  C2        11.5030   39.1320   30.2560 C.ar    1  9051        0.0584
      4  C3        11.9720   38.8700   31.5710 C.ar    1  9051        0.0694
      5  N1        11.2170   39.3730   32.6990 N.pl3   1  9051       -0.2253
      6  C4         9.9900   40.1450   32.4640 C.3     1  9051        0.1960
      7  C5         9.1220   40.2060   33.6840 C.2     1  9051        0.2863
      8  O2         9.4600   39.6850   34.7550 O.2     1  9051       -0.2694
      9  N2         7.9750   40.8520   33.5540 N.am    1  9051       -0.0570
     10  S1         6.8740   41.0420   34.7960 S.O2    1  9051        0.0955
     11  O3         6.6940   39.7880   35.4670 O.2     1  9051       -0.1482
     12  O4         5.6430   41.5490   34.2790 O.2     1  9051       -0.1482
     13  C6         7.6010   42.2020   35.8630 C.ar    1  9051        0.1285
     14  C7         7.4210   42.1260   37.2710 C.ar    1  9051        0.0203
     15  C8         8.0430   43.1110   38.1080 C.ar    1  9051        0.0028
     16  C9         8.8330   44.1520   37.5280 C.ar    1  9051        0.0181
     17  C10        9.0090   44.2170   36.1150 C.ar    1  9051        0.0904
     18  N3         9.7480   45.1880   35.5680 N.pl3   1  9051       -0.1280
     19  C11        8.3940   43.2450   35.2870 C.ar    1  9051        0.0383
     20  C12       10.4210   41.6170   32.1940 C.ar    1  9051        0.0397
     21  C13       10.0160   42.2660   30.9990 C.ar    1  9051        0.1721
     22  F1         9.2580   41.6260   30.0960 F       1  9051       -0.2012
     23  C14       10.4050   43.5880   30.7500 C.ar    1  9051        0.1686
     24  O5         9.9820   44.2400   29.4940 O.3     1  9051       -0.4731
     25  C15       10.6270   45.6530   29.3720 C.3     1  9051        0.2056
     26  C16       10.2300   46.2620   28.0270 C.3     1  9051        0.0512
     27  C17       11.2030   44.2880   31.6810 C.ar    1  9051        0.0761
     28  C18       11.6170   43.6680   32.8750 C.ar    1  9051        0.1415
     29  O6        12.4600   44.4650   33.8020 O.3     1  9051       -0.4754
     30  C19       12.9390   43.6620   35.0230 C.3     1  9051        0.2055
     31  C20       13.9970   44.5050   35.7280 C.3     1  9051        0.0512
     32  C21       11.2340   42.3210   33.1480 C.ar    1  9051        0.0372
     33  C22       13.1640   38.1350   31.7720 C.ar    1  9051        0.0166
     34  C23       13.8970   37.6620   30.6540 C.ar    1  9051        0.0126
     35  C24       13.4380   37.9210   29.3410 C.ar    1  9051        0.1363
     36  C25       14.2090   37.4230   28.1890 C.2     1  9051        0.4797
     37  N4        15.3340   36.7390   28.3840 N.pl3   1  9051        0.2048
     38  N5        13.7820   37.6560   26.9580 N.pl3   1  9051        0.2048
@<TRIPOS>BOND
     1    38    36    2
     2     1     2    1
     3    26    25    1
     4    36    37    1
     5    36    35    1
     6     2    35   ar
     7     2     3   ar
     8    35    34   ar
     9    25    24    1
    10    24    23    1
    11    22    21    1
    12     3     4   ar
    13    34    33   ar
    14    23    21   ar
    15    23    27   ar
    16    21    20   ar
    17     4    33   ar
    18     4     5    1
    19    27    28   ar
    20    20     6    1
    21    20    32   ar
    22     6     5    1
    23     6     7    1
    24    28    32   ar
    25    28    29    1
    26     9     7   am
    27     9    10    1
    28     7     8    2
    29    29    30    1
    30    12    10    2
    31    10    11    2
    32    10    13    1
    33    30    31    1
    34    19    13   ar
    35    19    17   ar
    36    18    17    1
    37    13    14   ar
    38    17    16   ar
    39    14    15   ar
    40    16    15   ar
