@<TRIPOS>MOLECULE
1ygd_ZNH_A_1.pdb
 43 50 0 0 0
SMALL
GASTEIGER

@<TRIPOS>ATOM
      1 ZN          8.0180   40.4800  -14.5910 Zn    142  ZNH142      0.0000
      2  CHA        6.2650   43.0850  -15.8880 C.2   142  ZNH142      0.0000
      3  CHB        6.0150   40.4860  -11.8410 C.2   142  ZNH142      0.0000
      4  CHC       10.2830   38.4840  -12.8160 C.2   142  ZNH142      0.0000
      5  CHD       10.5450   41.0570  -16.8940 C.2   142  ZNH142      0.0000
      6  NA         6.4330   41.5580  -13.9940 N.2   142  ZNH142      0.0000
      7  C1A        5.8850   42.6320  -14.6560 C.2   142  ZNH142      0.0000
      8  C2A        4.8340   43.1900  -13.8370 C.2   142  ZNH142      0.0000
      9  C3A        4.7730   42.4730  -12.7140 C.2   142  ZNH142      0.0000
     10  C4A        5.7760   41.4370  -12.7930 C.2   142  ZNH142      0.0000
     11  CMA        3.7970   42.6900  -11.5420 C.3   142  ZNH142      0.0000
     12  CAA        3.9410   44.4080  -14.1710 C.3   142  ZNH142      0.0000
     13  CBA        3.3890   44.3670  -15.5910 C.3   142  ZNH142      0.0000
     14  CGA        2.1560   45.2400  -15.6520 C.2   142  ZNH142      0.0000
     15  O1A        1.1570   44.8580  -14.9890 O.co2 142  ZNH142      0.0000
     16  O2A        2.1590   46.3020  -16.3430 O.co2 142  ZNH142      0.0000
     17  NB         8.1510   39.6670  -12.6900 N.ar  142  ZNH142      0.0000
     18  C1B        7.1620   39.7440  -11.7410 C.ar  142  ZNH142      0.0000
     19  C2B        7.5230   38.9010  -10.6280 C.ar  142  ZNH142      0.0000
     20  C3B        8.7080   38.3540  -10.8910 C.ar  142  ZNH142      0.0000
     21  C4B        9.1180   38.8220  -12.1890 C.ar  142  ZNH142      0.0000
     22  CMB        6.6730   38.7210   -9.3560 C.3   142  ZNH142      0.0000
     23  CAB        9.5250   37.3830  -10.0110 C.2   142  ZNH142      0.0000
     24  CBB        9.0360   36.9330   -8.8530 C.2   142  ZNH142      0.0000
     25  NC        10.0280   39.9600  -14.7600 N.2   142  ZNH142      0.0000
     26  C1C       10.6980   39.0120  -14.0090 C.2   142  ZNH142      0.0000
     27  C2C       11.9700   38.7390  -14.6310 C.2   142  ZNH142      0.0000
     28  C3C       11.9780   39.3640  -15.8050 C.2   142  ZNH142      0.0000
     29  C4C       10.8070   40.1960  -15.8700 C.2   142  ZNH142      0.0000
     30  CMC       12.9370   37.6270  -14.1880 C.3   142  ZNH142      0.0000
     31  CAC       13.0850   39.3420  -16.8710 C.2   142  ZNH142      0.0000
     32  CBC       14.2720   39.8400  -16.5480 C.2   142  ZNH142      0.0000
     33  ND         8.3580   41.8650  -16.1370 N.ar  142  ZNH142      0.0000
     34  C1D        9.4550   41.8740  -16.9870 C.ar  142  ZNH142      0.0000
     35  C2D        9.2880   42.8780  -18.0060 C.ar  142  ZNH142      0.0000
     36  C3D        7.9420   43.5270  -17.6970 C.ar  142  ZNH142      0.0000
     37  C4D        7.4520   42.8340  -16.5250 C.ar  142  ZNH142      0.0000
     38  CMD       10.2710   43.2190  -19.1500 C.3   142  ZNH142      0.0000
     39  CAD        7.2760   44.6700  -18.4890 C.3   142  ZNH142      0.0000
     40  CBD        7.3990   45.9990  -17.7520 C.3   142  ZNH142      0.0000
     41  CGD        7.3730   47.1310  -18.7470 C.2   142  ZNH142      0.0000
     42  O1D        6.9180   48.2430  -18.3730 O.co2 142  ZNH142      0.0000
     43  O2D        7.8060   46.9390  -19.9130 O.co2 142  ZNH142      0.0000
@<TRIPOS>BOND
     1    43    41   ar
     2    38    35    1
     3    41    42   ar
     4    41    40    1
     5    39    40    1
     6    39    36    1
     7    35    36   ar
     8    35    34   ar
     9    36    37   ar
    10    34     5    2
    11    34    33   ar
    12     5    29    1
    13    31    32    2
    14    31    28    1
    15    37    33   ar
    16    37     2    2
    17    16    14   ar
    18    33     1    1
    19     2     7    1
    20    29    28    1
    21    29    25    2
    22    28    27    2
    23    14    13    1
    24    14    15   ar
    25    13    12    1
    26    25     1    1
    27    25    26    1
    28     7     6    2
    29     7     8    1
    30    27    30    1
    31    27    26    1
    32     1     6    1
    33     1    17    1
    34    12     8    1
    35    26     4    2
    36     6    10    1
    37     8     9    2
    38     4    21    1
    39    10     9    1
    40    10     3    2
    41     9    11    1
    42    17    21   ar
    43    17    18   ar
    44    21    20   ar
    45     3    18    1
    46    18    19   ar
    47    20    19   ar
    48    20    23    1
    49    19    22    1
    50    23    24    2
