@<TRIPOS>MOLECULE
1ygd_HEM_B_1.pdb
 43 50 0 0 0
SMALL
GASTEIGER

@<TRIPOS>ATOM
      1 FE         33.9680   20.7290   -0.5130 Fe    147  HEM147      0.0000
      2  CHA       35.6000   18.2840    1.4990 C.2   147  HEM147      0.0000
      3  CHB       36.4200   22.7400   -0.2770 C.2   147  HEM147      0.0000
      4  CHC       31.8970   23.2600   -1.7830 C.2   147  HEM147      0.0000
      5  CHD       31.4000   18.5370   -0.7610 C.2   147  HEM147      0.0000
      6  NA        35.5930   20.4920    0.3970 N.2   147  HEM147      0.0000
      7  C1A       36.1280   19.4980    1.2010 C.2   147  HEM147      0.0000
      8  C2A       37.4060   19.9190    1.7020 C.2   147  HEM147      0.0000
      9  C3A       37.6120   21.1400    1.2200 C.2   147  HEM147      0.0000
     10  C4A       36.4970   21.5350    0.3900 C.2   147  HEM147      0.0000
     11  CMA       38.8780   21.9780    1.4990 C.3   147  HEM147      0.0000
     12  CAA       38.3280   19.0900    2.6300 C.3   147  HEM147      0.0000
     13  CBA       39.5080   18.5270    1.8400 C.3   147  HEM147      0.0000
     14  CGA       39.9510   17.1610    2.2990 C.2   147  HEM147      0.0000
     15  O1A       41.0760   16.7300    1.9090 O.co2 147  HEM147      0.0000
     16  O2A       39.1950   16.5010    3.0550 O.co2 147  HEM147      0.0000
     17  NB        34.0950   22.6380   -0.9410 N.ar  147  HEM147      0.0000
     18  C1B       35.2890   23.2920   -0.8040 C.ar  147  HEM147      0.0000
     19  C2B       35.1320   24.6430   -1.3220 C.ar  147  HEM147      0.0000
     20  C3B       33.8830   24.7810   -1.7490 C.ar  147  HEM147      0.0000
     21  C4B       33.2070   23.5350   -1.5000 C.ar  147  HEM147      0.0000
     22  CMB       36.2230   25.7310   -1.3880 C.3   147  HEM147      0.0000
     23  CAB       33.2870   26.0510   -2.3680 C.2   147  HEM147      0.0000
     24  CBB       33.7840   27.2530   -2.0150 C.2   147  HEM147      0.0000
     25  NC        32.0770   20.9040   -1.1650 N.2   147  HEM147      0.0000
     26  C1C       31.3710   22.0100   -1.6020 C.2   147  HEM147      0.0000
     27  C2C       30.0310   21.6170   -1.9620 C.2   147  HEM147      0.0000
     28  C3C       29.9020   20.3360   -1.5660 C.2   147  HEM147      0.0000
     29  C4C       31.1880   19.8490   -1.1290 C.2   147  HEM147      0.0000
     30  CMC       28.8800   22.5670   -2.3650 C.3   147  HEM147      0.0000
     31  CAC       28.6840   19.3970   -1.6320 C.2   147  HEM147      0.0000
     32  CBC       27.4890   19.8640   -1.9880 C.2   147  HEM147      0.0000
     33  ND        33.6040   18.6730    0.2460 N.ar  147  HEM147      0.0000
     34  C1D       32.3890   18.0410    0.0380 C.ar  147  HEM147      0.0000
     35  C2D       32.3400   16.7930    0.7840 C.ar  147  HEM147      0.0000
     36  C3D       33.6810   16.6920    1.5110 C.ar  147  HEM147      0.0000
     37  C4D       34.3640   17.9040    1.1110 C.ar  147  HEM147      0.0000
     38  CMD       31.2160   15.7510    0.8530 C.3   147  HEM147      0.0000
     39  CAD       34.1880   15.5700    2.4580 C.3   147  HEM147      0.0000
     40  CBD       33.8530   15.9450    3.9050 C.3   147  HEM147      0.0000
     41  CGD       34.2770   14.9160    4.9390 C.2   147  HEM147      0.0000
     42  O1D       33.6160   13.8500    5.0540 O.co2 147  HEM147      0.0000
     43  O2D       35.2730   15.1730    5.6690 O.co2 147  HEM147      0.0000
@<TRIPOS>BOND
     1    23    24    2
     2    23    20    1
     3    30    27    1
     4    32    31    2
     5    27    26    1
     6    27    28    2
     7     4    26    2
     8     4    21    1
     9    20    21   ar
    10    20    19   ar
    11    31    28    1
    12    26    25    1
    13    28    29    1
    14    21    17   ar
    15    22    19    1
    16    19    18   ar
    17    25    29    2
    18    25     1    1
    19    29     5    1
    20    17    18   ar
    21    17     1    1
    22    18     3    1
    23     5    34    2
    24     1    33    1
    25     1     6    1
    26     3    10    2
    27    34    33   ar
    28    34    35   ar
    29    33    37   ar
    30    10     6    1
    31    10     9    1
    32     6     7    2
    33    35    38    1
    34    35    36   ar
    35    37     2    2
    36    37    36   ar
    37     7     2    1
    38     7     8    1
    39     9    11    1
    40     9     8    2
    41    36    39    1
    42     8    12    1
    43    13    14    1
    44    13    12    1
    45    15    14   ar
    46    14    16   ar
    47    39    40    1
    48    40    41    1
    49    41    42   ar
    50    41    43   ar
