@<TRIPOS>MOLECULE
1ygf_HEM_A_1.pdb
 43 50 0 0 0
SMALL
GASTEIGER

@<TRIPOS>ATOM
      1 FE          9.4160   40.8440  -14.8490 Fe    142  HEM142      0.0000
      2  CHA        7.8450   43.3960  -16.1670 C.2   142  HEM142      0.0000
      3  CHB        7.2340   40.8230  -12.2220 C.2   142  HEM142      0.0000
      4  CHC       11.3850   38.5730  -13.1500 C.2   142  HEM142      0.0000
      5  CHD       12.1310   41.2580  -17.0700 C.2   142  HEM142      0.0000
      6  NA         7.8100   41.8750  -14.2770 N.2   142  HEM142      0.0000
      7  C1A        7.3290   42.9400  -14.9990 C.2   142  HEM142      0.0000
      8  C2A        6.1990   43.5160  -14.3280 C.2   142  HEM142      0.0000
      9  C3A        6.0160   42.8060  -13.2040 C.2   142  HEM142      0.0000
     10  C4A        7.0410   41.7710  -13.1590 C.2   142  HEM142      0.0000
     11  CMA        4.9030   43.0690  -12.1570 C.3   142  HEM142      0.0000
     12  CAA        5.3670   44.7240  -14.8110 C.3   142  HEM142      0.0000
     13  CBA        4.2820   44.3000  -15.8150 C.3   142  HEM142      0.0000
     14  CGA        3.2380   45.3810  -16.0870 C.2   142  HEM142      0.0000
     15  O1A        2.0440   45.0630  -16.3870 O.co2 142  HEM142      0.0000
     16  O2A        3.5830   46.5870  -16.0220 O.co2 142  HEM142      0.0000
     17  NB         9.3410   39.8970  -13.0580 N.ar  142  HEM142      0.0000
     18  C1B        8.3310   39.9980  -12.1320 C.ar  142  HEM142      0.0000
     19  C2B        8.6100   39.0740  -11.0570 C.ar  142  HEM142      0.0000
     20  C3B        9.7580   38.4860  -11.3160 C.ar  142  HEM142      0.0000
     21  C4B       10.2260   38.9700  -12.5720 C.ar  142  HEM142      0.0000
     22  CMB        7.7440   38.8700   -9.7940 C.3   142  HEM142      0.0000
     23  CAB       10.5010   37.4230  -10.4950 C.2   142  HEM142      0.0000
     24  CBB        9.9440   36.8440   -9.4500 C.2   142  HEM142      0.0000
     25  NC        11.3780   40.1220  -15.0550 N.2   142  HEM142      0.0000
     26  C1C       11.9230   39.1010  -14.3030 C.2   142  HEM142      0.0000
     27  C2C       13.2470   38.7800  -14.8180 C.2   142  HEM142      0.0000
     28  C3C       13.3350   39.3730  -15.9700 C.2   142  HEM142      0.0000
     29  C4C       12.2590   40.3180  -16.0950 C.2   142  HEM142      0.0000
     30  CMC       14.1040   37.5490  -14.4470 C.3   142  HEM142      0.0000
     31  CAC       14.5490   39.1970  -16.8740 C.2   142  HEM142      0.0000
     32  CBC       15.7390   39.4730  -16.3390 C.2   142  HEM142      0.0000
     33  ND         9.9700   42.1080  -16.3330 N.ar  142  HEM142      0.0000
     34  C1D       11.0830   42.1010  -17.1630 C.ar  142  HEM142      0.0000
     35  C2D       10.9270   43.1130  -18.1820 C.ar  142  HEM142      0.0000
     36  C3D        9.5840   43.7870  -17.9080 C.ar  142  HEM142      0.0000
     37  C4D        9.0680   43.1020  -16.7300 C.ar  142  HEM142      0.0000
     38  CMD       11.8750   43.4520  -19.3360 C.3   142  HEM142      0.0000
     39  CAD        8.9390   44.9070  -18.7460 C.3   142  HEM142      0.0000
     40  CBD        9.2080   46.2480  -18.0940 C.3   142  HEM142      0.0000
     41  CGD        8.7060   47.4020  -18.9240 C.2   142  HEM142      0.0000
     42  O1D        8.4950   48.4890  -18.3270 O.co2 142  HEM142      0.0000
     43  O2D        8.5380   47.2260  -20.1560 O.co2 142  HEM142      0.0000
@<TRIPOS>BOND
     1    43    41   ar
     2    38    35    1
     3    41    42   ar
     4    41    40    1
     5    39    40    1
     6    39    36    1
     7    35    36   ar
     8    35    34   ar
     9    36    37   ar
    10    34     5    2
    11    34    33   ar
    12     5    29    1
    13    31    32    2
    14    31    28    1
    15    37    33   ar
    16    37     2    2
    17    15    14   ar
    18    33     1    1
    19     2     7    1
    20    29    28    1
    21    29    25    2
    22    14    16   ar
    23    14    13    1
    24    28    27    2
    25    13    12    1
    26    25     1    1
    27    25    26    1
    28     7     8    1
    29     7     6    2
    30     1     6    1
    31     1    17    1
    32    27    30    1
    33    27    26    1
    34    12     8    1
    35     8     9    2
    36    26     4    2
    37     6    10    1
    38     9    10    1
    39     9    11    1
    40    10     3    2
    41     4    21    1
    42    17    21   ar
    43    17    18   ar
    44    21    20   ar
    45     3    18    1
    46    18    19   ar
    47    20    19   ar
    48    20    23    1
    49    19    22    1
    50    23    24    2
