@<TRIPOS>MOLECULE
1ygj_RMC_A_1.pdb
 27 29 0 0 0
SMALL
GASTEIGER

@<TRIPOS>ATOM
      1  OAP      -13.1920   62.1370   38.3190 O.2   1001  RMC1001    -0.2860
      2  CAQ      -13.3570   60.9150   38.0220 C.2   1001  RMC1001     0.2341
      3  CAR      -13.7370   60.3820   36.9820 C.3   1001  RMC1001     0.1918
      4  CAK      -12.7030   60.2330   35.9290 C.2   1001  RMC1001     0.0038
      5  CAI      -12.6680   59.7100   34.9400 C.2   1001  RMC1001    -0.0027
      6  NAS      -14.5450   59.1890   37.3790 N.pl3 1001  RMC1001    -0.1409
      7  CAT      -15.7490   58.8120   36.8450 C.1   1001  RMC1001     0.2233
      8  NAU      -16.3240   59.5620   35.8540 N.2   1001  RMC1001    -0.3099
      9  CAV      -17.5150   59.1800   35.3030 C.2   1001  RMC1001     0.2197
     10  NAW      -18.1700   59.7940   34.3340 N.pl3 1001  RMC1001    -0.2624
     11  CAZ      -17.5440   61.0580   33.8480 C.3   1001  RMC1001     0.0770
     12  CAY      -17.0820   60.8430   32.4110 C.3   1001  RMC1001     0.0216
     13  CBA      -18.5090   62.1890   34.0810 C.3   1001  RMC1001     0.0216
     14  CAX      -19.2930   59.0440   34.0750 C.3   1001  RMC1001     0.2220
     15  CAN      -18.1700   58.0250   35.6540 C.2   1001  RMC1001     0.1675
     16  NAO      -19.3420   57.9140   34.8950 N.2   1001  RMC1001    -0.2402
     17  NAL      -16.3830   57.6780   37.2390 N.2   1001  RMC1001    -0.3099
     18  CAM      -17.5750   57.2450   36.7120 C.2   1001  RMC1001     0.2186
     19  NAJ      -18.1040   56.0640   37.2380 N.pl3 1001  RMC1001    -0.2757
     20  CAD      -18.4950   55.0870   36.5880 C.3   1001  RMC1001     0.1200
     21  CAE      -17.1230   53.6330   35.6050 C.ar  1001  RMC1001    -0.0026
     22  CAG      -16.1110   52.6380   35.7500 C.ar  1001  RMC1001    -0.0003
     23  CAH      -15.8320   52.0970   37.0360 C.ar  1001  RMC1001    -0.0000
     24  CAF      -16.5510   52.5510   38.1770 C.ar  1001  RMC1001    -0.0003
     25  CAC      -17.5580   53.5370   38.0450 C.ar  1001  RMC1001    -0.0026
     26  CAB      -17.8150   54.0540   36.7650 C.ar  1001  RMC1001    -0.0023
     27  CBB      -19.1130   56.4030   38.2010 C.3   1001  RMC1001     0.1150
@<TRIPOS>BOND
     1    12    11    1
     2    11    13    1
     3    11    10    1
     4    14    10    1
     5    14    16    1
     6    10     9    1
     7    16    15    2
     8     5     4    2
     9     9    15    1
    10     9     8    2
    11    21    22   ar
    12    21    26   ar
    13    15    18    1
    14    22    23   ar
    15     8     7    2
    16     4     3    1
    17    20    26    1
    18    20    19    1
    19    18    19    1
    20    18    17    2
    21    26    25   ar
    22     7    17    2
    23     7     6    1
    24     3     6    1
    25     3     2    1
    26    23    24   ar
    27    19    27    1
    28     2     1    2
    29    25    24   ar
