@<TRIPOS>MOLECULE
1ygk_RRC_A_1.pdb
 26 28 0 0 0
SMALL
GASTEIGER

@<TRIPOS>ATOM
      1  OAP       -4.0760   46.7460    8.9220 O.3   1001  RRC1001    -0.2185
      2  CAQ       -5.1060   47.4940    9.5080 C.3   1001  RRC1001     0.2044
      3  CAR       -5.7530   46.5870   10.5520 C.3   1001  RRC1001     0.1385
      4  CAK       -5.6760   47.3380   11.9110 C.3   1001  RRC1001     0.0252
      5  CAI       -6.8020   48.2990   12.2570 C.3   1001  RRC1001     0.0019
      6  NAS       -7.1000   46.3600    9.9850 N.pl3 1001  RRC1001    -0.1508
      7  CAT       -8.1270   45.5950   10.4840 C.1   1001  RRC1001     0.2227
      8  NAU       -7.8640   44.7580   11.5390 N.2   1001  RRC1001    -0.3099
      9  CAV       -8.8520   43.9780   12.0700 C.2   1001  RRC1001     0.2197
     10  NAW       -8.7320   43.1320   13.0770 N.pl3 1001  RRC1001    -0.2624
     11  CAZ       -7.3610   43.0460   13.6740 C.3   1001  RRC1001     0.0770
     12  CAY       -7.3500   43.5250   15.1220 C.3   1001  RRC1001     0.0216
     13  CBA       -6.8530   41.6310   13.6210 C.3   1001  RRC1001     0.0216
     14  CAX       -9.9730   42.5640   13.2760 C.3   1001  RRC1001     0.2220
     15  CAN      -10.1440   43.9710   11.6050 C.2   1001  RRC1001     0.1690
     16  NAO      -10.9040   43.0670   12.3580 N.2   1001  RRC1001    -0.2402
     17  NAL       -9.4090   45.6110    9.9890 N.2   1001  RRC1001    -0.3084
     18  CAM      -10.4180   44.8340   10.5050 C.2   1001  RRC1001     0.2344
     19  NAJ      -11.6700   44.8790    9.9770 N.pl3 1001  RRC1001    -0.2027
     20  CAD      -12.9130   45.0000   10.7480 C.3   1001  RRC1001     0.1413
     21  CAE      -13.2630   46.3920   11.2460 C.ar  1001  RRC1001    -0.0006
     22  CAG      -13.4660   46.6040   12.6420 C.ar  1001  RRC1001    -0.0026
     23  CAH      -13.7990   47.8960   13.1330 C.ar  1001  RRC1001    -0.0003
     24  CAF      -13.9340   48.9840   12.2280 C.ar  1001  RRC1001    -0.0000
     25  CAC      -13.7310   48.7810   10.8330 C.ar  1001  RRC1001    -0.0003
     26  CAB      -13.3970   47.4810   10.3400 C.ar  1001  RRC1001    -0.0026
@<TRIPOS>BOND
     1     1     2    1
     2     2     3    1
     3    19    18    1
     4    19    20    1
     5     6     7    1
     6     6     3    1
     7    17     7    2
     8    17    18    2
     9    26    25   ar
    10    26    21   ar
    11     7     8    2
    12    18    15    1
    13     3     4    1
    14    20    21    1
    15    25    24   ar
    16    21    22   ar
    17     8     9    2
    18    15     9    1
    19    15    16    2
    20     4     5    1
    21     9    10    1
    22    24    23   ar
    23    16    14    1
    24    22    23   ar
    25    10    14    1
    26    10    11    1
    27    13    11    1
    28    11    12    1
