@<TRIPOS>MOLECULE
1ygp_PLP_A_1.pdb
 15 15 0 0 0
SMALL
GASTEIGER

@<TRIPOS>ATOM
      1  N1        47.7540 -119.6960  -28.3800 N.2   860  PLP860     -0.2505
      2  C2        49.1170 -119.6760  -28.3420 C.2   860  PLP860      0.0675
      3  C2A       49.7920 -119.3120  -27.0440 C.3   860  PLP860      0.0499
      4  C3        49.8540 -119.9600  -29.4820 C.3   860  PLP860      0.1913
      5  O3        51.2230 -119.8700  -29.4610 O.3   860  PLP860     -0.2167
      6  C4        49.2070 -120.2860  -30.6640 C.3   860  PLP860      0.0581
      7  C4A       49.8980 -120.8980  -31.7130 C.3   860  PLP860      0.0075
      8  C5        47.8200 -120.2880  -30.6850 C.2   860  PLP860      0.0073
      9  C6        47.1100 -119.9960  -29.5440 C.2   860  PLP860      0.0921
     10  C5A       47.0450 -120.7360  -31.9500 C.3   860  PLP860      0.1776
     11  O4P       46.8700 -122.1610  -31.9110 O.3   860  PLP860     -0.2656
     12  P         45.5060 -122.8880  -32.2430 P.3   860  PLP860      0.5329
     13  O1P       44.7730 -122.0040  -33.1760 O.2   860  PLP860     -0.2224
     14  O2P       46.0180 -124.1610  -33.0850 O.3   860  PLP860     -0.1145
     15  O3P       44.9330 -123.4100  -30.9750 O.3   860  PLP860     -0.1145
@<TRIPOS>BOND
     1    13    12    2
     2    14    12    1
     3    12    11    1
     4    12    15    1
     5    10    11    1
     6    10     8    1
     7     7     6    1
     8     8     6    1
     9     8     9    2
    10     6     4    1
    11     9     1    1
    12     4     5    1
    13     4     2    1
    14     1     2    2
    15     2     3    1
