@<TRIPOS>MOLECULE
1ygu_III_C_1.pdb
 37 38 0 0 0
SMALL
GASTEIGER

@<TRIPOS>ATOM
      1  N         22.4650  -19.0260   57.2490 N.3   2002  PRO2002    -0.2102
      2  CA        21.7030  -18.7020   58.4890 C.3   2002  PRO2002     0.1504
      3  C         20.2590  -18.5020   58.0740 C.2   2002  PRO2002     0.2576
      4  O         19.9310  -18.6990   56.9120 O.2   2002  PRO2002    -0.2718
      5  CB        22.2880  -17.4220   59.0560 C.3   2002  PRO2002     0.0282
      6  CG        23.7040  -17.3930   58.3740 C.3   2002  PRO2002     0.0208
      7  CD        23.4680  -17.9800   56.9750 C.3   2002  PRO2002     0.0893
      8  N         19.3890  -18.1020   58.9920 N.am  2003  THR2003    -0.1939
      9  CA        17.9860  -17.9170   58.6170 C.3   2003  THR2003     0.2028
     10  C         17.2480  -16.7610   59.2730 C.2   2003  THR2003     0.2642
     11  O         17.3180  -16.5890   60.4860 O.2   2003  THR2003    -0.2714
     12  CB        17.1870  -19.1980   58.8840 C.3   2003  THR2003     0.1808
     13  OG1       17.0410  -19.9050   57.6510 O.3   2003  THR2003    -0.2208
     14  CG2       15.8000  -18.8880   59.4770 C.3   2003  THR2003     0.0379
     15  N         16.5180  -15.9770   58.4870 N.am  2004  TYR2004    -0.1959
     16  CA        15.7810  -14.8810   59.0880 C.3   2004  TYR2004     0.1771
     17  C         14.3940  -15.0760   59.7000 C.2   2004  TYR2004     0.2621
     18  O         13.9640  -14.3880   60.6290 O.2   2004  TYR2004    -0.2715
     19  CB        16.5480  -13.5630   59.1660 C.3   2004  TYR2004     0.0574
     20  CG        15.8160  -12.2470   59.2900 C.ar  2004  TYR2004    -0.0198
     21  CD1       16.3220  -11.3270   60.2080 C.ar  2004  TYR2004    -0.0011
     22  CD2       14.6670  -11.9060   58.5090 C.ar  2004  TYR2004    -0.0011
     23  CE1       15.7500  -10.0670   60.4060 C.ar  2004  TYR2004     0.0371
     24  CE2       14.0790  -10.6230   58.7050 C.ar  2004  TYR2004     0.0371
     25  CZ        14.6200   -9.7180   59.6420 C.ar  2004  TYR2004     0.1490
     26  OH        14.2450   -8.3600   60.0520 O.3   2004  TYR2004    -0.3998
     27  P         15.0600   -6.9980   59.6110 P.3   2004  TYR2004     0.5887
     28  O1P       16.4590   -7.1060   60.0800 O.3   2004  TYR2004    -0.1039
     29  O2P       14.3320   -5.8900   60.2670 O.3   2004  TYR2004    -0.1039
     30  O3P       15.1580   -6.8790   58.1760 O.2   2004  TYR2004    -0.2114
     31  N         13.7390  -16.0960   59.1460 N.am  2005  SER2005    -0.1914
     32  CA        12.4000  -16.5740   59.4980 C.3   2005  SER2005     0.2304
     33  C         11.2070  -15.8110   58.9190 C.2   2005  SER2005     0.3869
     34  O         11.3000  -14.5690   58.7560 O.co2 2005  SER2005    -0.2437
     35  CB        12.2700  -16.6930   61.0210 C.3   2005  SER2005     0.2152
     36  OG        12.9010  -17.8940   61.4680 O.3   2005  SER2005    -0.2179
     37  OXT       10.1820  -16.4850   58.6390 O.co2 2005  SER2005    -0.2437
@<TRIPOS>BOND
     1     4     3    2
     2     7     1    1
     3     7     6    1
     4     1     2    1
     5    13    12    1
     6     3     2    1
     7     3     8   am
     8    30    27    2
     9     6     5    1
    10    15    16    1
    11    15    10   am
    12     2     5    1
    13    22    24   ar
    14    22    20   ar
    15     9    12    1
    16     9     8    1
    17     9    10    1
    18    37    33   ar
    19    24    25   ar
    20    34    33   ar
    21    12    14    1
    22    33    32    1
    23    16    19    1
    24    16    17    1
    25    31    32    1
    26    31    17   am
    27    19    20    1
    28    10    11    2
    29    20    21   ar
    30    32    35    1
    31    27    26    1
    32    27    28    1
    33    27    29    1
    34    25    26    1
    35    25    23   ar
    36    17    18    2
    37    21    23   ar
    38    35    36    1
