@<TRIPOS>MOLECULE
1yh9_HEM_A_1.pdb
 43 50 0 0 0
SMALL
GASTEIGER

@<TRIPOS>ATOM
      1 FE          8.3800   41.0570  -14.8200 Fe    142  HEM142      0.0000
      2  CHA        6.6610   43.6480  -16.1820 C.2   142  HEM142      0.0000
      3  CHB        6.1110   40.9850  -12.2370 C.2   142  HEM142      0.0000
      4  CHC       10.1970   38.5500  -13.1960 C.2   142  HEM142      0.0000
      5  CHD       10.8910   41.4030  -17.0270 C.2   142  HEM142      0.0000
      6  NA         6.6820   42.0920  -14.3180 N.2   142  HEM142      0.0000
      7  C1A        6.1760   43.1670  -15.0070 C.2   142  HEM142      0.0000
      8  C2A        5.0580   43.7110  -14.2910 C.2   142  HEM142      0.0000
      9  C3A        4.9050   42.9880  -13.1880 C.2   142  HEM142      0.0000
     10  C4A        5.9200   41.9500  -13.1880 C.2   142  HEM142      0.0000
     11  CMA        3.8170   43.2160  -12.1220 C.3   142  HEM142      0.0000
     12  CAA        4.2150   44.9380  -14.7110 C.3   142  HEM142      0.0000
     13  CBA        3.1780   44.5400  -15.7480 C.3   142  HEM142      0.0000
     14  CGA        2.0900   45.5820  -15.7540 C.2   142  HEM142      0.0000
     15  O1A        0.9200   45.1980  -15.5190 O.co2 142  HEM142      0.0000
     16  O2A        2.3910   46.7930  -15.9660 O.co2 142  HEM142      0.0000
     17  NB         8.2250   40.0070  -13.0460 N.ar  142  HEM142      0.0000
     18  C1B        7.1580   40.0930  -12.1760 C.ar  142  HEM142      0.0000
     19  C2B        7.3090   39.0730  -11.1660 C.ar  142  HEM142      0.0000
     20  C3B        8.4280   38.3980  -11.4130 C.ar  142  HEM142      0.0000
     21  C4B        9.0240   38.9610  -12.6080 C.ar  142  HEM142      0.0000
     22  CMB        6.3510   38.8260   -9.9930 C.3   142  HEM142      0.0000
     23  CAB        8.9660   37.2170  -10.5820 C.2   142  HEM142      0.0000
     24  CBB        9.4540   37.4360   -9.3670 C.2   142  HEM142      0.0000
     25  NC        10.1980   40.1580  -15.0340 N.2   142  HEM142      0.0000
     26  C1C       10.7500   39.1170  -14.3240 C.2   142  HEM142      0.0000
     27  C2C       12.0400   38.8040  -14.9040 C.2   142  HEM142      0.0000
     28  C3C       12.1540   39.5170  -16.0080 C.2   142  HEM142      0.0000
     29  C4C       11.0460   40.4350  -16.0730 C.2   142  HEM142      0.0000
     30  CMC       12.9200   37.5980  -14.5280 C.3   142  HEM142      0.0000
     31  CAC       13.3250   39.4970  -17.0060 C.2   142  HEM142      0.0000
     32  CBC       14.5630   39.6680  -16.5360 C.2   142  HEM142      0.0000
     33  ND         8.7190   42.3370  -16.3180 N.ar  142  HEM142      0.0000
     34  C1D        9.8220   42.2530  -17.1630 C.ar  142  HEM142      0.0000
     35  C2D        9.6790   43.1990  -18.2500 C.ar  142  HEM142      0.0000
     36  C3D        8.3550   43.9040  -17.9860 C.ar  142  HEM142      0.0000
     37  C4D        7.8450   43.3070  -16.7700 C.ar  142  HEM142      0.0000
     38  CMD       10.6490   43.4460  -19.4190 C.3   142  HEM142      0.0000
     39  CAD        7.7250   45.0180  -18.8440 C.3   142  HEM142      0.0000
     40  CBD        8.4120   46.3330  -18.4890 C.3   142  HEM142      0.0000
     41  CGD        7.8900   47.4520  -19.3600 C.2   142  HEM142      0.0000
     42  O1D        7.4700   48.4870  -18.7940 O.co2 142  HEM142      0.0000
     43  O2D        7.9040   47.3120  -20.6140 O.co2 142  HEM142      0.0000
@<TRIPOS>BOND
     1    43    41   ar
     2    38    35    1
     3    41    42   ar
     4    41    40    1
     5    39    40    1
     6    39    36    1
     7    35    36   ar
     8    35    34   ar
     9    36    37   ar
    10    34     5    2
    11    34    33   ar
    12     5    29    1
    13    31    32    2
    14    31    28    1
    15    37    33   ar
    16    37     2    2
    17    33     1    1
    18     2     7    1
    19    29    28    1
    20    29    25    2
    21    28    27    2
    22    16    14   ar
    23    14    13    1
    24    14    15   ar
    25    13    12    1
    26    25     1    1
    27    25    26    1
    28     7     6    2
    29     7     8    1
    30    27    30    1
    31    27    26    1
    32     1     6    1
    33     1    17    1
    34    12     8    1
    35    26     4    2
    36     6    10    1
    37     8     9    2
    38     4    21    1
    39    10     9    1
    40    10     3    2
    41     9    11    1
    42    17    21   ar
    43    17    18   ar
    44    21    20   ar
    45     3    18    1
    46    18    19   ar
    47    20    19   ar
    48    20    23    1
    49    19    22    1
    50    23    24    2
