@<TRIPOS>MOLECULE
1yhe_HEM_A_1.pdb
 43 50 0 0 0
SMALL
GASTEIGER

@<TRIPOS>ATOM
      1 FE          8.3180   40.9990  -14.7890 Fe    142  HEM142      0.0000
      2  CHA        6.5610   43.5010  -16.2100 C.2   142  HEM142      0.0000
      3  CHB        6.1180   40.9440  -12.2110 C.2   142  HEM142      0.0000
      4  CHC       10.2230   38.5500  -13.2010 C.2   142  HEM142      0.0000
      5  CHD       10.8100   41.3410  -17.0860 C.2   142  HEM142      0.0000
      6  NA         6.6260   42.0210  -14.3100 N.2   142  HEM142      0.0000
      7  C1A        6.0950   43.0470  -15.0190 C.2   142  HEM142      0.0000
      8  C2A        4.9750   43.5880  -14.3220 C.2   142  HEM142      0.0000
      9  C3A        4.8380   42.9060  -13.1900 C.2   142  HEM142      0.0000
     10  C4A        5.8760   41.8790  -13.1760 C.2   142  HEM142      0.0000
     11  CMA        3.7410   43.1290  -12.1110 C.3   142  HEM142      0.0000
     12  CAA        4.1470   44.7950  -14.8290 C.3   142  HEM142      0.0000
     13  CBA        3.1140   44.4200  -15.8870 C.3   142  HEM142      0.0000
     14  CGA        2.0840   45.5210  -15.8580 C.2   142  HEM142      0.0000
     15  O1A        0.8930   45.1990  -15.5930 O.co2 142  HEM142      0.0000
     16  O2A        2.4780   46.7070  -16.0400 O.co2 142  HEM142      0.0000
     17  NB         8.2170   39.9550  -13.0360 N.ar  142  HEM142      0.0000
     18  C1B        7.1760   40.0490  -12.1560 C.ar  142  HEM142      0.0000
     19  C2B        7.3500   39.0350  -11.1570 C.ar  142  HEM142      0.0000
     20  C3B        8.4660   38.3790  -11.3960 C.ar  142  HEM142      0.0000
     21  C4B        9.0350   38.9240  -12.6100 C.ar  142  HEM142      0.0000
     22  CMB        6.4400   38.8360   -9.9460 C.3   142  HEM142      0.0000
     23  CAB        9.0360   37.2330  -10.5540 C.2   142  HEM142      0.0000
     24  CBB        9.4950   37.4830   -9.3320 C.2   142  HEM142      0.0000
     25  NC        10.1910   40.1070  -15.0710 N.2   142  HEM142      0.0000
     26  C1C       10.7730   39.1250  -14.3290 C.2   142  HEM142      0.0000
     27  C2C       12.0160   38.7720  -14.9930 C.2   142  HEM142      0.0000
     28  C3C       12.1810   39.5690  -16.0410 C.2   142  HEM142      0.0000
     29  C4C       11.0170   40.4050  -16.1230 C.2   142  HEM142      0.0000
     30  CMC       12.9920   37.7290  -14.4950 C.3   142  HEM142      0.0000
     31  CAC       13.3400   39.5790  -17.0510 C.2   142  HEM142      0.0000
     32  CBC       14.6140   39.4980  -16.5940 C.2   142  HEM142      0.0000
     33  ND         8.6220   42.1840  -16.3630 N.ar  142  HEM142      0.0000
     34  C1D        9.7410   42.1780  -17.1780 C.ar  142  HEM142      0.0000
     35  C2D        9.6240   43.1830  -18.2160 C.ar  142  HEM142      0.0000
     36  C3D        8.2960   43.8490  -17.9400 C.ar  142  HEM142      0.0000
     37  C4D        7.7610   43.1830  -16.7740 C.ar  142  HEM142      0.0000
     38  CMD       10.6460   43.4700  -19.3300 C.3   142  HEM142      0.0000
     39  CAD        7.6570   45.0180  -18.7050 C.3   142  HEM142      0.0000
     40  CBD        8.2850   46.2920  -18.1810 C.3   142  HEM142      0.0000
     41  CGD        7.7440   47.4630  -18.9770 C.2   142  HEM142      0.0000
     42  O1D        7.1460   48.3860  -18.3880 O.co2 142  HEM142      0.0000
     43  O2D        7.9100   47.4620  -20.2050 O.co2 142  HEM142      0.0000
@<TRIPOS>BOND
     1    43    41   ar
     2    38    35    1
     3    41    42   ar
     4    41    40    1
     5    39    40    1
     6    39    36    1
     7    35    36   ar
     8    35    34   ar
     9    36    37   ar
    10    34     5    2
    11    34    33   ar
    12     5    29    1
    13    31    32    2
    14    31    28    1
    15    37    33   ar
    16    37     2    2
    17    33     1    1
    18     2     7    1
    19    29    28    1
    20    29    25    2
    21    28    27    2
    22    16    14   ar
    23    13    14    1
    24    13    12    1
    25    14    15   ar
    26    25     1    1
    27    25    26    1
    28     7     8    1
    29     7     6    2
    30    27    30    1
    31    27    26    1
    32    12     8    1
    33     1     6    1
    34     1    17    1
    35    26     4    2
    36     8     9    2
    37     6    10    1
    38     4    21    1
    39     9    10    1
    40     9    11    1
    41    10     3    2
    42    17    21   ar
    43    17    18   ar
    44    21    20   ar
    45     3    18    1
    46    18    19   ar
    47    20    19   ar
    48    20    23    1
    49    19    22    1
    50    23    24    2
