@<TRIPOS>MOLECULE
1yhj_R6C_A_1.pdb
 26 28 0 0 0
SMALL
GASTEIGER

@<TRIPOS>ATOM
      1  OAP       12.9360   62.4520   -0.8200 O.3   313  R6C313     -0.2185
      2  CAQ       12.9770   61.1000   -0.4640 C.3   313  R6C313      0.2044
      3  CAR       13.9360   60.9720    0.7160 C.3   313  R6C313      0.1385
      4  CAK       13.0470   60.7770    1.9680 C.3   313  R6C313      0.0252
      5  CAI       13.0920   59.4310    2.6660 C.3   313  R6C313      0.0019
      6  NAS       14.7700   59.8320    0.2970 N.pl3 313  R6C313     -0.1508
      7  CAT       15.9870   59.4100    0.7800 C.1   313  R6C313      0.2243
      8  NAU       16.5620   60.0860    1.8310 N.2   313  R6C313     -0.3098
      9  CAV       17.7370   59.6300    2.3820 C.2   313  R6C313      0.2216
     10  NAW       18.4250   60.1750    3.3850 N.pl3 313  R6C313     -0.2624
     11  CAZ       17.8050   61.3670    4.0200 C.3   313  R6C313      0.0770
     12  CAY       17.3860   60.9980    5.4350 C.3   313  R6C313      0.0216
     13  CBA       18.7670   62.5260    3.8890 C.3   313  R6C313      0.0216
     14  CAX       19.5500   59.3990    3.5590 C.3   313  R6C313      0.2221
     15  CAN       18.4340   58.5550    1.8810 C.2   313  R6C313      0.1896
     16  NAO       19.5940   58.3620    2.6350 N.2   313  R6C313     -0.2387
     17  NAL       16.6510   58.3290    0.2810 N.2   313  R6C313     -0.2879
     18  CAM       17.8280   57.8610    0.7970 C.2   313  R6C313      0.3111
     19  OAJ       18.4500   56.7750    0.2480 O.2   313  R6C313     -0.4451
     20  CAD       18.9440   55.6730    1.0630 C.3   313  R6C313      0.2348
     21  CAE       17.9180   54.6520    1.5290 C.ar  313  R6C313      0.0213
     22  CAG       17.8430   54.3240    2.9150 C.ar  313  R6C313     -0.0007
     23  CAH       16.8950   53.3720    3.3640 C.ar  313  R6C313     -0.0002
     24  CAF       16.0140   52.7410    2.4390 C.ar  313  R6C313     -0.0000
     25  CAC       16.0820   53.0640    1.0580 C.ar  313  R6C313     -0.0002
     26  CAB       17.0340   54.0160    0.6000 C.ar  313  R6C313     -0.0007
@<TRIPOS>BOND
     1     1     2    1
     2     2     3    1
     3    19    18    1
     4    19    20    1
     5    17     7    2
     6    17    18    2
     7     6     3    1
     8     6     7    1
     9    26    25   ar
    10    26    21   ar
    11     3     4    1
    12     7     8    2
    13    18    15    1
    14    25    24   ar
    15    20    21    1
    16    21    22   ar
    17     8     9    2
    18    15     9    1
    19    15    16    2
    20     4     5    1
    21     9    10    1
    22    24    23   ar
    23    16    14    1
    24    22    23   ar
    25    10    14    1
    26    10    11    1
    27    13    11    1
    28    11    12    1
