@<TRIPOS>MOLECULE
1yhl_DMA_A_1.pdb
 14 13 0 0 0
SMALL
GASTEIGER

@<TRIPOS>ATOM
      1  C1         4.1920   13.9800  174.2440 C.3   1301  DMA1301     0.1747
      2  O1         3.3270   12.8090  174.5210 O.3   1301  DMA1301    -0.3089
      3  C2         5.7080   13.9120  174.5900 C.2   1301  DMA1301    -0.0024
      4  C3         6.7670   14.7890  174.4700 C.2   1301  DMA1301    -0.0454
      5  C4         8.1300   14.3180  174.9580 C.3   1301  DMA1301     0.0261
      6  C5         6.6980   16.2150  173.9590 C.3   1301  DMA1301     0.0261
      7  PA         2.1480   11.9410  173.6670 P.3   1301  DMA1301     0.2233
      8  O1A        1.0470   12.7240  173.0400 O.2   1301  DMA1301    -0.5169
      9  O2A        1.4130   11.0810  174.6980 O.3   1301  DMA1301    -0.4370
     10  O3A        2.9380   10.7760  172.7800 O.3   1301  DMA1301    -0.2261
     11  PB         4.2400   11.4220  172.0710 P.3   1301  DMA1301     0.5373
     12  O1B        5.1170   10.3740  171.3210 O.2   1301  DMA1301    -0.2221
     13  O2B        5.0880   11.9110  173.2070 O.3   1301  DMA1301    -0.1143
     14  O3B        3.5610   12.5740  171.3550 O.3   1301  DMA1301    -0.1143
@<TRIPOS>BOND
     1    12    11    2
     2    14    11    1
     3    11    10    1
     4    11    13    1
     5    10     7    1
     6     8     7    2
     7     7     2    1
     8     7     9    1
     9     6     4    1
    10     1     2    1
    11     1     3    1
    12     4     3    2
    13     4     5    1
