@<TRIPOS>MOLECULE
1yhl_RIS_A_1.pdb
 17 17 0 0 0
SMALL
GASTEIGER

@<TRIPOS>ATOM
      1  O12       13.5140   14.5320  174.0210 O.2   1400  RIS1400    -0.4572
      2  P9        12.3190   14.4850  174.9330 P.3   1400  RIS1400     0.1514
      3  O11       12.5220   13.5720  176.0920 O.3   1400  RIS1400    -0.3553
      4  O10       11.1480   13.8860  174.0790 O.3   1400  RIS1400    -0.3553
      5  C8        11.8280   16.1290  175.5180 C.3   1400  RIS1400     0.2200
      6  O13       10.7360   15.9940  176.4110 O.3   1400  RIS1400    -0.2105
      7  P14       13.2190   16.9400  176.3890 P.3   1400  RIS1400     0.1514
      8  O16       13.7350   16.0380  177.4650 O.3   1400  RIS1400    -0.3553
      9  O15       14.1220   16.9540  175.2340 O.2   1400  RIS1400    -0.4572
     10  O17       13.0210   18.3420  176.8830 O.3   1400  RIS1400    -0.3553
     11  C7        11.3410   16.8410  174.2850 C.3   1400  RIS1400     0.0725
     12  C2        10.8830   18.1930  174.3580 C.ar  1400  RIS1400     0.0004
     13  C1        11.0600   19.0020  173.2230 C.ar  1400  RIS1400    -0.0010
     14  C6        10.6940   20.3630  173.2550 C.ar  1400  RIS1400     0.0204
     15  C5        10.1260   20.9130  174.4110 C.ar  1400  RIS1400     0.0989
     16  N4         9.8790   20.1440  175.4970 N.ar  1400  RIS1400    -0.2426
     17  C3        10.2620   18.8270  175.4690 C.ar  1400  RIS1400     0.0947
@<TRIPOS>BOND
     1    13    14   ar
     2    13    12   ar
     3    14    15   ar
     4     1     2    2
     5     4     2    1
     6    11    12    1
     7    11     5    1
     8    12    17   ar
     9    15    16   ar
    10     2     5    1
    11     2     3    1
    12     9     7    2
    13    17    16   ar
    14     5     7    1
    15     5     6    1
    16     7    10    1
    17     7     8    1
