@<TRIPOS>MOLECULE
1yhm_AHD_A_1.pdb
 14 13 0 0 0
SMALL
GASTEIGER

@<TRIPOS>ATOM
      1  C2        47.0230   51.2700  203.1580 C.3   901  AHD901      0.0240
      2  C3        45.9150   51.7140  204.1540 C.3   901  AHD901      0.1094
      3  C7        47.8500   49.9690  203.4470 C.3   901  AHD901      0.0462
      4  C8        48.5620   49.5930  204.6830 C.3   901  AHD901      0.2160
      5  O12       50.8780   48.8260  203.2870 O.3   901  AHD901     -0.3553
      6  P9        49.7640   48.3130  204.1400 P.3   901  AHD901      0.1511
      7  O10       49.0010   47.2870  203.2250 O.2   901  AHD901     -0.4573
      8  O11       50.2800   47.5420  205.3730 O.3   901  AHD901     -0.3553
      9  P14       49.4940   50.8860  205.5950 P.3   901  AHD901      0.1511
     10  O15       50.3460   51.2240  204.4480 O.2   901  AHD901     -0.4573
     11  O16       50.1900   50.3130  206.7770 O.3   901  AHD901     -0.3553
     12  O17       48.4420   52.1010  205.5440 O.3   901  AHD901     -0.3553
     13  O13       47.7810   49.0060  205.5000 O.3   901  AHD901     -0.2108
     14  N4        45.0170   52.7030  203.5480 N.3   901  AHD901     -0.1314
@<TRIPOS>BOND
     1     1     3    1
     2     1     2    1
     3     7     6    2
     4     5     6    1
     5     3     4    1
     6    14     2    1
     7     6     4    1
     8     6     8    1
     9    10     9    2
    10     4    13    1
    11     4     9    1
    12    12     9    1
    13     9    11    1
