@<TRIPOS>MOLECULE
1yhm_IPR_A_1.pdb
 14 13 0 0 0
SMALL
GASTEIGER

@<TRIPOS>ATOM
      1  P11       43.3280   42.6650  201.0540 P.3   900  IPR900      0.5373
      2  O14       42.8430   43.4520  199.8810 O.2   900  IPR900     -0.2221
      3  O12       42.3150   41.9430  201.9600 O.3   900  IPR900     -0.1143
      4  O13       44.4480   41.7570  200.6030 O.3   900  IPR900     -0.1143
      5  O10       44.1230   43.8220  201.8670 O.3   900  IPR900     -0.2261
      6  P7        44.0000   44.2060  203.4410 P.3   900  IPR900      0.2230
      7  O8        42.5590   44.0150  203.8820 O.2   900  IPR900     -0.5169
      8  O9        45.1990   43.5750  204.1560 O.3   900  IPR900     -0.4370
      9  O6        44.2730   45.7740  203.4330 O.3   900  IPR900     -0.3135
     10  C5        45.5670   46.2820  203.6590 C.3   900  IPR900      0.1535
     11  C4        45.1890   47.7390  203.8240 C.3   900  IPR900      0.0545
     12  C2        44.5110   48.0520  205.1510 C.2   900  IPR900     -0.0414
     13  C1        43.4580   49.1280  205.1160 C.3   900  IPR900      0.0264
     14  C3        44.8470   47.4390  206.3010 C.2   900  IPR900     -0.0090
@<TRIPOS>BOND
     1     2     1    2
     2     4     1    1
     3     1     5    1
     4     1     3    1
     5     5     6    1
     6     9     6    1
     7     9    10    1
     8     6     7    2
     9     6     8    1
    10    10    11    1
    11    11    12    1
    12    13    12    1
    13    12    14    2
