@<TRIPOS>MOLECULE
1yhn_GTP_A_1.pdb
 32 34 0 0 0
SMALL
GASTEIGER

@<TRIPOS>ATOM
      1  PG        16.8420   65.8860   32.2400 P.3   301  GTP301      0.5373
      2  O1G       15.9750   66.5950   33.2570 O.3   301  GTP301     -0.1143
      3  O2G       16.2800   65.8390   30.8430 O.2   301  GTP301     -0.2221
      4  O3G       17.1070   64.4600   32.7050 O.3   301  GTP301     -0.1143
      5  O3B       18.2180   66.7090   32.1680 O.3   301  GTP301     -0.2258
      6  PB        19.3730   66.5610   33.2260 P.3   301  GTP301      0.2277
      7  O1B       20.5790   67.3330   32.9650 O.2   301  GTP301     -0.5168
      8  O2B       19.6600   65.1610   33.3510 O.3   301  GTP301     -0.4368
      9  O3A       18.8410   66.9440   34.6210 O.3   301  GTP301     -0.2700
     10  PA        19.3410   67.7990   35.8660 P.3   301  GTP301      0.2189
     11  O1A       18.1530   67.8490   36.7840 O.3   301  GTP301     -0.4371
     12  O2A       19.9530   69.0740   35.4060 O.2   301  GTP301     -0.5170
     13  O5'       20.3160   66.8560   36.6680 O.3   301  GTP301     -0.3112
     14  C5'       21.4620   66.1590   36.2920 C.3   301  GTP301      0.1813
     15  C4'       21.9380   65.3970   37.5570 C.3   301  GTP301      0.1799
     16  O4'       23.3770   65.4650   37.7080 O.3   301  GTP301     -0.3326
     17  C3'       21.4030   65.9100   38.9250 C.3   301  GTP301      0.2158
     18  O3'       21.1730   64.8400   39.8350 O.3   301  GTP301     -0.2175
     19  C2'       22.4610   66.8580   39.3800 C.3   301  GTP301      0.2310
     20  O2'       22.5490   66.8730   40.8070 O.3   301  GTP301     -0.2158
     21  C1'       23.7290   66.3380   38.8010 C.3   301  GTP301      0.2293
     22  N9        24.6260   67.3590   38.2370 N.pl3 301  GTP301     -0.2354
     23  C8        24.2960   68.3200   37.3080 C.3   301  GTP301      0.2246
     24  N7        25.2810   69.1000   36.9950 N.2   301  GTP301     -0.2322
     25  C5        26.3360   68.6430   37.7670 C.2   301  GTP301      0.2182
     26  C6        27.6940   69.0900   37.8680 C.1   301  GTP301      0.2372
     27  O6        28.2630   70.0240   37.2920 O.2   301  GTP301     -0.2069
     28  N1        28.4400   68.3290   38.7850 N.2   301  GTP301     -0.2485
     29  C2        27.9420   67.2600   39.5050 C.1   301  GTP301      0.2531
     30  N2        28.8170   66.6640   40.3210 N.pl3 301  GTP301     -0.0226
     31  N3        26.6880   66.8320   39.4170 N.2   301  GTP301     -0.3074
     32  C4        25.9380   67.5690   38.5350 C.2   301  GTP301      0.2300
@<TRIPOS>BOND
     1     3     1    2
     2     5     1    1
     3     5     6    1
     4     1     4    1
     5     1     2    1
     6     7     6    2
     7     6     8    1
     8     6     9    1
     9     9    10    1
    10    12    10    2
    11    10    13    1
    12    10    11    1
    13    14    13    1
    14    14    15    1
    15    24    23    1
    16    24    25    2
    17    27    26    2
    18    23    22    1
    19    15    16    1
    20    15    17    1
    21    16    21    1
    22    25    26    1
    23    25    32    1
    24    26    28    2
    25    22    32    1
    26    22    21    1
    27    32    31    2
    28    28    29    2
    29    21    19    1
    30    17    19    1
    31    17    18    1
    32    19    20    1
    33    31    29    2
    34    29    30    1
