@<TRIPOS>MOLECULE
1yho_TRR_A_1.pdb
 40 41 0 0 0
SMALL
GASTEIGER

@<TRIPOS>ATOM
      1  N1        -2.3520   -4.2270    5.2640 N.pl3 200  TRR200     -0.2834
      2  C2        -2.9490   -3.3200    4.4160 C.cat 200  TRR200      0.2366
      3  N2        -4.3180   -3.2990    4.2870 N.pl3 200  TRR200     -0.3207
      4  N3        -2.1760   -2.4340    3.6970 N.2   200  TRR200     -0.3592
      5  C4        -0.8030   -2.4490    3.8210 C.2   200  TRR200      0.1762
      6  N4        -0.0410   -1.5580    3.0990 N.pl3 200  TRR200     -0.3331
      7  C5        -0.1930   -3.3620    4.6740 C.2   200  TRR200      0.0227
      8  C6        -0.9800   -4.2530    5.3970 C.2   200  TRR200      0.0049
      9  C7         1.3080   -3.3850    4.8140 C.3   200  TRR200      0.0033
     10  C11        1.8400   -4.7190    5.2650 C.ar  200  TRR200     -0.0357
     11  C12        2.1190   -4.9370    6.6120 C.ar  200  TRR200     -0.0126
     12  C13        2.6130   -6.1780    7.0340 C.ar  200  TRR200      0.1654
     13  C14        2.8240   -7.1940    6.1010 C.ar  200  TRR200      0.2035
     14  C15        2.5450   -6.9770    4.7520 C.ar  200  TRR200      0.1654
     15  C16        2.0510   -5.7340    4.3340 C.ar  200  TRR200     -0.0126
     16  O13        2.8970   -6.4110    8.3780 O.3   200  TRR200     -0.4913
     17  O14        3.3110   -8.4170    6.5150 O.3   200  TRR200     -0.4885
     18  O15        2.7610   -8.0020    3.8330 O.3   200  TRR200     -0.4913
     19  C17        2.6820   -5.3810    9.3100 C.3   200  TRR200      0.0790
     20  C18        4.5410   -8.8420    6.0000 C.3   200  TRR200      0.0791
     21  C19        2.4770   -7.7720    2.4750 C.3   200  TRR200      0.0790
     22  H1        -2.9090   -4.8620    5.7790 H     200  TRR200      0.1552
     23  H21       -4.8800   -3.9320    4.7990 H     200  TRR200      0.1459
     24  H22       -4.7550   -2.6510    3.6800 H     200  TRR200      0.1459
     25  H41       -0.4730   -0.9080    2.4910 H     200  TRR200      0.1447
     26  H42        0.9450   -1.5590    3.1790 H     200  TRR200      0.1447
     27  H6        -0.5070   -4.9780    6.0750 H     200  TRR200      0.0787
     28  H71        1.6050   -2.6180    5.5330 H     200  TRR200      0.0363
     29  H72        1.7540   -3.1440    3.8540 H     200  TRR200      0.0363
     30  H12        1.9510   -4.1330    7.3430 H     200  TRR200      0.0658
     31  H16        1.8290   -5.5580    3.2720 H     200  TRR200      0.0658
     32 H171        3.3990   -4.5710    9.1810 H     200  TRR200      0.0660
     33 H172        2.7780   -5.7440   10.3330 H     200  TRR200      0.0660
     34 H173        1.6840   -4.9540    9.2060 H     200  TRR200      0.0660
     35 H181        5.3620   -8.2310    6.3760 H     200  TRR200      0.0660
     36 H182        4.5600   -8.7810    4.9120 H     200  TRR200      0.0660
     37 H183        4.7520   -9.8760    6.2730 H     200  TRR200      0.0660
     38 H191        2.8050   -8.6050    1.8540 H     200  TRR200      0.0660
     39 H192        2.9760   -6.8750    2.1100 H     200  TRR200      0.0660
     40 H193        1.4070   -7.6420    2.3090 H     200  TRR200      0.0660
@<TRIPOS>BOND
     1    38    21    1
     2    39    21    1
     3    40    21    1
     4    21    18    1
     5    25     6    1
     6     6    26    1
     7     6     5    1
     8    31    15    1
     9    24     3    1
    10     4     5    2
    11     4     2    2
    12     5     7    1
    13    18    14    1
    14    29     9    1
    15     3     2    1
    16     3    23    1
    17    15    14   ar
    18    15    10   ar
    19     2     1    1
    20     7     9    1
    21     7     8    2
    22    14    13   ar
    23     9    10    1
    24     9    28    1
    25    36    20    1
    26     1     8    1
    27     1    22    1
    28    10    11   ar
    29     8    27    1
    30    20    37    1
    31    20    35    1
    32    20    17    1
    33    13    17    1
    34    13    12   ar
    35    11    12   ar
    36    11    30    1
    37    12    16    1
    38    16    19    1
    39    32    19    1
    40    34    19    1
    41    19    33    1
