@<TRIPOS>MOLECULE
1yhr_HEM_A_1.pdb
 43 50 0 0 0
SMALL
GASTEIGER

@<TRIPOS>ATOM
      1 FE          9.1020   41.0910  -14.0870 Fe    142  HEM142      0.0000
      2  CHA        7.4580   43.5440  -15.6060 C.2   142  HEM142      0.0000
      3  CHB        7.1250   41.2330  -11.4730 C.2   142  HEM142      0.0000
      4  CHC       11.0330   38.6640  -12.4910 C.2   142  HEM142      0.0000
      5  CHD       11.5310   41.2250  -16.4670 C.2   142  HEM142      0.0000
      6  NA         7.6230   42.1780  -13.6400 N.2   142  HEM142      0.0000
      7  C1A        7.0210   43.1410  -14.4040 C.2   142  HEM142      0.0000
      8  C2A        5.8430   43.6650  -13.7500 C.2   142  HEM142      0.0000
      9  C3A        5.7570   43.0350  -12.5860 C.2   142  HEM142      0.0000
     10  C4A        6.8650   42.0880  -12.4990 C.2   142  HEM142      0.0000
     11  CMA        4.6720   43.2920  -11.5340 C.3   142  HEM142      0.0000
     12  CAA        4.9340   44.7930  -14.2830 C.3   142  HEM142      0.0000
     13  CBA        3.5310   44.3660  -14.7050 C.3   142  HEM142      0.0000
     14  CGA        2.7420   45.5510  -15.2710 C.2   142  HEM142      0.0000
     15  O1A        1.5220   45.3790  -15.5260 O.co2 142  HEM142      0.0000
     16  O2A        3.2970   46.6750  -15.4870 O.co2 142  HEM142      0.0000
     17  NB         9.1310   40.1680  -12.3290 N.ar  142  HEM142      0.0000
     18  C1B        8.1200   40.2900  -11.4180 C.ar  142  HEM142      0.0000
     19  C2B        8.2640   39.2500  -10.4120 C.ar  142  HEM142      0.0000
     20  C3B        9.3500   38.5600  -10.6890 C.ar  142  HEM142      0.0000
     21  C4B        9.9020   39.1080  -11.8850 C.ar  142  HEM142      0.0000
     22  CMB        7.3470   39.0730   -9.1850 C.3   142  HEM142      0.0000
     23  CAB        9.9380   37.3620   -9.9310 C.2   142  HEM142      0.0000
     24  CBB       10.0390   37.3570   -8.6030 C.2   142  HEM142      0.0000
     25  NC        10.9060   40.1550  -14.3840 N.2   142  HEM142      0.0000
     26  C1C       11.5130   39.1680  -13.6590 C.2   142  HEM142      0.0000
     27  C2C       12.5410   38.5770  -14.4460 C.2   142  HEM142      0.0000
     28  C3C       12.8060   39.4610  -15.3680 C.2   142  HEM142      0.0000
     29  C4C       11.7120   40.3480  -15.4530 C.2   142  HEM142      0.0000
     30  CMC       13.6500   37.7130  -13.8310 C.3   142  HEM142      0.0000
     31  CAC       13.9420   39.3970  -16.3820 C.2   142  HEM142      0.0000
     32  CBC       15.1660   39.5950  -15.9040 C.2   142  HEM142      0.0000
     33  ND         9.4150   42.1570  -15.7510 N.ar  142  HEM142      0.0000
     34  C1D       10.5050   42.1080  -16.5710 C.ar  142  HEM142      0.0000
     35  C2D       10.4560   43.1190  -17.5730 C.ar  142  HEM142      0.0000
     36  C3D        9.1880   43.8580  -17.3160 C.ar  142  HEM142      0.0000
     37  C4D        8.6260   43.1870  -16.1750 C.ar  142  HEM142      0.0000
     38  CMD       11.4710   43.3920  -18.6820 C.3   142  HEM142      0.0000
     39  CAD        8.6250   45.0380  -18.1320 C.3   142  HEM142      0.0000
     40  CBD        9.2440   46.3860  -17.7830 C.3   142  HEM142      0.0000
     41  CGD        8.3830   47.4700  -18.3870 C.2   142  HEM142      0.0000
     42  O1D        7.9360   48.3740  -17.6280 O.co2 142  HEM142      0.0000
     43  O2D        8.1460   47.4180  -19.6230 O.co2 142  HEM142      0.0000
@<TRIPOS>BOND
     1    43    41   ar
     2    38    35    1
     3    41    40    1
     4    41    42   ar
     5    39    40    1
     6    39    36    1
     7    35    36   ar
     8    35    34   ar
     9    36    37   ar
    10    34     5    2
    11    34    33   ar
    12     5    29    1
    13    31    32    2
    14    31    28    1
    15    37    33   ar
    16    37     2    2
    17    33     1    1
    18     2     7    1
    19    15    14   ar
    20    16    14   ar
    21    29    28    1
    22    29    25    2
    23    28    27    2
    24    14    13    1
    25    13    12    1
    26    27    30    1
    27    27    26    1
    28     7     8    1
    29     7     6    2
    30    25     1    1
    31    25    26    1
    32    12     8    1
    33     1     6    1
    34     1    17    1
    35     8     9    2
    36    26     4    2
    37     6    10    1
    38     9    10    1
    39     9    11    1
    40    10     3    2
    41     4    21    1
    42    17    21   ar
    43    17    18   ar
    44    21    20   ar
    45     3    18    1
    46    18    19   ar
    47    20    19   ar
    48    20    23    1
    49    19    22    1
    50    23    24    2
