@<TRIPOS>MOLECULE
1yhs_STU_A_1.pdb
 35 42 0 0 0
SMALL
GASTEIGER

@<TRIPOS>ATOM
      1  O4       -19.4280   36.1510   -4.0800 O.3   306  STU306     -0.3186
      2  C25      -19.3950   37.5300   -4.2450 C.3   306  STU306      0.2078
      3  C24      -17.9710   38.0830   -4.5450 C.3   306  STU306      0.0739
      4  C23      -17.1120   37.0040   -5.2070 C.3   306  STU306      0.1086
      5  C22      -16.9360   35.8110   -4.2280 C.3   306  STU306      0.1761
      6  C21      -18.3010   35.4770   -3.4590 C.3   306  STU306      0.1915
      7  C26      -18.6330   33.9860   -3.7300 C.3   306  STU306      0.0566
      8  N2       -18.2290   35.7970   -1.9440 N.ar  306  STU306     -0.3054
      9  C18      -18.9440   36.7940   -1.2360 C.ar  306  STU306      0.0774
     10  C19      -19.8090   37.8480   -1.7900 C.ar  306  STU306      0.0783
     11  C6       -20.5160   38.7810   -0.9270 C.ar  306  STU306      0.0293
     12  C7       -20.3280   38.6580    0.5320 C.ar  306  STU306      0.0822
     13  C10      -19.4710   37.6630    1.1090 C.ar  306  STU306      0.0154
     14  C11      -18.7700   36.7070    0.2050 C.ar  306  STU306      0.0173
     15  C12      -17.8100   35.6060    0.3860 C.ar  306  STU306      0.0171
     16  C17      -17.4740   35.0930   -0.9550 C.ar  306  STU306      0.0617
     17  C16      -16.4820   34.0080   -1.1110 C.ar  306  STU306      0.0172
     18  C15      -15.8490   33.4570    0.0910 C.ar  306  STU306      0.0015
     19  C14      -16.2100   33.9720    1.4150 C.ar  306  STU306      0.0001
     20  C13      -17.1900   35.0480    1.5810 C.ar  306  STU306      0.0015
     21  C9       -19.4500   37.8590    2.6070 C.3   306  STU306      0.1650
     22  N1       -20.2620   39.0860    2.7680 N.2   306  STU306     -0.1976
     23  C8       -20.8350   39.4820    1.6050 C.1   306  STU306      0.1501
     24  O5       -21.6510   40.3890    1.4550 O.2   306  STU306     -0.2222
     25  C5       -21.2300   39.7230   -1.8260 C.ar  306  STU306      0.0180
     26  C20      -20.9280   39.2780   -3.1940 C.ar  306  STU306      0.0618
     27  C1       -21.5190   39.9870   -4.3630 C.ar  306  STU306      0.0172
     28  C2       -22.4160   41.1410   -4.1280 C.ar  306  STU306      0.0015
     29  C3       -22.7190   41.5830   -2.7470 C.ar  306  STU306      0.0001
     30  C4       -22.1230   40.8720   -1.5800 C.ar  306  STU306      0.0015
     31  N3       -20.0550   38.1300   -3.1300 N.ar  306  STU306     -0.3039
     32  O6       -15.9350   36.1960   -3.2830 O.3   306  STU306     -0.3478
     33  C27      -14.6700   35.5240   -3.4470 C.3   306  STU306      0.1743
     34  N4       -15.8810   37.6390   -5.7070 N.3   306  STU306     -0.2152
     35  C28      -15.3380   36.6840   -6.6890 C.3   306  STU306      0.1075
@<TRIPOS>BOND
     1    35    34    1
     2    34     4    1
     3     4     3    1
     4     4     5    1
     5     3     2    1
     6    27    28   ar
     7    27    26   ar
     8     2     1    1
     9     2    31    1
    10     5     6    1
    11     5    32    1
    12    28    29   ar
    13     1     6    1
    14     7     6    1
    15     6     8    1
    16    33    32    1
    17    26    31   ar
    18    26    25   ar
    19    31    10   ar
    20    29    30   ar
    21     8     9   ar
    22     8    16   ar
    23    25    30   ar
    24    25    11   ar
    25    10     9   ar
    26    10    11   ar
    27     9    14   ar
    28    17    16   ar
    29    17    18   ar
    30    16    15   ar
    31    11    12   ar
    32    18    19   ar
    33    14    15   ar
    34    14    13   ar
    35    15    20   ar
    36    12    13   ar
    37    12    23    1
    38    13    21    1
    39    19    20   ar
    40    24    23    2
    41    23    22    2
    42    21    22    1
