@<TRIPOS>MOLECULE
1yhu_HEM_A_1.pdb
 43 50 0 0 0
SMALL
GASTEIGER

@<TRIPOS>ATOM
      1  CHA       76.6230  154.0000  -12.1630 C.2   160  HEM160      0.0000
      2  CHB       77.2000  155.4470   -7.5560 C.2   160  HEM160      0.0000
      3  CHC       75.7280  159.8710   -8.8770 C.2   160  HEM160      0.0000
      4  CHD       75.5480  158.4480  -13.5250 C.2   160  HEM160      0.0000
      5  C1A       76.8780  154.0400  -10.7810 C.2   160  HEM160      0.0000
      6  C2A       77.2080  152.8690  -10.0230 C.2   160  HEM160      0.0000
      7  C3A       77.3620  153.2600   -8.7400 C.2   160  HEM160      0.0000
      8  C4A       77.1260  154.6760   -8.6980 C.2   160  HEM160      0.0000
      9  CMA       77.6580  152.3350   -7.5710 C.3   160  HEM160      0.0000
     10  CAA       77.3000  151.4690  -10.6280 C.3   160  HEM160      0.0000
     11  CBA       78.6710  150.8110  -10.5180 C.3   160  HEM160      0.0000
     12  CGA       78.7950  149.5990  -11.4220 C.2   160  HEM160      0.0000
     13  O1A       78.8530  149.7910  -12.6640 O.co2 160  HEM160      0.0000
     14  O2A       78.8210  148.4610  -10.8890 O.co2 160  HEM160      0.0000
     15  C1B       76.9330  156.8010   -7.5240 C.ar  160  HEM160      0.0000
     16  C2B       76.8930  157.5860   -6.3110 C.ar  160  HEM160      0.0000
     17  C3B       76.4520  158.8150   -6.6770 C.ar  160  HEM160      0.0000
     18  C4B       76.2330  158.7920   -8.1140 C.ar  160  HEM160      0.0000
     19  CMB       77.2990  157.1300   -4.9050 C.3   160  HEM160      0.0000
     20  CAB       76.1960  159.8940   -5.8370 C.3   160  HEM160      0.0000
     21  CBB       77.1380  160.4340   -4.8800 C.3   160  HEM160      0.0000
     22  C1C       75.5490  159.8670  -10.2660 C.2   160  HEM160      0.0000
     23  C2C       75.0580  161.0100  -11.0660 C.2   160  HEM160      0.0000
     24  C3C       74.9770  160.5820  -12.3940 C.2   160  HEM160      0.0000
     25  C4C       75.4600  159.2020  -12.3860 C.2   160  HEM160      0.0000
     26  CMC       74.6810  162.3940  -10.5270 C.3   160  HEM160      0.0000
     27  CAC       74.5110  161.2420  -13.5440 C.3   160  HEM160      0.0000
     28  CBC       73.5570  162.3150  -13.5700 C.3   160  HEM160      0.0000
     29  C1D       75.9050  157.1400  -13.5490 C.ar  160  HEM160      0.0000
     30  C2D       75.7970  156.3250  -14.7360 C.ar  160  HEM160      0.0000
     31  C3D       76.0900  155.0610  -14.3620 C.ar  160  HEM160      0.0000
     32  C4D       76.3410  155.0920  -12.9320 C.ar  160  HEM160      0.0000
     33  CMD       75.4100  156.7510  -16.1450 C.3   160  HEM160      0.0000
     34  CAD       76.1840  153.9170  -15.3560 C.3   160  HEM160      0.0000
     35  CBD       75.1730  152.8070  -15.1430 C.3   160  HEM160      0.0000
     36  CGD       75.2240  151.7630  -16.2440 C.2   160  HEM160      0.0000
     37  O1D       74.9510  152.1300  -17.4150 O.co2 160  HEM160      0.0000
     38  O2D       75.5420  150.5820  -15.9370 O.co2 160  HEM160      0.0000
     39  NA        76.8470  155.1470   -9.9590 N.2   160  HEM160      0.0000
     40  NB        76.5580  157.5430   -8.6220 N.ar  160  HEM160      0.0000
     41  NC        75.7990  158.7650  -11.0970 N.2   160  HEM160      0.0000
     42  ND        76.2380  156.3780  -12.4380 N.ar  160  HEM160      0.0000
     43 FE         76.4880  156.9650  -10.5290 Fe    160  HEM160      0.0000
@<TRIPOS>BOND
     1    37    36   ar
     2    36    38   ar
     3    36    35    1
     4    33    30    1
     5    34    35    1
     6    34    31    1
     7    30    31   ar
     8    30    29   ar
     9    31    32   ar
    10    28    27    1
    11    29     4    2
    12    29    42   ar
    13    27    24    1
    14     4    25    1
    15    32    42   ar
    16    32     1    2
    17    13    12   ar
    18    42    43    1
    19    24    25    1
    20    24    23    2
    21    25    41    2
    22     1     5    1
    23    12    14   ar
    24    12    11    1
    25    41    43    1
    26    41    22    1
    27    23    26    1
    28    23    22    1
    29     5     6    1
    30     5    39    2
    31    10    11    1
    32    10     6    1
    33    43    39    1
    34    43    40    1
    35    22     3    2
    36     6     7    2
    37    39     8    1
    38     3    18    1
    39     7     8    1
    40     7     9    1
    41     8     2    2
    42    40    18   ar
    43    40    15   ar
    44    18    17   ar
    45     2    15    1
    46    15    16   ar
    47    17    16   ar
    48    17    20    1
    49    16    19    1
    50    20    21    1
