@<TRIPOS>MOLECULE
1yhy_1MM_A_1.pdb
 26 27 0 0 0
SMALL
GASTEIGER

@<TRIPOS>ATOM
      1  C4        50.6230   58.2100   48.3440 C.ar  695  1MM695      0.0014
      2  C5        51.3220   59.1490   47.5070 C.ar  695  1MM695      0.0003
      3  C6        51.9820   58.7060   46.2970 C.ar  695  1MM695      0.0078
      4  C1        51.9580   57.2930   45.8960 C.ar  695  1MM695      0.0945
      5  C2        51.2490   56.3370   46.7560 C.ar  695  1MM695      0.1334
      6  C3        50.5600   56.7690   48.0050 C.ar  695  1MM695      0.0205
      7  S7        50.9700   54.5410   46.6690 S.O2  695  1MM695      0.0969
      8  N8        52.4110   53.8530   46.1120 N.am  695  1MM695     -0.0392
      9  C9        53.6030   54.0430   46.7160 C.2   695  1MM695      0.3753
     10  N10       54.5210   53.3710   46.0650 N.am  695  1MM695     -0.0679
     11  C2'       55.8250   53.3030   46.2950 C.1   695  1MM695      0.2503
     12  N1'       56.6810   52.4710   45.4890 N.2   695  1MM695     -0.2628
     13  C6'       58.1120   52.3820   45.7370 C.1   695  1MM695      0.1423
     14  N5'       58.6610   53.1520   46.8110 N.2   695  1MM695     -0.2473
     15  C4'       57.7870   53.9930   47.6180 C.1   695  1MM695      0.3308
     16  N3'       56.4020   54.0590   47.3590 N.2   695  1MM695     -0.2273
     17  O7A       50.8300   53.9420   47.9840 O.2   695  1MM695     -0.1482
     18  O7B       50.0200   54.1210   45.6810 O.2   695  1MM695     -0.1482
     19  O9        53.7050   54.7840   47.7460 O.2   695  1MM695     -0.2463
     20  C11       52.6130   56.6880   44.6330 C.2   695  1MM695      0.3426
     21  O12       54.0310   56.8640   44.7850 O.3   695  1MM695     -0.4413
     22  C13       54.8800   56.3760   43.7480 C.3   695  1MM695      0.2560
     23  O11       51.9380   56.1520   43.7110 O.2   695  1MM695     -0.2448
     24  O4'       58.3280   54.7260   48.6420 O.2   695  1MM695     -0.3945
     25  C5'       59.6120   54.9260   49.2010 C.3   695  1MM695      0.2709
     26  C7'       59.0360   51.5140   44.9050 C.3   695  1MM695      0.1449
@<TRIPOS>BOND
     1    23    20    2
     2    22    21    1
     3    20    21    1
     4    20     4    1
     5    26    13    1
     6    12    13    2
     7    12    11    2
     8    18     7    2
     9    13    14    2
    10     4     3   ar
    11     4     5   ar
    12    10    11    1
    13    10     9   am
    14     8     7    1
    15     8     9   am
    16    11    16    2
    17     3     2   ar
    18     7     5    1
    19     7    17    2
    20     9    19    2
    21     5     6   ar
    22    14    15    2
    23    16    15    2
    24     2     1   ar
    25    15    24    1
    26     6     1   ar
    27    24    25    1
