@<TRIPOS>MOLECULE
1yhy_P22_A_1.pdb
 11 10 0 0 0
SMALL
GASTEIGER

@<TRIPOS>ATOM
      1  C6        65.2780   52.2450   43.1740 C.3   702  P22702      0.0351
      2  C7        66.5050   52.9910   42.5780 C.3   702  P22702      0.1492
      3  O7        67.7790   52.6440   42.0110 O.3   702  P22702     -0.3138
      4  PA        69.2200   52.9600   42.7050 P.3   702  P22702      0.2230
      5  O1A       70.1880   51.9890   42.2620 O.2   702  P22702     -0.5169
      6  O2A       69.6850   54.2510   42.3170 O.3   702  P22702     -0.4370
      7  O3A       69.2190   52.8660   44.2840 O.3   702  P22702     -0.2261
      8  PB        68.8490   51.7900   45.3840 P.3   702  P22702      0.5373
      9  O1B       67.4190   51.9260   45.6470 O.3   702  P22702     -0.1143
     10  O2B       69.7360   52.1610   46.4600 O.3   702  P22702     -0.1143
     11  O3B       69.2660   50.5380   44.7310 O.2   702  P22702     -0.2221
@<TRIPOS>BOND
     1     3     2    1
     2     3     4    1
     3     5     4    2
     4     6     4    1
     5     2     1    1
     6     4     7    1
     7     7     8    1
     8    11     8    2
     9     8     9    1
    10     8    10    1
