@<TRIPOS>MOLECULE
1yhz_1CS_A_1.pdb
 23 24 0 0 0
SMALL
GASTEIGER

@<TRIPOS>ATOM
      1  C5'       59.9210   54.8080   49.0820 C.3   695  1CS695      0.2709
      2  O4'       58.5360   54.7980   48.7970 O.2   695  1CS695     -0.3945
      3  C4'       58.0030   53.9590   47.7610 C.1   695  1CS695      0.3308
      4  N5'       58.8880   53.1360   47.0150 N.2   695  1CS695     -0.2473
      5  C6'       58.3240   52.3040   45.9850 C.1   695  1CS695      0.1423
      6  C7'       59.2230   51.4810   45.2410 C.3   695  1CS695      0.1449
      7  N1'       56.9210   52.2950   45.7060 N.2   695  1CS695     -0.2628
      8  C2'       56.0710   53.1540   46.4960 C.1   695  1CS695      0.2503
      9  N10       54.7370   53.1820   46.2690 N.am  695  1CS695     -0.0679
     10  C9        53.8490   53.9470   46.9480 C.2   695  1CS695      0.3753
     11  O9        54.0580   54.7500   47.8840 O.2   695  1CS695     -0.2463
     12  N8        52.6060   53.7370   46.4270 N.am  695  1CS695     -0.0392
     13  S7        51.2650   54.5430   47.0000 S.O2  695  1CS695      0.0975
     14  O7A       50.5930   54.1750   48.2140 O.2   695  1CS695     -0.1482
     15  O7B       50.6240   54.2480   45.7240 O.2   695  1CS695     -0.1482
     16  C2        51.5900   56.2510   46.6830 C.ar  695  1CS695      0.1377
     17  C3        51.1030   57.0710   47.7870 C.ar  695  1CS695      0.0211
     18  C4        51.2750   58.5530   47.7530 C.ar  695  1CS695      0.0014
     19  C5        51.9460   59.1920   46.5790 C.ar  695  1CS695      0.0009
     20  C6        52.4200   58.3750   45.5090 C.ar  695  1CS695      0.0128
     21  C1        52.2600   56.9250   45.5280 C.ar  695  1CS695      0.0766
     22  N3'       56.6600   53.9580   47.5030 N.2   695  1CS695     -0.2273
     23 CL11       52.8620   56.0540   44.1970 Cl    695  1CS695     -0.0808
@<TRIPOS>BOND
     1    23    21    1
     2     6     5    1
     3    20    21   ar
     4    20    19   ar
     5    21    16   ar
     6     7     5    2
     7     7     8    2
     8    15    13    2
     9     5     4    2
    10     9     8    1
    11     9    10   am
    12    12    10   am
    13    12    13    1
    14     8    22    2
    15    19    18   ar
    16    16    13    1
    17    16    17   ar
    18    10    11    2
    19    13    14    2
    20     4     3    2
    21    22     3    2
    22    18    17   ar
    23     3     2    1
    24     2     1    1
