@<TRIPOS>MOLECULE
1yhz_P22_A_1.pdb
 11 10 0 0 0
SMALL
GASTEIGER

@<TRIPOS>ATOM
      1  C6        65.2740   53.1390   42.7550 C.3   702  P22702      0.0351
      2  C7        66.8060   53.4190   42.7270 C.3   702  P22702      0.1492
      3  O7        67.9870   52.8020   42.1800 O.3   702  P22702     -0.3138
      4  PA        69.4850   52.9890   42.7860 P.3   702  P22702      0.2230
      5  O1A       70.3200   51.9060   42.3420 O.3   702  P22702     -0.4370
      6  O2A       70.0670   54.2070   42.3260 O.2   702  P22702     -0.5169
      7  O3A       69.5120   52.9480   44.3670 O.3   702  P22702     -0.2261
      8  PB        69.0500   51.9440   45.5040 P.3   702  P22702      0.5373
      9  O1B       67.6140   52.1330   45.7080 O.3   702  P22702     -0.1143
     10  O2B       69.9140   52.3380   46.5930 O.3   702  P22702     -0.1143
     11  O3B       69.4390   50.6440   44.9300 O.2   702  P22702     -0.2221
@<TRIPOS>BOND
     1     3     2    1
     2     3     4    1
     3     6     4    2
     4     5     4    1
     5     2     1    1
     6     4     7    1
     7     7     8    1
     8    11     8    2
     9     8     9    1
    10     8    10    1
