@<TRIPOS>MOLECULE
1yi0_1SM_A_1.pdb
 25 26 0 0 0
SMALL
GASTEIGER

@<TRIPOS>ATOM
      1  C4        50.7050   58.5120   48.4890 C.ar  695  1SM695      0.0014
      2  C5        51.3660   59.4980   47.5760 C.ar  695  1SM695      0.0003
      3  C6        52.0510   59.0120   46.3390 C.ar  695  1SM695      0.0078
      4  C1        52.0940   57.5330   45.9810 C.ar  695  1SM695      0.0945
      5  C2        51.4190   56.5680   46.9250 C.ar  695  1SM695      0.1334
      6  C3        50.7250   57.0630   48.1800 C.ar  695  1SM695      0.0205
      7  S7        51.2430   54.7620   46.8840 S.O2  695  1SM695      0.0969
      8  N8        52.7070   54.0540   46.2780 N.am  695  1SM695     -0.0392
      9  C9        53.9120   54.2370   46.8550 C.2   695  1SM695      0.3753
     10  N10       54.9800   53.6270   46.3400 N.am  695  1SM695     -0.0691
     11  C2'       56.2860   53.4850   46.4940 C.1   695  1SM695      0.2273
     12  N1'       56.8520   54.2170   47.5300 N.2   695  1SM695     -0.3351
     13  C6'       58.2130   54.1490   47.7960 C.2   695  1SM695      0.1074
     14  C5'       59.1500   53.2810   46.9870 C.3   695  1SM695      0.1107
     15  C4'       58.4500   52.5300   45.8990 C.2   695  1SM695      0.1074
     16  N3'       57.0410   52.6440   45.6700 N.2   695  1SM695     -0.3351
     17  O7A       51.0810   54.2260   48.3750 O.2   695  1SM695     -0.1482
     18  O7B       50.2930   54.2840   45.8320 O.2   695  1SM695     -0.1482
     19  O9        54.0140   54.9620   47.8590 O.2   695  1SM695     -0.2463
     20  C11       52.7340   56.8780   44.7920 C.2   695  1SM695      0.3426
     21  O12       54.1480   56.6690   44.8260 O.3   695  1SM695     -0.4413
     22  C13       54.9070   57.3370   43.7980 C.3   695  1SM695      0.2560
     23  O11       52.0200   56.5150   43.8460 O.2   695  1SM695     -0.2448
     24  C8'       59.1860   51.6880   45.0760 C.3   695  1SM695      0.0630
     25  C7'       58.7450   54.8870   48.8220 C.3   695  1SM695      0.0630
@<TRIPOS>BOND
     1    22    21    1
     2    23    20    2
     3    20    21    1
     4    20     4    1
     5    24    15    1
     6    16    15    2
     7    16    11    2
     8    18     7    2
     9    15    14    1
    10     4     3   ar
    11     4     5   ar
    12     8     9   am
    13     8     7    1
    14     3     2   ar
    15    10    11    1
    16    10     9   am
    17    11    12    2
    18     9    19    2
    19     7     5    1
    20     7    17    2
    21     5     6   ar
    22    14    13    1
    23    12    13    2
    24     2     1   ar
    25    13    25    1
    26     6     1   ar
