@<TRIPOS>MOLECULE
1yi0_P22_A_1.pdb
 11 10 0 0 0
SMALL
GASTEIGER

@<TRIPOS>ATOM
      1  C6        65.4870   52.9450   42.3270 C.3   702  P22702      0.0351
      2  C7        66.8920   53.3490   42.7260 C.3   702  P22702      0.1492
      3  O7        67.8810   52.5000   42.3640 O.3   702  P22702     -0.3138
      4  PA        69.4190   52.8710   42.7770 P.3   702  P22702      0.2230
      5  O1A       69.8630   54.1510   42.1580 O.2   702  P22702     -0.5169
      6  O2A       70.3200   51.7930   42.2660 O.3   702  P22702     -0.4370
      7  O3A       69.5920   53.0200   44.3760 O.3   702  P22702     -0.2261
      8  PB        68.9990   51.8670   45.3300 P.3   702  P22702      0.5373
      9  O1B       67.5390   52.0770   45.5700 O.3   702  P22702     -0.1143
     10  O2B       69.2550   50.5160   44.7530 O.2   702  P22702     -0.2221
     11  O3B       69.7180   51.9750   46.6300 O.3   702  P22702     -0.1143
@<TRIPOS>BOND
     1     5     4    2
     2     6     4    1
     3     1     2    1
     4     3     2    1
     5     3     4    1
     6     4     7    1
     7     7     8    1
     8    10     8    2
     9     8     9    1
    10     8    11    1
