@<TRIPOS>MOLECULE
1yi1_1TB_A_1.pdb
 27 28 0 0 0
SMALL
GASTEIGER

@<TRIPOS>ATOM
      1  C4        50.6840   58.8290   48.7070 C.ar  695  1TB695      0.0014
      2  C5        51.4800   59.7650   47.7450 C.ar  695  1TB695      0.0003
      3  C6        52.2300   59.1800   46.5350 C.ar  695  1TB695      0.0078
      4  C1        52.2060   57.6520   46.2530 C.ar  695  1TB695      0.0945
      5  C2        51.3930   56.7410   47.2440 C.ar  695  1TB695      0.1334
      6  C3        50.6330   57.3360   48.4690 C.ar  695  1TB695      0.0205
      7  C11       52.9500   57.0980   45.0560 C.2   695  1TB695      0.3426
      8  O12       54.3630   57.1220   45.0140 O.3   695  1TB695     -0.4413
      9  C13       55.2850   56.6950   44.0890 C.3   695  1TB695      0.2560
     10  O11       52.2530   56.5520   43.9900 O.2   695  1TB695     -0.2448
     11  S7        51.3070   54.9740   47.0180 S.O2  695  1TB695      0.0968
     12  N8        52.5070   54.3220   46.4910 N.am  695  1TB695     -0.0405
     13  C9        53.8930   54.3900   46.9820 C.2   695  1TB695      0.3577
     14  O7A       50.2160   54.5990   46.1480 O.2   695  1TB695     -0.1482
     15  O7B       51.0420   54.3570   48.2990 O.2   695  1TB695     -0.1482
     16  O9        54.1840   55.1540   48.0640 O.2   695  1TB695     -0.2480
     17  N10       54.9070   53.6260   46.2510 N.am  695  1TB695     -0.1622
     18  C2'       56.3450   53.6080   46.6010 C.1   695  1TB695      0.2322
     19  N1'       57.2430   52.8410   45.8360 N.2   695  1TB695     -0.2640
     20  C6'       58.6060   52.7880   46.1220 C.1   695  1TB695      0.1422
     21  N5'       59.0620   53.5300   47.2040 N.2   695  1TB695     -0.2473
     22  C4'       58.2040   54.2950   47.9760 C.1   695  1TB695      0.3308
     23  N3'       56.8710   54.3250   47.6700 N.2   695  1TB695     -0.2287
     24  C10       54.4170   52.8380   45.0900 C.3   695  1TB695      0.1357
     25  O4'       58.5560   54.9920   48.9770 O.2   695  1TB695     -0.3945
     26  C5'       59.5780   55.3740   49.7430 C.3   695  1TB695      0.2709
     27  C7'       59.5330   51.8890   45.1950 C.3   695  1TB695      0.1449
@<TRIPOS>BOND
     1    10     7    2
     2     9     8    1
     3     8     7    1
     4     7     4    1
     5    24    17    1
     6    27    20    1
     7    19    20    2
     8    19    18    2
     9    20    21    2
    10    14    11    2
    11    17    18    1
    12    17    13   am
    13     4     3   ar
    14     4     5   ar
    15    12    13   am
    16    12    11    1
    17     3     2   ar
    18    18    23    2
    19    13    16    2
    20    11     5    1
    21    11    15    2
    22    21    22    2
    23     5     6   ar
    24    23    22    2
    25     2     1   ar
    26    22    25    1
    27     6     1   ar
    28    25    26    1
