@<TRIPOS>MOLECULE
1yi1_P22_A_1.pdb
 11 10 0 0 0
SMALL
GASTEIGER

@<TRIPOS>ATOM
      1  C6        65.5940   53.2740   42.7940 C.3   700  P22700      0.0351
      2  C7        67.0370   53.6380   43.0890 C.3   700  P22700      0.1492
      3  O7        67.9940   52.7700   42.6710 O.3   700  P22700     -0.3138
      4  PA        69.5570   53.1340   42.9870 P.3   700  P22700      0.2230
      5  O1A       69.9370   54.4150   42.3290 O.2   700  P22700     -0.5169
      6  O2A       70.4440   52.0620   42.4440 O.3   700  P22700     -0.4370
      7  O3A       69.8120   53.2610   44.5720 O.3   700  P22700     -0.2261
      8  PB        69.2640   52.0710   45.5050 P.3   700  P22700      0.5373
      9  O1B       67.7990   52.2250   45.7560 O.3   700  P22700     -0.1143
     10  O2B       69.5760   50.7410   44.9140 O.2   700  P22700     -0.2221
     11  O3B       69.9780   52.1780   46.8050 O.3   700  P22700     -0.1143
@<TRIPOS>BOND
     1     5     4    2
     2     6     4    1
     3     3     4    1
     4     3     2    1
     5     1     2    1
     6     4     7    1
     7     7     8    1
     8    10     8    2
     9     8     9    1
    10     8    11    1
