@<TRIPOS>MOLECULE
1yi3_LY2_A_1.pdb
 23 26 0 0 0
SMALL
GASTEIGER

@<TRIPOS>ATOM
      1  N14      -18.4710   34.6380   -2.2930 N.pl3 306  LY2306     -0.2742
      2  C15      -18.6950   35.6450   -3.3450 C.3   306  LY2306      0.1257
      3  C19      -17.4860   33.6420   -2.7550 C.3   306  LY2306      0.1257
      4  C11      -18.3620   35.2400   -0.9500 C.ar  306  LY2306      0.2024
      5  C16      -19.2090   34.9420   -4.6080 C.3   306  LY2306      0.1637
      6  O17      -18.2620   33.9630   -5.0290 O.3   306  LY2306     -0.3501
      7  C18      -18.0270   32.9740   -4.0290 C.3   306  LY2306      0.1637
      8  C1       -19.5450   38.2140    2.9450 C.ar  306  LY2306      0.0003
      9  C2       -18.7110   37.0930    2.8240 C.ar  306  LY2306      0.0062
     10  C6       -20.2000   38.7310    1.8140 C.ar  306  LY2306      0.0030
     11  C3       -18.5580   36.4960    1.5620 C.ar  306  LY2306      0.0736
     12  C4       -19.2240   37.0140    0.4420 C.ar  306  LY2306      0.1498
     13  C9       -17.6820   35.3350    1.4010 C.ar  306  LY2306      0.2030
     14  C5       -20.0420   38.1380    0.5440 C.ar  306  LY2306      0.0347
     15  O12      -19.0870   36.3760   -0.7780 O.2   306  LY2306     -0.4398
     16  C20      -20.7120   38.7420   -0.6560 C.ar  306  LY2306      0.0029
     17  C25      -22.0450   39.2220   -0.5840 C.ar  306  LY2306      0.0001
     18  C24      -22.6590   39.7980   -1.7190 C.ar  306  LY2306      0.0000
     19  C21      -20.0040   38.8470   -1.8800 C.ar  306  LY2306      0.0001
     20  C22      -20.6130   39.4210   -3.0170 C.ar  306  LY2306      0.0000
     21  C23      -21.9410   39.8960   -2.9320 C.ar  306  LY2306      0.0000
     22  C10      -17.6430   34.7130    0.0630 C.ar  306  LY2306      0.0955
     23  O13      -16.9870   34.8340    2.2770 O.2   306  LY2306     -0.2863
@<TRIPOS>BOND
     1     6     5    1
     2     6     7    1
     3     5     2    1
     4     7     3    1
     5     2     1    1
     6    20    21   ar
     7    20    19   ar
     8    21    18   ar
     9     3     1    1
    10     1     4    1
    11    19    16   ar
    12    18    17   ar
    13     4    15   ar
    14     4    22   ar
    15    15    12   ar
    16    16    17   ar
    17    16    14    1
    18    22    13   ar
    19    12    14   ar
    20    12    11   ar
    21    14    10   ar
    22    13    11   ar
    23    13    23    2
    24    11     9   ar
    25    10     8   ar
    26     9     8   ar
