@<TRIPOS>MOLECULE
1yi4_ADN_A_1.pdb
 19 21 0 0 0
SMALL
GASTEIGER

@<TRIPOS>ATOM
      1  O5'      -16.3390   36.2190   -4.8660 O.3   306  ADN306     -0.2176
      2  C5'      -17.6190   35.6600   -4.7220 C.3   306  ADN306      0.2143
      3  C4'      -18.7110   36.7340   -4.7210 C.3   306  ADN306      0.1851
      4  O4'      -19.7030   36.4240   -3.7590 O.3   306  ADN306     -0.3134
      5  C3'      -18.2230   38.1280   -4.3440 C.3   306  ADN306      0.2186
      6  O3'      -17.7460   38.8290   -5.5060 O.3   306  ADN306     -0.2174
      7  C2'      -19.4830   38.7660   -3.7960 C.3   306  ADN306      0.2570
      8  O2'      -20.2350   39.2390   -4.8800 O.3   306  ADN306     -0.2130
      9  C1'      -20.2120   37.5950   -3.1290 C.3   306  ADN306      0.3186
     10  N9       -19.9130   37.5470   -1.6820 N.pl3 306  ADN306     -0.1439
     11  C8       -19.0640   36.7560   -0.9900 C.3   306  ADN306      0.3377
     12  N7       -19.0390   37.0030    0.3370 N.2   306  ADN306     -0.2095
     13  C5       -19.9490   38.0360    0.5200 C.2   306  ADN306      0.2526
     14  C6       -20.4010   38.7410    1.5950 C.2   306  ADN306      0.4393
     15  N6       -19.9370   38.4870    2.8300 N.pl3 306  ADN306      0.2180
     16  N1       -21.3200   39.7110    1.4790 N.2   306  ADN306      0.0021
     17  C2       -21.7940   39.9810    0.2510 C.3   306  ADN306      0.5254
     18  N3       -21.4180   39.3530   -0.8670 N.2   306  ADN306     -0.0055
     19  C4       -20.4940   38.3790   -0.7320 C.2   306  ADN306      0.3518
@<TRIPOS>BOND
     1     6     5    1
     2     8     7    1
     3     1     2    1
     4     2     3    1
     5     3     5    1
     6     3     4    1
     7     5     7    1
     8     7     9    1
     9     4     9    1
    10     9    10    1
    11    10    11    1
    12    10    19    1
    13    11    12    1
    14    18    19    2
    15    18    17    1
    16    19    13    1
    17    17    16    1
    18    12    13    2
    19    13    14    1
    20    16    14    2
    21    14    15    1
