@<TRIPOS>MOLECULE
1yi8_TRP_C_1.pdb
 15 16 0 0 0
SMALL
GASTEIGER

@<TRIPOS>ATOM
      1  N         49.5630   15.0730   20.1820 N.3   3000  TRP3000    -0.1205
      2  CA        50.0460   13.6240   20.2920 C.3   3000  TRP3000     0.1984
      3  C         49.6270   12.8230   19.0680 C.2   3000  TRP3000     0.3822
      4  O         49.4100   13.4280   17.9830 O.co2 3000  TRP3000    -0.2440
      5  CB        49.4980   13.0170   21.5820 C.3   3000  TRP3000     0.0549
      6  CG        49.8510   11.5570   21.7520 C.2   3000  TRP3000    -0.0138
      7  CD1       51.0880   11.0220   21.8270 C.2   3000  TRP3000     0.0907
      8  CD2       48.9270   10.4550   21.8640 C.3   3000  TRP3000     0.0819
      9  NE1       51.0070    9.6470   21.9550 N.2   3000  TRP3000    -0.2482
     10  CE2       49.6890    9.2810   22.0070 C.2   3000  TRP3000     0.0665
     11  CE3       47.5210   10.3620   21.8810 C.2   3000  TRP3000    -0.0164
     12  CZ2       49.1130    8.0210   22.1170 C.2   3000  TRP3000     0.0153
     13  CZ3       46.9280    9.1040   22.0380 C.2   3000  TRP3000    -0.0038
     14  CH2       47.7390    7.9420   22.1700 C.2   3000  TRP3000     0.0009
     15  OXT       49.4850   11.6320   19.2140 O.co2 3000  TRP3000    -0.2440
@<TRIPOS>BOND
     1     4     3   ar
     2     3    15   ar
     3     3     2    1
     4     1     2    1
     5     2     5    1
     6     5     6    1
     7     6     7    2
     8     6     8    1
     9     7     9    1
    10     8    11    1
    11     8    10    1
    12    11    13    2
    13     9    10    2
    14    10    12    1
    15    13    14    1
    16    12    14    2
