@<TRIPOS>MOLECULE
1yia_HRP_B_1.pdb
 16 17 0 0 0
SMALL
GASTEIGER

@<TRIPOS>ATOM
      1  N         73.3570   -9.5830    8.1420 N.3   1154  HRP1154    -0.1205
      2  CA        72.0580   -9.1460    7.9220 C.3   1154  HRP1154     0.1987
      3  CB        71.2360   -8.9030    9.0750 C.3   1154  HRP1154     0.0586
      4  CG        71.9960   -7.8540    9.9020 C.2   1154  HRP1154     0.0005
      5  CD1       71.4270   -6.8990   10.6800 C.2   1154  HRP1154     0.0946
      6  NE1       72.3840   -6.1600   11.3280 N.2   1154  HRP1154    -0.2442
      7  CE2       73.6040   -6.5950   10.9680 C.2   1154  HRP1154     0.0812
      8  CZ2       74.8560   -6.1750   11.4360 C.2   1154  HRP1154     0.0224
      9  CH2       75.9710   -6.7980   10.9230 C.2   1154  HRP1154     0.0436
     10  CZ3       75.8710   -7.9180   10.0370 C.2   1154  HRP1154     0.1958
     11  CE3       74.6130   -8.3570    9.6070 C.2   1154  HRP1154     0.0433
     12  CD2       73.4260   -7.7440   10.1590 C.2   1154  HRP1154     0.0184
     13  C         71.7130   -9.5070    6.5110 C.2   1154  HRP1154     0.3822
     14  O         72.5490   -9.9280    5.7810 O.co2 1154  HRP1154    -0.2440
     15  OXT       70.5780   -8.9250    6.2090 O.co2 1154  HRP1154    -0.2440
     16  OX        76.9040   -8.4720    9.6150 O.2   1154  HRP1154    -0.2866
@<TRIPOS>BOND
     1    14    13   ar
     2    15    13   ar
     3    13     2    1
     4     2     1    1
     5     2     3    1
     6     3     4    1
     7    11    10    1
     8    11    12    2
     9    16    10    2
    10     4    12    1
    11     4     5    2
    12    10     9    1
    13    12     7    1
    14     5     6    1
    15     9     8    2
    16     7     6    2
    17     7     8    1
