@<TRIPOS>MOLECULE
1yid_ATP_B_1.pdb
 31 33 0 0 0
SMALL
GASTEIGER

@<TRIPOS>ATOM
      1  PG        66.8050  -15.6970    1.5090 P.3   3000  ATP3000     0.5373
      2  O1G       66.2150  -14.7100    2.6450 O.3   3000  ATP3000    -0.1143
      3  O2G       66.3690  -17.2300    1.9140 O.3   3000  ATP3000    -0.1143
      4  O3G       66.5840  -15.3470    0.1130 O.2   3000  ATP3000    -0.2221
      5  PB        69.8560  -14.8130    1.3460 P.3   3000  ATP3000     0.2277
      6  O1B       69.5730  -13.5620    0.5700 O.3   3000  ATP3000    -0.4368
      7  O2B       70.7840  -15.7150    0.5220 O.2   3000  ATP3000    -0.5168
      8  O3B       68.4340  -15.8260    1.8640 O.3   3000  ATP3000    -0.2258
      9  PA        70.2980  -13.4380    3.9020 P.3   3000  ATP3000     0.2189
     10  O1A       70.0180  -12.1560    3.2240 O.2   3000  ATP3000    -0.5170
     11  O2A       69.2190  -13.9360    4.8040 O.3   3000  ATP3000    -0.4371
     12  O3A       70.7480  -14.4820    2.7110 O.3   3000  ATP3000    -0.2700
     13  O5'       71.5980  -13.1150    4.8080 O.3   3000  ATP3000    -0.3112
     14  C5'       72.1110  -14.1630    5.6420 C.3   3000  ATP3000     0.1813
     15  C4'       73.5930  -14.2340    5.8240 C.3   3000  ATP3000     0.1821
     16  O4'       74.2510  -15.1460    4.8760 O.3   3000  ATP3000    -0.3135
     17  C3'       74.4690  -12.9740    5.7400 C.3   3000  ATP3000     0.2184
     18  O3'       75.5890  -13.1340    6.6340 O.3   3000  ATP3000    -0.2174
     19  C2'       74.8460  -12.9530    4.2700 C.3   3000  ATP3000     0.2570
     20  O2'       75.9750  -12.1770    3.9200 O.3   3000  ATP3000    -0.2130
     21  C1'       75.0780  -14.4000    3.9580 C.3   3000  ATP3000     0.3186
     22  N9        74.8860  -14.8310    2.5330 N.pl3 3000  ATP3000    -0.1439
     23  C8        73.7680  -15.2780    1.8910 C.3   3000  ATP3000     0.3377
     24  N7        73.9420  -15.5880    0.6210 N.2   3000  ATP3000    -0.2095
     25  C5        75.2810  -15.3130    0.3840 C.2   3000  ATP3000     0.2526
     26  C6        76.0980  -15.4370   -0.7830 C.2   3000  ATP3000     0.4393
     27  N6        75.6330  -15.8620   -1.9750 N.pl3 3000  ATP3000     0.2180
     28  N1        77.4380  -15.0850   -0.6820 N.2   3000  ATP3000     0.0021
     29  C2        77.9070  -14.6460    0.5070 C.3   3000  ATP3000     0.5254
     30  N3        77.2350  -14.4940    1.6810 N.2   3000  ATP3000    -0.0055
     31  C4        75.9050  -14.8490    1.5540 C.2   3000  ATP3000     0.3518
@<TRIPOS>BOND
     1    27    26    1
     2    26    28    2
     3    26    25    1
     4    28    29    1
     5     4     1    2
     6    25    24    2
     7    25    31    1
     8    29    30    1
     9     7     5    2
    10     6     5    1
    11    24    23    1
    12     5     8    1
    13     5    12    1
    14     1     8    1
    15     1     3    1
    16     1     2    1
    17    31    30    2
    18    31    22    1
    19    23    22    1
    20    22    21    1
    21    12     9    1
    22    10     9    2
    23     9    11    1
    24     9    13    1
    25    20    19    1
    26    21    19    1
    27    21    16    1
    28    19    17    1
    29    13    14    1
    30    16    15    1
    31    14    15    1
    32    17    15    1
    33    17    18    1
