@<TRIPOS>MOLECULE
1yie_HEM_A_1.pdb
 43 50 0 0 0
SMALL
GASTEIGER

@<TRIPOS>ATOM
      1 FE          8.1640   40.9530  -14.0470 Fe    142  HEM142      0.0000
      2  CHA        6.3420   43.4360  -15.4600 C.2   142  HEM142      0.0000
      3  CHB        6.0800   40.9940  -11.3070 C.2   142  HEM142      0.0000
      4  CHC        9.9760   38.4610  -12.6210 C.2   142  HEM142      0.0000
      5  CHD       10.5810   41.3360  -16.4540 C.2   142  HEM142      0.0000
      6  NA         6.5150   41.9890  -13.5060 N.2   142  HEM142      0.0000
      7  C1A        5.9170   43.0180  -14.2120 C.2   142  HEM142      0.0000
      8  C2A        4.8290   43.5540  -13.4350 C.2   142  HEM142      0.0000
      9  C3A        4.7610   42.8740  -12.2970 C.2   142  HEM142      0.0000
     10  C4A        5.8150   41.8870  -12.3160 C.2   142  HEM142      0.0000
     11  CMA        3.7910   43.0370  -11.1110 C.3   142  HEM142      0.0000
     12  CAA        3.9570   44.7340  -13.8980 C.3   142  HEM142      0.0000
     13  CBA        2.9520   44.4790  -15.0200 C.3   142  HEM142      0.0000
     14  CGA        1.7270   45.3760  -14.8760 C.2   142  HEM142      0.0000
     15  O1A        0.8500   44.9480  -14.0750 O.co2 142  HEM142      0.0000
     16  O2A        1.7480   46.4460  -15.5360 O.co2 142  HEM142      0.0000
     17  NB         8.0690   39.9430  -12.3090 N.ar  142  HEM142      0.0000
     18  C1B        7.1200   40.0930  -11.3130 C.ar  142  HEM142      0.0000
     19  C2B        7.3840   39.1450  -10.2460 C.ar  142  HEM142      0.0000
     20  C3B        8.4470   38.4300  -10.6080 C.ar  142  HEM142      0.0000
     21  C4B        8.8870   38.9120  -11.9030 C.ar  142  HEM142      0.0000
     22  CMB        6.4970   39.0710   -8.9770 C.3   142  HEM142      0.0000
     23  CAB        9.1440   37.2750   -9.8590 C.2   142  HEM142      0.0000
     24  CBB        9.2580   37.3270   -8.5310 C.2   142  HEM142      0.0000
     25  NC         9.9280   40.0740  -14.4540 N.2   142  HEM142      0.0000
     26  C1C       10.5340   39.0600  -13.7340 C.2   142  HEM142      0.0000
     27  C2C       11.8250   38.7620  -14.3320 C.2   142  HEM142      0.0000
     28  C3C       11.9800   39.5640  -15.3890 C.2   142  HEM142      0.0000
     29  C4C       10.8010   40.4000  -15.4760 C.2   142  HEM142      0.0000
     30  CMC       12.7840   37.6870  -13.7860 C.3   142  HEM142      0.0000
     31  CAC       13.1380   39.6880  -16.4050 C.2   142  HEM142      0.0000
     32  CBC       14.3880   39.3920  -16.0640 C.2   142  HEM142      0.0000
     33  ND         8.4040   42.1440  -15.6390 N.ar  142  HEM142      0.0000
     34  C1D        9.4670   42.1380  -16.5290 C.ar  142  HEM142      0.0000
     35  C2D        9.2320   43.1200  -17.5640 C.ar  142  HEM142      0.0000
     36  C3D        8.0620   43.6920  -17.3010 C.ar  142  HEM142      0.0000
     37  C4D        7.5330   43.1100  -16.0940 C.ar  142  HEM142      0.0000
     38  CMD       10.2200   43.3720  -18.7210 C.3   142  HEM142      0.0000
     39  CAD        7.3820   44.8460  -18.0790 C.3   142  HEM142      0.0000
     40  CBD        8.2230   46.1260  -18.1560 C.3   142  HEM142      0.0000
     41  CGD        7.4630   47.3780  -18.4780 C.2   142  HEM142      0.0000
     42  O1D        6.6700   47.8070  -17.6010 O.co2 142  HEM142      0.0000
     43  O2D        7.6690   47.8900  -19.6080 O.co2 142  HEM142      0.0000
@<TRIPOS>BOND
     1    43    41   ar
     2    38    35    1
     3    41    40    1
     4    41    42   ar
     5    40    39    1
     6    39    36    1
     7    35    36   ar
     8    35    34   ar
     9    36    37   ar
    10    34     5    2
    11    34    33   ar
    12     5    29    1
    13    31    32    2
    14    31    28    1
    15    37    33   ar
    16    37     2    2
    17    33     1    1
    18    16    14   ar
    19    29    28    1
    20    29    25    2
    21     2     7    1
    22    28    27    2
    23    13    14    1
    24    13    12    1
    25    14    15   ar
    26    25     1    1
    27    25    26    1
    28    27    30    1
    29    27    26    1
    30     7     6    2
    31     7     8    1
    32     1     6    1
    33     1    17    1
    34    12     8    1
    35    26     4    2
    36     6    10    1
    37     8     9    2
    38     4    21    1
    39    10     9    1
    40    10     3    2
    41    17    21   ar
    42    17    18   ar
    43     9    11    1
    44    21    20   ar
    45    18     3    1
    46    18    19   ar
    47    20    19   ar
    48    20    23    1
    49    19    22    1
    50    23    24    2
