@<TRIPOS>MOLECULE
1yih_HEM_A_1.pdb
 43 50 0 0 0
SMALL
GASTEIGER

@<TRIPOS>ATOM
      1 FE          8.1450   41.1970  -14.6540 Fe    142  HEM142      0.0000
      2  CHA        6.4320   43.7740  -16.0420 C.2   142  HEM142      0.0000
      3  CHB        5.9550   41.0920  -12.0670 C.2   142  HEM142      0.0000
      4  CHC        9.9490   38.6250  -13.2150 C.2   142  HEM142      0.0000
      5  CHD       10.6610   41.6080  -17.0060 C.2   142  HEM142      0.0000
      6  NA         6.4870   42.2140  -14.1740 N.2   142  HEM142      0.0000
      7  C1A        5.9710   43.2950  -14.8420 C.2   142  HEM142      0.0000
      8  C2A        4.8860   43.8470  -14.0660 C.2   142  HEM142      0.0000
      9  C3A        4.7490   43.1170  -12.9630 C.2   142  HEM142      0.0000
     10  C4A        5.7530   42.0750  -13.0080 C.2   142  HEM142      0.0000
     11  CMA        3.7450   43.2560  -11.7980 C.3   142  HEM142      0.0000
     12  CAA        4.1040   45.0980  -14.5590 C.3   142  HEM142      0.0000
     13  CBA        2.9650   44.7860  -15.5540 C.3   142  HEM142      0.0000
     14  CGA        1.9930   45.9360  -15.7160 C.2   142  HEM142      0.0000
     15  O1A        1.0170   45.9490  -14.9310 O.co2 142  HEM142      0.0000
     16  O2A        2.2640   46.7830  -16.6040 O.co2 142  HEM142      0.0000
     17  NB         7.9600   40.0630  -13.0020 N.ar  142  HEM142      0.0000
     18  C1B        7.0210   40.2080  -11.9870 C.ar  142  HEM142      0.0000
     19  C2B        7.3160   39.3090  -10.9030 C.ar  142  HEM142      0.0000
     20  C3B        8.4130   38.6170  -11.2220 C.ar  142  HEM142      0.0000
     21  C4B        8.8350   39.0920  -12.5470 C.ar  142  HEM142      0.0000
     22  CMB        6.4740   39.2070   -9.6090 C.3   142  HEM142      0.0000
     23  CAB        9.2310   37.5550  -10.4890 C.2   142  HEM142      0.0000
     24  CBB        8.9610   36.8290   -9.4460 C.2   142  HEM142      0.0000
     25  NC         9.9150   40.2920  -15.0500 N.2   142  HEM142      0.0000
     26  C1C       10.5030   39.2930  -14.2980 C.2   142  HEM142      0.0000
     27  C2C       11.8290   39.0170  -14.8260 C.2   142  HEM142      0.0000
     28  C3C       12.0390   39.8490  -15.8480 C.2   142  HEM142      0.0000
     29  C4C       10.8300   40.6590  -16.0170 C.2   142  HEM142      0.0000
     30  CMC       12.7230   37.9330  -14.2000 C.3   142  HEM142      0.0000
     31  CAC       13.2470   40.0010  -16.7880 C.2   142  HEM142      0.0000
     32  CBC       14.5080   39.9750  -16.3460 C.2   142  HEM142      0.0000
     33  ND         8.4720   42.4280  -16.2130 N.ar  142  HEM142      0.0000
     34  C1D        9.5630   42.4370  -17.0900 C.ar  142  HEM142      0.0000
     35  C2D        9.3650   43.4780  -18.0840 C.ar  142  HEM142      0.0000
     36  C3D        8.2030   44.0620  -17.8150 C.ar  142  HEM142      0.0000
     37  C4D        7.6390   43.4430  -16.6420 C.ar  142  HEM142      0.0000
     38  CMD       10.3540   43.8000  -19.2220 C.3   142  HEM142      0.0000
     39  CAD        7.5270   45.2560  -18.5400 C.3   142  HEM142      0.0000
     40  CBD        7.9410   46.5950  -17.9630 C.3   142  HEM142      0.0000
     41  CGD        7.4860   47.8160  -18.7050 C.2   142  HEM142      0.0000
     42  O1D        7.0090   48.7370  -18.0030 O.co2 142  HEM142      0.0000
     43  O2D        7.6090   47.8260  -19.9520 O.co2 142  HEM142      0.0000
@<TRIPOS>BOND
     1    43    41   ar
     2    38    35    1
     3    41    42   ar
     4    41    40    1
     5    39    40    1
     6    39    36    1
     7    35    36   ar
     8    35    34   ar
     9    36    37   ar
    10    34     5    2
    11    34    33   ar
    12     5    29    1
    13    31    32    2
    14    31    28    1
    15    37    33   ar
    16    37     2    2
    17    16    14   ar
    18    33     1    1
    19     2     7    1
    20    29    28    1
    21    29    25    2
    22    28    27    2
    23    14    13    1
    24    14    15   ar
    25    13    12    1
    26    25     1    1
    27    25    26    1
    28     7     6    2
    29     7     8    1
    30    27    26    1
    31    27    30    1
    32     1     6    1
    33     1    17    1
    34    12     8    1
    35    26     4    2
    36     6    10    1
    37     8     9    2
    38     4    21    1
    39    10     9    1
    40    10     3    2
    41    17    21   ar
    42    17    18   ar
    43     9    11    1
    44    21    20   ar
    45     3    18    1
    46    18    19   ar
    47    20    19   ar
    48    20    23    1
    49    19    22    1
    50    23    24    2
