@<TRIPOS>MOLECULE
1yik_MM1_A_1.pdb
 15 18 0 0 0
SMALL
GASTEIGER

@<TRIPOS>ATOM
      1 CU1         1.8420   24.3310   35.9560 Cu    500  MM1500      0.0000
      2  C1         1.4290   21.8680   34.4780 C.3   500  MM1500      0.0000
      3  C2         2.0820   22.4920   33.2470 C.3   500  MM1500      0.0000
      4  C3         3.3390   23.3010   33.5800 C.3   500  MM1500      0.0000
      5  N4         3.1750   24.0740   34.5130 N.3   500  MM1500      0.0000
      6  C5         3.3690   25.6310   33.7950 C.3   500  MM1500      0.0000
      7  C6         2.0550   26.4380   33.7980 C.3   500  MM1500      0.0000
      8  N7         0.9640   25.5900   34.5890 N.3   500  MM1500      0.0000
      9  C8         0.0150   26.4600   35.0780 C.3   500  MM1500      0.0000
     10  C9        -1.0730   25.8900   36.0110 C.3   500  MM1500      0.0000
     11  C10       -0.4840   25.4830   37.3820 C.3   500  MM1500      0.0000
     12  N11        0.3400   24.5930   37.2180 N.3   500  MM1500      0.0000
     13  C12       -0.4720   23.0740   37.3970 C.3   500  MM1500      0.0000
     14  C13        0.1380   21.9700   36.5120 C.3   500  MM1500      0.0000
     15  N14        0.7390   22.7350   35.2740 N.3   500  MM1500      0.0000
@<TRIPOS>BOND
     1     3     4    1
     2     3     2    1
     3     4     5    1
     4     6     7    1
     5     6     5    1
     6     7     8    1
     7     2    15    1
     8     5     1    1
     9     8     9    1
    10     8     1    1
    11     9    10    1
    12    15     1    1
    13    15    14    1
    14     1    12    1
    15    10    11    1
    16    14    13    1
    17    12    11    1
    18    12    13    1
