@<TRIPOS>MOLECULE
1yil_MM2_A_1.pdb
 15 18 0 0 0
SMALL
GASTEIGER

@<TRIPOS>ATOM
      1 CU1         1.3280   25.6590   34.2820 Cu    500  MM2500      0.0000
      2  C1         2.8330   24.3490   32.0670 C.3   500  MM2500      0.0000
      3  C2         3.7270   25.5780   31.9320 C.3   500  MM2500      0.0000
      4  C3         2.9600   26.8840   32.0230 C.3   500  MM2500      0.0000
      5  N4         2.4480   27.0990   33.4000 N.3   500  MM2500      0.0000
      6  C5         1.7300   28.3990   33.5460 C.3   500  MM2500      0.0000
      7  C6         1.0770   28.3970   34.9130 C.3   500  MM2500      0.0000
      8  N7         0.2590   27.1690   35.0850 N.3   500  MM2500      0.0000
      9  C8        -0.2200   26.9790   36.4780 C.3   500  MM2500      0.0000
     10  C9        -0.9950   25.6810   36.6950 C.3   500  MM2500      0.0000
     11  C10       -0.1580   24.4200   36.5800 C.3   500  MM2500      0.0000
     12  N11        0.2440   24.2040   35.1690 N.3   500  MM2500      0.0000
     13  C12        1.0190   22.9510   35.0330 C.3   500  MM2500      0.0000
     14  C13        1.6090   22.9250   33.6450 C.3   500  MM2500      0.0000
     15  N14        2.4030   24.1560   33.4710 N.3   500  MM2500      0.0000
@<TRIPOS>BOND
     1     3     4    1
     2     3     2    1
     3     4     5    1
     4     2    15    1
     5     5     6    1
     6     5     1    1
     7    15    14    1
     8    15     1    1
     9     6     7    1
    10    14    13    1
    11     1     8    1
    12     1    12    1
    13     7     8    1
    14    13    12    1
    15     8     9    1
    16    12    11    1
    17     9    10    1
    18    11    10    1
