@<TRIPOS>MOLECULE
1yim_CM4_A_1.pdb
 33 37 0 0 0
SMALL
GASTEIGER

@<TRIPOS>ATOM
      1  C1        31.3460   -0.6100   28.4010 C.3   600  CM4600      0.0708
      2  C2        31.5340   -2.0300   27.8620 C.3   600  CM4600      0.1923
      3  O3        30.3010   -2.7370   28.1140 O.3   600  CM4600     -0.4747
      4  C4        29.1000   -2.2340   27.7600 C.ar  600  CM4600      0.1350
      5  C5        28.0750   -3.1540   27.5580 C.ar  600  CM4600      0.0399
      6  C6        26.8040   -2.7160   27.1840 C.ar  600  CM4600      0.0451
      7  C7        26.5410   -1.3560   27.0290 C.ar  600  CM4600      0.1956
      8  O8        25.2990   -0.9880   26.6280 O.3   600  CM4600     -0.2866
      9  C9        27.5700   -0.4280   27.2480 C.ar  600  CM4600      0.0408
     10  C10       28.8790   -0.8580   27.6130 C.ar  600  CM4600      0.0151
     11  C11       30.0470    0.1100   27.8480 C.3   600  CM4600      0.0333
     12  C12       29.5970    1.3180   28.6670 C.3   600  CM4600      0.0053
     13  C13       32.6670    0.1540   28.2350 C.ar  600  CM4600     -0.0181
     14  C14       32.8850    1.0110   27.1460 C.ar  600  CM4600     -0.0009
     15  C15       34.1260    1.6730   27.0850 C.ar  600  CM4600      0.0417
     16  C16       35.1250    1.4780   28.0530 C.ar  600  CM4600      0.1957
     17  O17       36.3070    2.1470   27.9560 O.3   600  CM4600     -0.2866
     18  C18       34.9060    0.6090   29.1230 C.ar  600  CM4600      0.0417
     19  C19       33.6440   -0.0110   29.2310 C.ar  600  CM4600     -0.0009
     20  C20       31.9270   -2.2230   26.4040 C.ar  600  CM4600      0.0177
     21  C21       32.8980   -3.1820   26.1170 C.ar  600  CM4600      0.0023
     22  C22       33.2790   -3.4380   24.7830 C.ar  600  CM4600      0.0367
     23  C23       32.7690   -2.6670   23.7490 C.ar  600  CM4600      0.1386
     24  C24       31.7900   -1.7100   23.9950 C.ar  600  CM4600      0.0367
     25  C25       31.3900   -1.5180   25.3250 C.ar  600  CM4600      0.0023
     26  O26       33.1060   -2.9180   22.4710 O.3   600  CM4600     -0.4740
     27  C27       33.7120   -4.1590   22.1090 C.3   600  CM4600      0.2226
     28  C28       34.0200   -4.1880   20.6120 C.3   600  CM4600      0.1200
     29  N29       32.7970   -4.2870   19.8050 N.3   600  CM4600     -0.2696
     30  C30       33.2080   -4.3320   18.3910 C.3   600  CM4600      0.0722
     31  C31       32.0240   -3.8010   17.5810 C.3   600  CM4600      0.0188
     32  C32       31.0960   -3.1580   18.6210 C.3   600  CM4600      0.0188
     33  C33       31.9200   -3.1100   19.9150 C.3   600  CM4600      0.0722
@<TRIPOS>BOND
     1    31    30    1
     2    31    32    1
     3    30    29    1
     4    32    33    1
     5    29    33    1
     6    29    28    1
     7    28    27    1
     8    27    26    1
     9    26    23    1
    10    23    24   ar
    11    23    22   ar
    12    24    25   ar
    13    22    21   ar
    14    25    20   ar
    15    21    20   ar
    16    20     2    1
    17     8     7    1
    18     7     6   ar
    19     7     9   ar
    20    15    14   ar
    21    15    16   ar
    22    14    13   ar
    23     6     5   ar
    24     9    10   ar
    25     5     4   ar
    26    10     4   ar
    27    10    11    1
    28     4     3    1
    29    11     1    1
    30    11    12    1
    31     2     3    1
    32     2     1    1
    33    17    16    1
    34    16    18   ar
    35    13     1    1
    36    13    19   ar
    37    18    19   ar
