@<TRIPOS>MOLECULE
1yin_CM3_A_1.pdb
 35 39 0 0 0
SMALL
GASTEIGER

@<TRIPOS>ATOM
      1  C1        31.6210   -0.6210   28.6400 C.3   600  CM3600      0.0709
      2  C2        31.8330   -2.0240   28.0610 C.3   600  CM3600      0.1923
      3  O3        30.6400   -2.7870   28.3210 O.3   600  CM3600     -0.4747
      4  C4        29.4410   -2.2870   27.9800 C.ar  600  CM3600      0.1372
      5  C5        28.4330   -3.2210   27.7310 C.ar  600  CM3600      0.0400
      6  C6        27.1510   -2.8180   27.3690 C.ar  600  CM3600      0.0475
      7  C7        26.8740   -1.4530   27.2950 C.ar  600  CM3600      0.2228
      8  O8        25.6620   -0.9880   26.9460 O.3   600  CM3600     -0.2842
      9  C9        27.8990   -0.5180   27.5150 C.ar  600  CM3600      0.1777
     10  F10       27.5490    0.7480   27.2810 F     600  CM3600     -0.2010
     11  C11       29.1880   -0.8950   27.9400 C.ar  600  CM3600      0.0425
     12  C12       30.3160    0.0960   28.1990 C.3   600  CM3600      0.0355
     13  C13       30.0890    1.2720   29.1370 C.3   600  CM3600      0.0053
     14  C14       32.8780    0.1900   28.4110 C.ar  600  CM3600     -0.0181
     15  C15       33.0590    1.0830   27.3400 C.ar  600  CM3600     -0.0009
     16  C16       34.2620    1.7710   27.2220 C.ar  600  CM3600      0.0417
     17  C17       35.2990    1.6110   28.1500 C.ar  600  CM3600      0.1957
     18  O18       36.4490    2.2950   28.0270 O.3   600  CM3600     -0.2866
     19  C19       35.1090    0.7340   29.2160 C.ar  600  CM3600      0.0417
     20  C20       33.9160    0.0370   29.3330 C.ar  600  CM3600     -0.0009
     21  C21       32.1580   -2.1330   26.5970 C.ar  600  CM3600      0.0177
     22  C22       33.1300   -3.0690   26.2250 C.ar  600  CM3600      0.0023
     23  C23       33.4680   -3.2650   24.8800 C.ar  600  CM3600      0.0367
     24  C24       32.9170   -2.4700   23.8620 C.ar  600  CM3600      0.1386
     25  C25       31.9340   -1.5420   24.2310 C.ar  600  CM3600      0.0367
     26  C26       31.5560   -1.4070   25.5560 C.ar  600  CM3600      0.0023
     27  O27       33.2650   -2.6090   22.5640 O.3   600  CM3600     -0.4740
     28  C28       33.8820   -3.8390   22.1460 C.3   600  CM3600      0.2226
     29  C29       34.1240   -3.9240   20.6370 C.3   600  CM3600      0.1200
     30  N30       32.9400   -4.2260   19.8050 N.3   600  CM3600     -0.2696
     31  C31       33.4730   -4.2610   18.4430 C.3   600  CM3600      0.0722
     32  C32       32.3580   -4.7450   17.5420 C.3   600  CM3600      0.0174
     33  C33       31.4390   -3.5320   17.3630 C.3   600  CM3600      0.0029
     34  C34       30.8770   -3.1910   18.7650 C.3   600  CM3600      0.0174
     35  C35       31.9440   -3.1510   19.8850 C.3   600  CM3600      0.0722
@<TRIPOS>BOND
     1    33    32    1
     2    33    34    1
     3    32    31    1
     4    31    30    1
     5    34    35    1
     6    30    35    1
     7    30    29    1
     8    29    28    1
     9    28    27    1
    10    27    24    1
    11    24    25   ar
    12    24    23   ar
    13    25    26   ar
    14    23    22   ar
    15    26    21   ar
    16    22    21   ar
    17    21     2    1
    18     8     7    1
    19    16    15   ar
    20    16    17   ar
    21    10     9    1
    22     7     6   ar
    23     7     9   ar
    24    15    14   ar
    25     6     5   ar
    26     9    11   ar
    27     5     4   ar
    28    11     4   ar
    29    11    12    1
    30     4     3    1
    31    18    17    1
    32     2     3    1
    33     2     1    1
    34    17    19   ar
    35    12     1    1
    36    12    13    1
    37    14     1    1
    38    14    20   ar
    39    19    20   ar
