@<TRIPOS>MOLECULE
1yiq_HEM_A_1.pdb
 43 50 0 0 0
SMALL
GASTEIGER

@<TRIPOS>ATOM
      1 FE          5.1370   18.2250  -17.3380 Fe    901  HEM901      0.0000
      2  CHA        2.7580   19.3990  -19.4260 C.2   901  HEM901      0.0000
      3  CHB        4.6170   15.0820  -18.5070 C.2   901  HEM901      0.0000
      4  CHC        7.5530   17.0060  -15.2430 C.2   901  HEM901      0.0000
      5  CHD        5.6240   21.3230  -16.0750 C.2   901  HEM901      0.0000
      6  NA         3.9130   17.3920  -18.7180 N.ar  901  HEM901      0.0000
      7  C1A        2.9930   18.0530  -19.4810 C.ar  901  HEM901      0.0000
      8  C2A        2.3110   17.0880  -20.3440 C.ar  901  HEM901      0.0000
      9  C3A        2.8330   15.8850  -20.0820 C.ar  901  HEM901      0.0000
     10  C4A        3.8470   16.0550  -19.0600 C.ar  901  HEM901      0.0000
     11  CMA        2.4630   14.5330  -20.7180 C.3   901  HEM901      0.0000
     12  CAA        1.1910   17.4430  -21.3410 C.3   901  HEM901      0.0000
     13  CBA       -0.1570   17.5350  -20.5910 C.3   901  HEM901      0.0000
     14  CGA       -1.3550   18.0210  -21.3960 C.2   901  HEM901      0.0000
     15  O1A       -1.0920   18.7800  -22.3940 O.co2 901  HEM901      0.0000
     16  O2A       -2.4790   17.6730  -21.0350 O.co2 901  HEM901      0.0000
     17  NB         5.9360   16.4160  -16.9430 N.2   901  HEM901      0.0000
     18  C1B        5.5690   15.2250  -17.5480 C.2   901  HEM901      0.0000
     19  C2B        6.3540   14.1340  -17.0110 C.2   901  HEM901      0.0000
     20  C3B        7.1970   14.6760  -16.0980 C.2   901  HEM901      0.0000
     21  C4B        6.9310   16.0870  -16.0550 C.2   901  HEM901      0.0000
     22  CMB        6.2160   12.6580  -17.4360 C.3   901  HEM901      0.0000
     23  CAB        8.2640   13.9920  -15.2350 C.3   901  HEM901      0.0000
     24  CBB        9.4350   13.4060  -16.0550 C.3   901  HEM901      0.0000
     25  NC         6.3410   19.0180  -15.9510 N.ar  901  HEM901      0.0000
     26  C1C        7.2740   18.3490  -15.1840 C.ar  901  HEM901      0.0000
     27  C2C        7.9260   19.2650  -14.2560 C.ar  901  HEM901      0.0000
     28  C3C        7.3780   20.4670  -14.4640 C.ar  901  HEM901      0.0000
     29  C4C        6.3970   20.3280  -15.5300 C.ar  901  HEM901      0.0000
     30  CMC        9.0130   18.8370  -13.2320 C.3   901  HEM901      0.0000
     31  CAC        7.6470   21.7750  -13.7270 C.3   901  HEM901      0.0000
     32  CBC        9.0250   22.4150  -13.9440 C.3   901  HEM901      0.0000
     33  ND         4.3640   19.9990  -17.6910 N.2   901  HEM901      0.0000
     34  C1D        4.6860   21.2070  -17.0720 C.2   901  HEM901      0.0000
     35  C2D        3.8890   22.2920  -17.6300 C.2   901  HEM901      0.0000
     36  C3D        3.0670   21.7370  -18.5980 C.2   901  HEM901      0.0000
     37  C4D        3.3750   20.3210  -18.6070 C.2   901  HEM901      0.0000
     38  CMD        4.0160   23.7620  -17.1560 C.3   901  HEM901      0.0000
     39  CAD        1.9920   22.3890  -19.5430 C.3   901  HEM901      0.0000
     40  CBD        1.5460   23.8510  -19.2430 C.3   901  HEM901      0.0000
     41  CGD        0.5240   24.3580  -20.2410 C.2   901  HEM901      0.0000
     42  O1D       -0.3890   25.1120  -19.8570 O.co2 901  HEM901      0.0000
     43  O2D        0.6880   23.9800  -21.4210 O.co2 901  HEM901      0.0000
@<TRIPOS>BOND
     1    15    14   ar
     2    43    41   ar
     3    14    16   ar
     4    14    13    1
     5    12    13    1
     6    12     8    1
     7    11     9    1
     8     8     9   ar
     9     8     7   ar
    10    41    42   ar
    11    41    40    1
    12     9    10   ar
    13    39    40    1
    14    39    36    1
    15     7     2    2
    16     7     6   ar
    17     2    37    1
    18    10     6   ar
    19    10     3    2
    20     6     1    1
    21    37    36    1
    22    37    33    2
    23    36    35    2
    24     3    18    1
    25    33     1    1
    26    33    34    1
    27    35    38    1
    28    35    34    1
    29    18    19    1
    30    18    17    2
    31    22    19    1
    32     1    17    1
    33     1    25    1
    34    34     5    2
    35    19    20    2
    36    17    21    1
    37    20    21    1
    38    20    23    1
    39     5    29    1
    40    24    23    1
    41    21     4    2
    42    25    29   ar
    43    25    26   ar
    44    29    28   ar
    45     4    26    1
    46    26    27   ar
    47    28    27   ar
    48    28    31    1
    49    27    30    1
    50    32    31    1
