@<TRIPOS>MOLECULE
1yiq_PQQ_A_1.pdb
 24 26 0 0 0
SMALL
GASTEIGER

@<TRIPOS>ATOM
      1  N1         8.4750   29.1550   -2.8520 N.2   801  PQQ801     -0.3986
      2  C2         7.1960   28.9360   -2.3880 C.2   801  PQQ801      0.2104
      3  C2X        5.9500   29.5030   -3.0320 C.2   801  PQQ801      0.4168
      4  O2A        6.1440   30.2650   -3.9950 O.co2 801  PQQ801     -0.2377
      5  O2B        4.8540   29.2060   -2.5310 O.co2 801  PQQ801     -0.2377
      6  C3         7.2770   28.1410   -1.2670 C.2   801  PQQ801      0.0444
      7  C3A        8.6300   27.8760   -1.0730 C.2   801  PQQ801      0.0711
      8  C1A        9.3560   28.5290   -2.0900 C.2   801  PQQ801      0.1232
      9  C4         9.2580   27.0470    0.0090 C.2   801  PQQ801      0.2387
     10  O4         8.7060   26.4730    0.9070 O.2   801  PQQ801     -0.2830
     11  C5        10.8300   26.9390   -0.1060 C.2   801  PQQ801      0.2601
     12  O5        11.4540   26.2810    0.7200 O.2   801  PQQ801     -0.2807
     13  C6A       11.5350   27.6670   -1.2420 C.2   801  PQQ801      0.1617
     14  N6        12.8620   27.4500   -1.1750 N.2   801  PQQ801     -0.3954
     15  C7        13.6820   28.0190   -2.1020 C.2   801  PQQ801      0.2103
     16  C7X       15.1260   27.6130   -1.9760 C.2   801  PQQ801      0.4168
     17  O7A       15.3300   26.5910   -1.1880 O.co2 801  PQQ801     -0.2377
     18  O7B       15.9710   28.2500   -2.6240 O.co2 801  PQQ801     -0.2377
     19  C8        13.2000   28.8460   -3.1130 C.2   801  PQQ801      0.0420
     20  C9        11.7810   29.1200   -3.2370 C.2   801  PQQ801      0.0734
     21  C9X       11.3360   30.0670   -4.3770 C.2   801  PQQ801      0.3847
     22  O9A       10.1230   30.1860   -4.6300 O.co2 801  PQQ801     -0.2409
     23  O9B       12.2340   30.7140   -4.9500 O.co2 801  PQQ801     -0.2409
     24  C9A       10.8870   28.4780   -2.2480 C.3   801  PQQ801      0.1366
@<TRIPOS>BOND
     1    23    21   ar
     2    22    21   ar
     3    21    20    1
     4     4     3   ar
     5    20    19    2
     6    20    24    1
     7    19    15    1
     8     3     5   ar
     9     3     2    1
    10     1     2    2
    11     1     8    2
    12    18    16   ar
    13     2     6    1
    14    24     8    1
    15    24    13    1
    16    15    16    1
    17    15    14    2
    18     8     7    1
    19    16    17   ar
    20     6     7    2
    21    13    14    2
    22    13    11    1
    23     7     9    1
    24    11     9    1
    25    11    12    2
    26     9    10    2
