@<TRIPOS>MOLECULE
1yiv_EPE_A_1.pdb
 15 15 0 0 0
SMALL
GASTEIGER

@<TRIPOS>ATOM
      1  N1        -7.1980   18.0250   14.4650 N.3   1001  EPE1001    -0.2689
      2  C2        -7.3650   17.9880   13.0070 C.3   1001  EPE1001     0.0897
      3  C3        -8.8290   18.0280   12.6110 C.3   1001  EPE1001     0.0897
      4  N4        -9.6070   19.0620   13.2600 N.3   1001  EPE1001    -0.2681
      5  C5        -9.3500   19.1860   14.6720 C.3   1001  EPE1001     0.0897
      6  C6        -7.8750   19.2160   14.9670 C.3   1001  EPE1001     0.0897
      7  C7       -11.0030   18.7710   13.0480 C.3   1001  EPE1001     0.1081
      8  C8       -11.8750   19.7760   13.7630 C.3   1001  EPE1001     0.1993
      9  O8       -12.1340   19.2510   15.0320 O.3   1001  EPE1001    -0.2189
     10  C9        -5.7960   18.1580   14.9050 C.3   1001  EPE1001     0.0939
     11  C10       -4.7890   17.2660   14.2160 C.3   1001  EPE1001     0.1225
     12  S         -4.0630   17.8540   12.6610 S.3   1001  EPE1001    -0.1946
     13  O1S       -4.2910   16.8320   11.6190 O.3   1001  EPE1001    -0.3074
     14  O2S       -2.6340   18.0650   12.9100 O.3   1001  EPE1001    -0.3074
     15  O3S       -4.5960   19.1350   12.1970 O.3   1001  EPE1001    -0.3074
@<TRIPOS>BOND
     1    13    12    1
     2    15    12    1
     3     3     2    1
     4     3     4    1
     5    12    14    1
     6    12    11    1
     7     2     1    1
     8     7     4    1
     9     7     8    1
    10     4     5    1
    11     8     9    1
    12    11    10    1
    13     1    10    1
    14     1     6    1
    15     5     6    1
