@<TRIPOS>MOLECULE
1yiy_PMP_A_1.pdb
 16 16 0 0 0
SMALL
GASTEIGER

@<TRIPOS>ATOM
      1  N1        19.5030   15.8680   21.1280 N.ar  500  PMP500     -0.2452
      2  C2        20.2720   16.9850   21.3780 C.ar  500  PMP500      0.0981
      3  C2A       19.5800   18.2970   20.9690 C.3   500  PMP500      0.0555
      4  C3        21.5240   16.8080   21.9430 C.ar  500  PMP500      0.2104
      5  O3        22.2570   17.9390   22.1790 O.3   500  PMP500     -0.2853
      6  C4        22.0690   15.5690   22.2790 C.ar  500  PMP500      0.0610
      7  C4A       23.4670   15.3610   22.9020 C.2   500  PMP500      0.1251
      8  N4A       24.3760   16.2110   23.2410 N.2   500  PMP500     -0.1463
      9  C5        21.2770   14.4410   22.0200 C.ar  500  PMP500      0.0317
     10  C6        20.0340   14.6540   21.4470 C.ar  500  PMP500      0.0968
     11  C5A       21.6850   13.0030   22.3040 C.3   500  PMP500      0.1819
     12  O4P       21.6560   12.5920   23.6460 O.3   500  PMP500     -0.2653
     13  P         22.3450   11.2480   24.0730 P.3   500  PMP500      0.5329
     14  O1P       21.5790   10.9190   25.2980 O.3   500  PMP500     -0.1145
     15  O2P       23.7740   11.6010   24.2880 O.3   500  PMP500     -0.1145
     16  O3P       22.2170   10.2640   22.9880 O.2   500  PMP500     -0.2224
@<TRIPOS>BOND
     1     3     2    1
     2     1     2   ar
     3     1    10   ar
     4     2     4   ar
     5    10     9   ar
     6     4     5    1
     7     4     6   ar
     8     9     6   ar
     9     9    11    1
    10     6     7    1
    11    11    12    1
    12     7     8    2
    13    16    13    2
    14    12    13    1
    15    13    15    1
    16    13    14    1
