@<TRIPOS>MOLECULE
1yj6_GSH_A_1.pdb
 20 19 0 0 0
SMALL
GASTEIGER

@<TRIPOS>ATOM
      1  N1        24.0300    4.5470   12.4680 N.3   218  GSH218     -0.1208
      2  CA1       24.9170    5.6650   12.2220 C.3   218  GSH218      0.1948
      3  C1        25.2230    5.6260   10.7100 C.2   218  GSH218      0.3819
      4  O11       25.1200    4.6040   10.0440 O.co2 218  GSH218     -0.2441
      5  O12       25.5540    6.7880   10.3460 O.co2 218  GSH218     -0.2441
      6  CB1       26.1510    5.5150   13.1040 C.3   218  GSH218      0.0402
      7  CG1       27.1120    6.6710   12.7800 C.3   218  GSH218      0.0889
      8  CD1       28.2780    6.7470   13.7360 C.2   218  GSH218      0.2418
      9  OE1       28.2360    6.3930   14.9240 O.2   218  GSH218     -0.2733
     10  N2        29.3570    7.2620   13.1300 N.am  218  GSH218     -0.1968
     11  CA2       30.6210    7.4510   13.8090 C.3   218  GSH218      0.1843
     12  C2        31.1010    8.8770   14.0440 C.2   218  GSH218      0.2627
     13  O2        32.3070    9.1460   14.2300 O.2   218  GSH218     -0.2714
     14  CB2       31.6290    6.9480   12.7860 C.3   218  GSH218      0.0997
     15  SG2       31.4190    5.2020   12.3630 S.3   218  GSH218     -0.0797
     16  N3        30.1940    9.8510   14.1270 N.am  218  GSH218     -0.1917
     17  CA3       30.5440   11.2250   14.4290 C.3   218  GSH218      0.2285
     18  C3        30.1620   11.7390   15.8140 C.2   218  GSH218      0.3865
     19  O31       30.1100   12.9940   15.9360 O.co2 218  GSH218     -0.2437
     20  O32       29.8440   10.8570   16.6800 O.co2 218  GSH218     -0.2437
@<TRIPOS>BOND
     1     4     3   ar
     2     5     3   ar
     3     3     2    1
     4     2     1    1
     5     2     6    1
     6    15    14    1
     7     7     6    1
     8     7     8    1
     9    14    11    1
    10    10     8   am
    11    10    11    1
    12     8     9    2
    13    11    12    1
    14    12    16   am
    15    12    13    2
    16    16    17    1
    17    17    18    1
    18    18    19   ar
    19    18    20   ar
