@<TRIPOS>MOLECULE
1yjh_HEM_A_1.pdb
 43 50 0 0 0
SMALL
GASTEIGER

@<TRIPOS>ATOM
      1 FE         10.0620   18.9530    4.6430 Fe    300  HEM300      0.0000
      2  CHA        7.6510   20.7410    3.2720 C.2   300  HEM300      0.0000
      3  CHB        7.7920   16.7330    5.8790 C.2   300  HEM300      0.0000
      4  CHC       12.6750   16.9180    5.6080 C.2   300  HEM300      0.0000
      5  CHD       12.5030   21.1630    3.3390 C.2   300  HEM300      0.0000
      6  NA         8.1420   18.7640    4.6010 N.2   300  HEM300      0.0000
      7  C1A        7.2610   19.6330    3.9490 C.2   300  HEM300      0.0000
      8  C2A        5.8870   19.1770    4.0860 C.2   300  HEM300      0.0000
      9  C3A        5.9240   18.0520    4.8530 C.2   300  HEM300      0.0000
     10  C4A        7.2970   17.8200    5.1700 C.2   300  HEM300      0.0000
     11  CMA        4.7460   17.1550    5.3170 C.3   300  HEM300      0.0000
     12  CAA        4.6030   19.8330    3.4820 C.3   300  HEM300      0.0000
     13  CBA        4.2540   19.0700    2.1840 C.3   300  HEM300      0.0000
     14  CGA        3.0090   19.6150    1.5190 C.2   300  HEM300      0.0000
     15  O1A        3.1710   20.6220    0.7990 O.co2 300  HEM300      0.0000
     16  O2A        1.9000   19.0670    1.7360 O.co2 300  HEM300      0.0000
     17  NB        10.2390   17.1670    5.5610 N.ar  300  HEM300      0.0000
     18  C1B        9.1310   16.4470    5.9360 C.ar  300  HEM300      0.0000
     19  C2B        9.6220   15.2220    6.5100 C.ar  300  HEM300      0.0000
     20  C3B       10.9580   15.2680    6.4500 C.ar  300  HEM300      0.0000
     21  C4B       11.3900   16.4780    5.8250 C.ar  300  HEM300      0.0000
     22  CMB        8.6470   14.1640    7.0490 C.3   300  HEM300      0.0000
     23  CAB       11.9150   14.2080    6.9730 C.2   300  HEM300      0.0000
     24  CBB       11.4330   12.9700    7.2000 C.2   300  HEM300      0.0000
     25  NC        12.2190   19.0100    4.4770 N.2   300  HEM300      0.0000
     26  C1C       13.0870   18.0740    4.9940 C.2   300  HEM300      0.0000
     27  C2C       14.4540   18.5030    4.7410 C.2   300  HEM300      0.0000
     28  C3C       14.3520   19.7050    4.1480 C.2   300  HEM300      0.0000
     29  C4C       12.9740   20.0230    3.9510 C.2   300  HEM300      0.0000
     30  CMC       15.7850   17.8220    5.1720 C.3   300  HEM300      0.0000
     31  CAC       15.4360   20.6490    3.6450 C.2   300  HEM300      0.0000
     32  CBC       16.2440   21.3100    4.4710 C.2   300  HEM300      0.0000
     33  ND        10.1120   20.6810    3.4270 N.ar  300  HEM300      0.0000
     34  C1D       11.1900   21.4820    3.0980 C.ar  300  HEM300      0.0000
     35  C2D       10.6820   22.6760    2.4400 C.ar  300  HEM300      0.0000
     36  C3D        9.1810   22.4760    2.4360 C.ar  300  HEM300      0.0000
     37  C4D        8.9080   21.2310    3.0910 C.ar  300  HEM300      0.0000
     38  CMD       11.4760   23.8620    1.8310 C.3   300  HEM300      0.0000
     39  CAD        8.1110   23.4290    1.8880 C.3   300  HEM300      0.0000
     40  CBD        8.5020   23.7790    0.4780 C.3   300  HEM300      0.0000
     41  CGD        7.4450   24.7290   -0.0330 C.2   300  HEM300      0.0000
     42  O1D        7.6760   25.1890   -1.1910 O.co2 300  HEM300      0.0000
     43  O2D        6.4330   24.9890    0.7050 O.co2 300  HEM300      0.0000
@<TRIPOS>BOND
     1    42    41   ar
     2    41    40    1
     3    41    43   ar
     4    40    39    1
     5    15    14   ar
     6    14    16   ar
     7    14    13    1
     8    38    35    1
     9    39    36    1
    10    13    12    1
    11    36    35   ar
    12    36    37   ar
    13    35    34   ar
    14    37     2    2
    15    37    33   ar
    16    34     5    2
    17    34    33   ar
    18     2     7    1
    19     5    29    1
    20    33     1    1
    21    12     8    1
    22    31    28    1
    23    31    32    2
    24     7     8    1
    25     7     6    2
    26    29    28    1
    27    29    25    2
    28     8     9    2
    29    28    27    2
    30    25     1    1
    31    25    26    1
    32     6     1    1
    33     6    10    1
    34     1    17    1
    35    27    26    1
    36    27    30    1
    37     9    10    1
    38     9    11    1
    39    26     4    2
    40    10     3    2
    41    17    21   ar
    42    17    18   ar
    43     4    21    1
    44    21    20   ar
    45     3    18    1
    46    18    19   ar
    47    20    19   ar
    48    20    23    1
    49    19    22    1
    50    23    24    2
