@<TRIPOS>MOLECULE
1yjm_III_G_1.pdb
 49 49 0 0 0
SMALL
GASTEIGER

@<TRIPOS>ATOM
      1  C         -0.6350    1.8680   74.0890 C.2     3  ACE3        0.2423
      2  O         -0.6580    2.9430   73.4890 O.2     3  ACE3       -0.2733
      3  CH3       -1.8810    1.2350   74.6350 C.3     3  ACE3        0.0964
      4  N          0.4610    1.1160   74.1620 N.am    4  TYR4       -0.1974
      5  CA         1.7840    1.6920   74.3970 C.3     4  TYR4        0.1770
      6  C          2.5730    1.9150   73.1060 C.2     4  TYR4        0.2620
      7  O          3.7220    2.3570   73.1500 O.2     4  TYR4       -0.2715
      8  CB         2.5990    0.7880   75.3320 C.3     4  TYR4        0.0574
      9  CG         2.0860    0.7240   76.7540 C.ar    4  TYR4       -0.0198
     10  CD1        1.8690   -0.5010   77.3830 C.ar    4  TYR4       -0.0009
     11  CD2        1.8190    1.8860   77.4730 C.ar    4  TYR4       -0.0009
     12  CE1        1.4010   -0.5640   78.6890 C.ar    4  TYR4        0.0417
     13  CE2        1.3510    1.8320   78.7760 C.ar    4  TYR4        0.0417
     14  CZ         1.1430    0.6060   79.3790 C.ar    4  TYR4        0.1957
     15  OH         0.6790    0.5510   80.6730 O.3     4  TYR4       -0.2866
     16  N          1.9610    1.6200   71.9610 N.am    5  ASP5       -0.1957
     17  CA         2.6670    1.6840   70.6810 C.3     5  ASP5        0.1840
     18  C          1.7410    1.9800   69.4910 C.2     5  ASP5        0.2622
     19  O          1.9240    1.4390   68.4040 O.2     5  ASP5       -0.2715
     20  CB         3.4750    0.3900   70.4630 C.3     5  ASP5        0.1450
     21  CG         2.7480   -0.8560   70.9560 C.2     5  ASP5        0.3671
     22  OD1        1.5210   -0.7940   71.1900 O.co2   5  ASP5       -0.2456
     23  OD2        3.4080   -1.9070   71.1030 O.co2   5  ASP5       -0.2456
     24  N          0.7600    2.8570   69.6970 N.am    6  GLU6       -0.1963
     25  CA        -0.1150    3.3130   68.6130 C.3     6  GLU6        0.1733
     26  C          0.5990    4.3720   67.7650 C.2     6  GLU6        0.2617
     27  O          1.6970    4.8110   68.1060 O.2     6  GLU6       -0.2715
     28  CB        -1.4180    3.8840   69.1820 C.3     6  GLU6        0.0429
     29  CG        -2.2850    2.8600   69.9190 C.3     6  GLU6        0.1163
     30  CD        -3.0300    1.9090   68.9910 C.2     6  GLU6        0.3649
     31  OE1       -3.6980    0.9870   69.5070 O.co2   6  GLU6       -0.2457
     32  OE2       -2.9590    2.0760   67.7540 O.co2   6  GLU6       -0.2457
     33  N         -0.0220    4.7740   66.6590 N.am    7  SER7       -0.1936
     34  CA         0.5600    5.7850   65.7730 C.3     7  SER7        0.2055
     35  C          0.3900    7.1870   66.3610 C.2     7  SER7        0.2643
     36  O         -0.7210    7.5820   66.7210 O.2     7  SER7       -0.2714
     37  CB        -0.0850    5.7170   64.3860 C.3     7  SER7        0.2130
     38  OG        -1.4950    5.8410   64.4690 O.3     7  SER7       -0.2179
     39  N          1.4920    7.9330   66.4540 N.am    8  THR8       -0.1951
     40  CA         1.4740    9.2860   67.0230 C.3     8  THR8        0.1871
     41  CB         2.8860    9.7690   67.3750 C.3     8  THR8        0.1537
     42  CG2        2.8480   10.9090   68.3910 C.3     8  THR8        0.0350
     43  OG1        3.6630    8.6990   67.9120 O.3     8  THR8       -0.2705
     44  P          5.2590    8.6390   67.7040 P.3     8  THR8        0.5326
     45  O1P        5.8480   10.1140   67.6470 O.3     8  THR8       -0.1145
     46  O2P        5.5830    7.8920   66.3400 O.2     8  THR8       -0.2224
     47  O3P        5.9320    7.8510   68.9080 O.3     8  THR8       -0.1145
     48  C          0.8450   10.2410   66.0480 C.2     8  THR8        0.2312
     49  O          1.2710   10.3440   64.8970 O.2     8  THR8       -0.2863
@<TRIPOS>BOND
     1    37    38    1
     2    37    34    1
     3    49    48    2
     4    34    35    1
     5    34    33    1
     6    48    40    1
     7    46    44    2
     8    35    39   am
     9    35    36    2
    10    39    40    1
    11    33    26   am
    12    40    41    1
    13    41    43    1
    14    41    42    1
    15    45    44    1
    16    44    43    1
    17    44    47    1
    18    32    30   ar
    19    26    27    2
    20    26    25    1
    21    19    18    2
    22    25    28    1
    23    25    24    1
    24    30    31   ar
    25    30    29    1
    26    28    29    1
    27    18    24   am
    28    18    17    1
    29    20    17    1
    30    20    21    1
    31    17    16    1
    32    21    23   ar
    33    21    22   ar
    34    16     6   am
    35     6     7    2
    36     6     5    1
    37     2     1    2
    38     1     4   am
    39     1     3    1
    40     4     5    1
    41     5     8    1
    42     8     9    1
    43     9    10   ar
    44     9    11   ar
    45    10    12   ar
    46    11    13   ar
    47    12    14   ar
    48    13    14   ar
    49    14    15    1
