@<TRIPOS>MOLECULE
1yjq_NAP_A_1.pdb
 48 52 0 0 0
SMALL
GASTEIGER

@<TRIPOS>ATOM
      1  PA        20.5150    0.4150    8.1740 P.3   501  NAP501      0.2189
      2  O1A       21.4610    0.7980    9.2210 O.3   501  NAP501     -0.4371
      3  O2A       20.3560   -1.0180    7.6750 O.2   501  NAP501     -0.5170
      4  O5B       20.6250    1.4000    6.8880 O.3   501  NAP501     -0.3112
      5  C5B       21.3010    2.6630    6.8960 C.3   501  NAP501      0.1813
      6  C4B       22.3260    2.6640    5.7130 C.3   501  NAP501      0.1820
      7  O4B       22.8060    4.0000    5.5350 O.3   501  NAP501     -0.3136
      8  C3B       23.4920    1.7330    6.1350 C.3   501  NAP501      0.2157
      9  O3B       23.8390    0.8880    5.0510 O.3   501  NAP501     -0.2175
     10  C2B       24.5840    2.7240    6.5630 C.3   501  NAP501      0.2314
     11  O2B       25.9280    2.2600    6.3110 O.3   501  NAP501     -0.2630
     12  C1B       24.2840    3.9760    5.7320 C.3   501  NAP501      0.3158
     13  N9A       24.8970    5.3590    6.1220 N.pl3 501  NAP501     -0.1439
     14  C8A       25.1510    5.9470    7.3130 C.3   501  NAP501      0.3377
     15  N7A       25.6120    7.1980    7.1040 N.2   501  NAP501     -0.2095
     16  C5A       25.6470    7.4340    5.7720 C.2   501  NAP501      0.2526
     17  C6A       26.0720    8.5060    4.9460 C.2   501  NAP501      0.4393
     18  N6A       26.5540    9.6700    5.4360 N.pl3 501  NAP501      0.2180
     19  N1A       25.9330    8.3390    3.6130 N.2   501  NAP501      0.0021
     20  C2A       25.4270    7.1980    3.0840 C.3   501  NAP501      0.5254
     21  N3A       25.0440    6.1240    3.7930 N.2   501  NAP501     -0.0055
     22  C4A       25.1600    6.2440    5.1490 C.2   501  NAP501      0.3518
     23  O3        19.1090    1.0220    8.7010 O.3   501  NAP501     -0.2703
     24  PN        17.5430    0.6120    8.2170 P.3   501  NAP501      0.2189
     25  O1N       17.0930   -0.6190    8.9480 O.3   501  NAP501     -0.4371
     26  O2N       17.4870    0.5860    6.7320 O.2   501  NAP501     -0.5170
     27  O5D       16.7540    1.7680    8.9700 O.3   501  NAP501     -0.3112
     28  C5D       16.8560    3.1250    8.4860 C.3   501  NAP501      0.1813
     29  C4D       15.7990    4.0180    9.1290 C.3   501  NAP501      0.1799
     30  O4D       14.5440    3.3990    8.7240 O.3   501  NAP501     -0.3327
     31  C3D       15.8610    3.8930   10.6450 C.3   501  NAP501      0.2158
     32  O3D       15.4680    5.1240   11.2430 O.3   501  NAP501     -0.2175
     33  C2D       14.8640    2.7910   11.0430 C.3   501  NAP501      0.2309
     34  O2D       14.4030    2.9530   12.4100 O.3   501  NAP501     -0.2158
     35  C1D       13.7940    3.0990    9.9920 C.3   501  NAP501      0.2263
     36  N1N       12.9570    1.9650    9.6990 N.pl3 501  NAP501     -0.2787
     37  C2N       13.5330    0.7150    9.4220 C.3   501  NAP501      0.1244
     38  C3N       12.7320   -0.3700    9.1190 C.2   501  NAP501      0.0544
     39  C7N       13.3150   -1.7950    8.8120 C.2   501  NAP501      0.2818
     40  O7N       12.5780   -2.7890    8.9270 O.2   501  NAP501     -0.2670
     41  N7N       14.6460   -1.8660    8.5020 N.am  501  NAP501     -0.0839
     42  C4N       11.3590   -0.1700    9.1420 C.2   501  NAP501      0.0033
     43  C5N       10.7860    1.0450    9.4450 C.2   501  NAP501      0.0157
     44  C6N       11.5910    2.1200    9.7060 C.2   501  NAP501      0.0633
     45  P2B       26.8520    2.1100    7.6450 P.3   501  NAP501      0.5328
     46  O1X       28.0980    1.5380    6.9050 O.2   501  NAP501     -0.2224
     47  O2X       27.2050    3.6070    8.2480 O.3   501  NAP501     -0.1145
     48  O3X       26.1000    1.3030    8.7350 O.3   501  NAP501     -0.1145
@<TRIPOS>BOND
     1    20    19    1
     2    20    21    1
     3    19    17    2
     4    21    22    2
     5    17    18    1
     6    17    16    1
     7     9     8    1
     8    22    16    1
     9    22    13    1
    10     7     6    1
    11     7    12    1
    12     6     8    1
    13     6     5    1
    14    12    13    1
    15    12    10    1
    16    16    15    2
    17    13    14    1
    18     8    10    1
    19    11    10    1
    20    11    45    1
    21    26    24    2
    22     4     5    1
    23     4     1    1
    24    46    45    2
    25    15    14    1
    26    45    47    1
    27    45    48    1
    28     3     1    2
    29     1    23    1
    30     1     2    1
    31    24    23    1
    32    24    25    1
    33    24    27    1
    34    28    27    1
    35    28    29    1
    36    41    39   am
    37    30    29    1
    38    30    35    1
    39    39    40    2
    40    39    38    1
    41    38    42    2
    42    38    37    1
    43    29    31    1
    44    42    43    1
    45    37    36    1
    46    43    44    2
    47    36    44    1
    48    36    35    1
    49    35    33    1
    50    31    33    1
    51    31    32    1
    52    33    34    1
