@<TRIPOS>MOLECULE
1yjs_PLP_A_1.pdb
 15 15 0 0 0
SMALL
GASTEIGER

@<TRIPOS>ATOM
      1  N1         9.7170    9.2260   22.3860 N.ar  501  PLP501     -0.2452
      2  C2        10.1540   10.4430   21.9310 C.ar  501  PLP501      0.0978
      3  C2A       11.5030   10.8400   22.4070 C.3   501  PLP501      0.0555
      4  C3         9.2730   11.1660   21.0510 C.ar  501  PLP501      0.2049
      5  O3         9.6830   12.3220   20.5300 O.3   501  PLP501     -0.2857
      6  C4         8.0000   10.5930   20.7240 C.ar  501  PLP501      0.0182
      7  C4A        7.0750   11.3120   19.8620 C.3   501  PLP501      0.0342
      8  C5         7.5980    9.3460   21.2580 C.ar  501  PLP501      0.0261
      9  C6         8.5000    8.6760   22.1080 C.ar  501  PLP501      0.0965
     10  C5A        6.2890    8.6510   21.0990 C.3   501  PLP501      0.1815
     11  O4P        6.1920    8.0610   19.7890 O.3   501  PLP501     -0.2653
     12  P          4.8220    7.6240   19.1630 P.3   501  PLP501      0.5329
     13  O1P        4.0530    6.9660   20.2400 O.3   501  PLP501     -0.1145
     14  O2P        4.1780    9.0220   18.7410 O.3   501  PLP501     -0.1145
     15  O3P        5.1310    6.9170   17.9100 O.2   501  PLP501     -0.2224
@<TRIPOS>BOND
     1    15    12    2
     2    14    12    1
     3    12    11    1
     4    12    13    1
     5    11    10    1
     6     7     6    1
     7     5     4    1
     8     6     4   ar
     9     6     8   ar
    10     4     2   ar
    11    10     8    1
    12     8     9   ar
    13     2     1   ar
    14     2     3    1
    15     9     1   ar
