@<TRIPOS>MOLECULE
1yjx_CIT_A_1.pdb
 13 12 0 0 0
SMALL
GASTEIGER

@<TRIPOS>ATOM
      1  C1        -1.3840   -6.7720   89.7510 C.2   601  CIT601      0.3680
      2  O1        -2.2790   -6.9980   90.6410 O.co2 601  CIT601     -0.2455
      3  O2        -1.2800   -5.6950   89.2530 O.co2 601  CIT601     -0.2455
      4  C2        -0.5040   -7.9360   89.3670 C.3   601  CIT601      0.1560
      5  C3         0.5840   -7.6210   88.3070 C.3   601  CIT601      0.2402
      6  O7         1.4550   -6.6170   88.8390 O.3   601  CIT601     -0.2129
      7  C4         1.4400   -8.9150   87.9950 C.3   601  CIT601      0.1560
      8  C5         2.9470   -8.5400   87.8350 C.2   601  CIT601      0.3680
      9  O3         3.5810   -8.3080   86.7990 O.co2 601  CIT601     -0.2455
     10  O4         3.4700   -8.4980   89.0190 O.co2 601  CIT601     -0.2455
     11  C6         0.2750   -6.9540   86.9020 C.2   601  CIT601      0.3927
     12  O5         0.3970   -5.7710   86.5490 O.co2 601  CIT601     -0.2429
     13  O6        -0.1360   -7.9210   86.1890 O.co2 601  CIT601     -0.2429
@<TRIPOS>BOND
     1    13    11   ar
     2    12    11   ar
     3     9     8   ar
     4    11     5    1
     5     8     7    1
     6     8    10   ar
     7     7     5    1
     8     5     6    1
     9     5     4    1
    10     3     1   ar
    11     4     1    1
    12     1     2   ar
