@<TRIPOS>MOLECULE
1yjy_PLP_A_1.pdb
 15 15 0 0 0
SMALL
GASTEIGER

@<TRIPOS>ATOM
      1  N1         9.7450    9.1770   22.3800 N.ar  501  PLP501     -0.2452
      2  C2        10.1040   10.4200   21.9790 C.ar  501  PLP501      0.0978
      3  C2A       11.4560   10.8530   22.4330 C.3   501  PLP501      0.0555
      4  C3         9.1500   11.1450   21.1870 C.ar  501  PLP501      0.2049
      5  O3         9.3970   12.3660   20.7530 O.3   501  PLP501     -0.2857
      6  C4         7.8880   10.5160   20.8860 C.ar  501  PLP501      0.0182
      7  C4A        6.9130   11.2350   20.0870 C.3   501  PLP501      0.0342
      8  C5         7.5850    9.2180   21.3420 C.ar  501  PLP501      0.0261
      9  C6         8.5450    8.5370   22.1200 C.ar  501  PLP501      0.0965
     10  C5A        6.3120    8.4850   21.0990 C.3   501  PLP501      0.1815
     11  O4P        6.1450    7.8860   19.8380 O.3   501  PLP501     -0.2653
     12  P          4.7740    7.4510   19.2160 P.3   501  PLP501      0.5329
     13  O1P        4.0350    6.7990   20.3270 O.3   501  PLP501     -0.1145
     14  O2P        4.1500    8.8410   18.7800 O.3   501  PLP501     -0.1145
     15  O3P        5.0700    6.6680   18.0000 O.2   501  PLP501     -0.2224
@<TRIPOS>BOND
     1    15    12    2
     2    14    12    1
     3    12    11    1
     4    12    13    1
     5    11    10    1
     6     7     6    1
     7     5     4    1
     8     6     4   ar
     9     6     8   ar
    10    10     8    1
    11     4     2   ar
    12     8     9   ar
    13     2     1   ar
    14     2     3    1
    15     9     1   ar
