@<TRIPOS>MOLECULE
1yjz_PLP_A_1.pdb
 15 15 0 0 0
SMALL
GASTEIGER

@<TRIPOS>ATOM
      1  N1         9.6420    9.4120   22.5820 N.ar  501  PLP501     -0.2452
      2  C2        10.0910   10.5760   22.0710 C.ar  501  PLP501      0.0978
      3  C2A       11.3670   11.1450   22.5760 C.3   501  PLP501      0.0555
      4  C3         9.2400   11.1480   21.0780 C.ar  501  PLP501      0.2049
      5  O3         9.5120   12.2810   20.4580 O.3   501  PLP501     -0.2857
      6  C4         8.0350   10.4190   20.7350 C.ar  501  PLP501      0.0182
      7  C4A        7.2920   11.0910   19.6800 C.3   501  PLP501      0.0342
      8  C5         7.6170    9.2210   21.3020 C.ar  501  PLP501      0.0261
      9  C6         8.4890    8.7040   22.2840 C.ar  501  PLP501      0.0965
     10  C5A        6.3860    8.4430   21.0410 C.3   501  PLP501      0.1815
     11  O4P        6.1280    7.9260   19.7640 O.3   501  PLP501     -0.2653
     12  P          4.7280    7.5420   19.1750 P.3   501  PLP501      0.5329
     13  O1P        3.9980    6.8670   20.2730 O.3   501  PLP501     -0.1145
     14  O2P        4.0940    8.9600   18.8490 O.3   501  PLP501     -0.1145
     15  O3P        4.9830    6.8080   17.9190 O.2   501  PLP501     -0.2224
@<TRIPOS>BOND
     1    15    12    2
     2    14    12    1
     3    12    11    1
     4    12    13    1
     5     7     6    1
     6    11    10    1
     7     5     4    1
     8     6     4   ar
     9     6     8   ar
    10    10     8    1
    11     4     2   ar
    12     8     9   ar
    13     2     3    1
    14     2     1   ar
    15     9     1   ar
