@<TRIPOS>MOLECULE
1yk7_NBL_A_1.pdb
 26 27 0 0 0
SMALL
GASTEIGER

@<TRIPOS>ATOM
      1  C1        75.6310 -127.7220   35.3020 C.3   216  NBL216      0.0001
      2  C2        75.9270 -128.3570   33.9360 C.3   216  NBL216      0.0022
      3  C3        77.1090 -129.3030   34.0550 C.3   216  NBL216      0.0001
      4  C4        74.7220 -129.1260   33.4770 C.3   216  NBL216      0.0312
      5  C5        73.6750 -128.1510   32.9370 C.3   216  NBL216      0.1761
      6  N6        72.4840 -128.9390   32.4950 N.am  216  NBL216     -0.1611
      7  C7        71.6040 -128.4930   31.5260 C.2   216  NBL216      0.4218
      8  O8        71.3750 -127.2920   31.3780 O.2   216  NBL216     -0.2245
      9  O9        70.9930 -129.3780   30.7590 O.3   216  NBL216     -0.4285
     10  C10       69.7650 -128.9060   30.2370 C.3   216  NBL216      0.2368
     11  C11       68.8570 -130.0860   29.9870 C.ar  216  NBL216      0.0213
     12  C12       69.3980 -131.3090   29.5860 C.ar  216  NBL216     -0.0007
     13  C13       68.5670 -132.3930   29.3610 C.ar  216  NBL216     -0.0002
     14  C14       67.1880 -132.2660   29.5350 C.ar  216  NBL216     -0.0000
     15  C15       66.6480 -131.0530   29.9310 C.ar  216  NBL216     -0.0002
     16  C16       67.4830 -129.9590   30.1590 C.ar  216  NBL216     -0.0007
     17  C17       74.3020 -127.3170   31.7650 C.2   216  NBL216      0.2613
     18  O18       74.8350 -127.8910   30.8150 O.2   216  NBL216     -0.2715
     19  N19       74.2050 -125.9480   31.7990 N.am  216  NBL216     -0.2043
     20  C20       75.3250 -125.0290   31.4400 C.3   216  NBL216      0.1127
     21  C21       75.0190 -124.2750   30.1680 C.3   216  NBL216      0.0404
     22  C22       76.3710 -124.1160   29.4460 C.3   216  NBL216      0.0753
     23  N23       77.3860 -124.7710   30.3020 N.3   216  NBL216     -0.2550
     24  C24       76.6720 -125.7010   31.2170 C.3   216  NBL216      0.0951
     25  C25       78.3670 -125.4100   29.5000 C.3   216  NBL216      0.1841
     26  N26       78.9030 -124.7210   28.4870 N.3   216  NBL216     -0.1119
@<TRIPOS>BOND
     1    26    25    1
     2    13    14   ar
     3    13    12   ar
     4    22    21    1
     5    22    23    1
     6    25    23    1
     7    14    15   ar
     8    12    11   ar
     9    15    16   ar
    10    11    16   ar
    11    11    10    1
    12    21    20    1
    13    10     9    1
    14    23    24    1
    15     9     7    1
    16    18    17    2
    17    24    20    1
    18     8     7    2
    19    20    19    1
    20     7     6   am
    21    17    19   am
    22    17     5    1
    23     6     5    1
    24     5     4    1
    25     4     2    1
    26     2     3    1
    27     2     1    1
