@<TRIPOS>MOLECULE
1yk8_T2M_A_1.pdb
 12 11 0 0 0
SMALL
GASTEIGER

@<TRIPOS>ATOM
      1  C1        71.9770  -12.6690  131.0260 C.3   101  T2M101      0.1148
      2  N2        72.3540  -12.0400  132.2990 N.3   101  T2M101     -0.1609
      3  N3        71.5810  -10.8870  132.4900 N.am  101  T2M101     -0.0888
      4  C4        70.7470  -10.8040  133.5180 C.2   101  T2M101      0.4364
      5  O5        70.5940  -11.7930  134.2610 O.2   101  T2M101     -0.2231
      6  O6        70.0770   -9.6120  133.7250 O.3   101  T2M101     -0.4399
      7  C7        69.1400   -9.6030  134.7840 C.3   101  T2M101      0.1379
      8  C8        68.0990  -10.7180  134.6110 C.3   101  T2M101      0.0437
      9  C9        68.4070   -8.2500  134.7570 C.3   101  T2M101      0.0437
     10  C10       69.8850   -9.7520  136.1260 C.3   101  T2M101      0.0437
     11  C11       73.7660  -11.6790  132.3000 C.3   101  T2M101      0.2026
     12  N12       74.5780  -12.1410  131.3030 N.3   101  T2M101     -0.1102
@<TRIPOS>BOND
     1     1     2    1
     2    12    11    1
     3     2    11    1
     4     2     3    1
     5     3     4   am
     6     4     6    1
     7     4     5    2
     8     6     7    1
     9     8     7    1
    10     9     7    1
    11     7    10    1
