@<TRIPOS>MOLECULE
1ykb_FUC_A_1.pdb
 10 10 0 0 0
SMALL
GASTEIGER

@<TRIPOS>ATOM
      1  C1        52.2340   25.2360  -10.3640 C.3   1112  FUC1112     0.1776
      2  C2        50.9220   25.9080  -10.7980 C.3   1112  FUC1112     0.2141
      3  C3        50.3980   26.8360   -9.6850 C.3   1112  FUC1112     0.2172
      4  C4        51.4960   27.8040   -9.1920 C.3   1112  FUC1112     0.2116
      5  C5        52.8280   27.0750   -8.9190 C.3   1112  FUC1112     0.1483
      6  C6        53.9920   28.0120   -8.6480 C.3   1112  FUC1112     0.0349
      7  O2        49.9520   24.9120  -11.0980 O.3   1112  FUC1112    -0.2176
      8  O3        49.2850   27.5850  -10.1650 O.3   1112  FUC1112    -0.2175
      9  O4        51.6960   28.8400  -10.1390 O.3   1112  FUC1112    -0.2177
     10  O5        53.1980   26.2370  -10.0390 O.3   1112  FUC1112    -0.3508
@<TRIPOS>BOND
     1     7     2    1
     2     2     1    1
     3     2     3    1
     4     1    10    1
     5     8     3    1
     6     9     4    1
     7    10     5    1
     8     3     4    1
     9     4     5    1
    10     5     6    1
