@<TRIPOS>MOLECULE
1ykc_GDS_A_1.pdb
 40 39 0 0 0
SMALL
GASTEIGER

@<TRIPOS>ATOM
      1  N1         6.1480   83.1460   39.9960 N.3   400  GDS400     -0.1208
      2  CA1        4.9390   82.9770   40.5520 C.3   400  GDS400      0.1948
      3  C1         3.9890   83.9420   39.8010 C.2   400  GDS400      0.3819
      4  OE1        3.1080   83.4200   39.0230 O.co2 400  GDS400     -0.2441
      5  OE2        4.1200   85.2220   39.9880 O.co2 400  GDS400     -0.2441
      6  CB1        4.9760   83.2490   42.0540 C.3   400  GDS400      0.0402
      7  CG1        3.7150   82.9470   42.8340 C.3   400  GDS400      0.0889
      8  CD1        4.0810   82.6380   44.2700 C.2   400  GDS400      0.2418
      9  O1         4.1600   81.4260   44.6030 O.2   400  GDS400     -0.2733
     10  N2         4.2460   83.6960   45.0900 N.am  400  GDS400     -0.1968
     11  CA2        4.6460   83.5470   46.4750 C.3   400  GDS400      0.1843
     12  C2         3.6490   82.8880   47.4530 C.2   400  GDS400      0.2627
     13  O2         2.4770   83.2760   47.4730 O.2   400  GDS400     -0.2714
     14  CB2        4.8400   85.0370   46.8700 C.3   400  GDS400      0.0997
     15  SG2        4.9290   85.2710   48.6870 S.3   400  GDS400     -0.0797
     16  N3         4.1210   81.9350   48.2270 N.am  400  GDS400     -0.1917
     17  CA3        3.2900   81.2540   49.1970 C.3   400  GDS400      0.2285
     18  C3         2.6790   79.9280   48.8430 C.2   400  GDS400      0.3865
     19  OE3        2.3730   79.2450   49.8020 O.co2 400  GDS400     -0.2437
     20  OE4        2.5080   79.5730   47.6740 O.co2 400  GDS400     -0.2437
     21  N4        10.9060   86.6990   49.3040 N.am  400  GDS400     -0.1917
     22  CA4       11.9220   87.7100   49.5940 C.3   400  GDS400      0.2285
     23  C4        12.2020   88.5350   48.3210 C.2   400  GDS400      0.3865
     24  OE5       12.7740   89.6690   48.4630 O.co2 400  GDS400     -0.2437
     25  OE6       11.8470   88.0570   47.1920 O.co2 400  GDS400     -0.2437
     26  C5         9.6130   86.9880   49.1850 C.2   400  GDS400      0.2627
     27  O5         8.9800   88.0540   49.2720 O.2   400  GDS400     -0.2714
     28  CA5        8.9020   85.6430   48.8920 C.3   400  GDS400      0.1843
     29  N5         9.5680   84.4260   49.2740 N.am  400  GDS400     -0.1968
     30  CB5        7.5150   85.6760   49.5600 C.3   400  GDS400      0.0997
     31  SG5        6.4900   84.2280   49.2900 S.3   400  GDS400     -0.0797
     32  CA6       11.5480   79.9550   48.9450 C.3   400  GDS400      0.1948
     33  C6        11.1130   79.3890   50.2580 C.2   400  GDS400      0.3819
     34  OE7       10.5820   78.2530   50.2700 O.co2 400  GDS400     -0.2441
     35  OE8       11.3190   80.0760   51.2750 O.co2 400  GDS400     -0.2441
     36  N6        11.8040   78.9620   48.0730 N.3   400  GDS400     -0.1208
     37  CB6       10.5140   80.9470   48.3630 C.3   400  GDS400      0.0402
     38  CG6       10.6510   82.2540   49.1980 C.3   400  GDS400      0.0889
     39  CD6        9.9420   83.4100   48.4750 C.2   400  GDS400      0.2418
     40  O6         9.7480   83.3840   47.2390 O.2   400  GDS400     -0.2733
@<TRIPOS>BOND
     1     4     3   ar
     2     3     5   ar
     3     3     2    1
     4     1     2    1
     5     2     6    1
     6     6     7    1
     7     7     8    1
     8     8     9    2
     9     8    10   am
    10    10    11    1
    11    11    14    1
    12    11    12    1
    13    14    15    1
    14    25    23   ar
    15    40    39    2
    16    12    13    2
    17    12    16   am
    18    20    18   ar
    19    36    32    1
    20    16    17    1
    21    23    24   ar
    22    23    22    1
    23    37    32    1
    24    37    38    1
    25    39    38    1
    26    39    29   am
    27    15    31    1
    28    18    17    1
    29    18    19   ar
    30    28    26    1
    31    28    29    1
    32    28    30    1
    33    32    33    1
    34    26    27    2
    35    26    21   am
    36    31    30    1
    37    21    22    1
    38    33    34   ar
    39    33    35   ar
