@<TRIPOS>MOLECULE
1ykd_CMP_A_1.pdb
 22 25 0 0 0
SMALL
GASTEIGER

@<TRIPOS>ATOM
      1  P          9.5440  -28.5820    2.5780 P.3   501  CMP501      0.2141
      2  O1P        9.7010  -27.1330    2.8120 O.2   501  CMP501     -0.5172
      3  O2P       10.3470  -29.5440    3.3520 O.3   501  CMP501     -0.4373
      4  O5'        7.9900  -28.9170    2.7800 O.3   501  CMP501     -0.3114
      5  C5'        7.0410  -28.2830    1.9090 C.3   501  CMP501      0.1812
      6  C4'        7.4110  -28.6420    0.4720 C.3   501  CMP501      0.1793
      7  O4'        6.6500  -27.9730   -0.5760 O.3   501  CMP501     -0.3136
      8  C3'        8.8030  -28.0940    0.1980 C.3   501  CMP501      0.1884
      9  O3'        9.7720  -28.8040    1.0130 O.3   501  CMP501     -0.3111
     10  C2'        8.9150  -28.3550   -1.2910 C.3   501  CMP501      0.2541
     11  O2'        9.3920  -29.6960   -1.4920 O.3   501  CMP501     -0.2131
     12  C1'        7.4460  -28.1690   -1.7890 C.3   501  CMP501      0.3185
     13  N9         7.2990  -26.9390   -2.5940 N.pl3 501  CMP501     -0.1439
     14  C8         7.6680  -25.6920   -2.2680 C.3   501  CMP501      0.3377
     15  N7         7.3600  -24.8660   -3.2740 N.2   501  CMP501     -0.2095
     16  C5         6.7880  -25.5860   -4.2390 C.2   501  CMP501      0.2526
     17  C6         6.2670  -25.2830   -5.4990 C.2   501  CMP501      0.4393
     18  N6         6.2640  -24.0560   -6.0180 N.pl3 501  CMP501      0.2180
     19  N1         5.7320  -26.3050   -6.2490 N.2   501  CMP501      0.0021
     20  C2         5.7170  -27.6160   -5.7560 C.3   501  CMP501      0.5254
     21  N3         6.2180  -27.8780   -4.5530 N.2   501  CMP501     -0.0055
     22  C4         6.7500  -26.9030   -3.7990 C.2   501  CMP501      0.3518
@<TRIPOS>BOND
     1    19    20    1
     2    19    17    2
     3    18    17    1
     4    20    21    1
     5    17    16    1
     6    21    22    2
     7    16    22    1
     8    16    15    2
     9    22    13    1
    10    15    14    1
    11    13    14    1
    12    13    12    1
    13    12    10    1
    14    12     7    1
    15    11    10    1
    16    10     8    1
    17     7     6    1
    18     8     6    1
    19     8     9    1
    20     6     5    1
    21     9     1    1
    22     5     4    1
    23     1     4    1
    24     1     2    2
    25     1     3    1
