@<TRIPOS>MOLECULE
1ykf_NAP_A_1.pdb
 48 52 0 0 0
SMALL
GASTEIGER

@<TRIPOS>ATOM
      1  PA        53.9240   -5.6670   16.9800 P.3   353  NAP353      0.2189
      2  O1A       55.3300   -5.2300   16.8090 O.2   353  NAP353     -0.5170
      3  O2A       53.6510   -6.9770   17.6200 O.3   353  NAP353     -0.4371
      4  O5B       53.2150   -5.7450   15.5350 O.3   353  NAP353     -0.3112
      5  C5B       53.9560   -6.2390   14.4140 C.3   353  NAP353      0.1813
      6  C4B       52.9830   -6.9040   13.4600 C.3   353  NAP353      0.1820
      7  O4B       53.6280   -7.0050   12.1820 O.3   353  NAP353     -0.3136
      8  C3B       52.6200   -8.3200   13.8980 C.3   353  NAP353      0.2157
      9  O3B       51.3520   -8.7470   13.3940 O.3   353  NAP353     -0.2175
     10  C2B       53.7090   -9.1720   13.2720 C.3   353  NAP353      0.2314
     11  O2B       53.3040  -10.5460   13.0570 O.3   353  NAP353     -0.2630
     12  C1B       54.2800   -8.2790   12.1910 C.3   353  NAP353      0.3158
     13  N9A       55.3680   -8.6180   11.2450 N.pl3 353  NAP353     -0.1439
     14  C8A       56.6470   -8.8650   11.5720 C.3   353  NAP353      0.3377
     15  N7A       57.3940   -9.0950   10.4850 N.2   353  NAP353     -0.2095
     16  C5A       56.5240   -8.9900    9.4930 C.2   353  NAP353      0.2526
     17  C6A       56.8420   -9.1630    8.1530 C.2   353  NAP353      0.4393
     18  N6A       58.0810   -9.4680    7.7780 N.pl3 353  NAP353      0.2180
     19  N1A       55.8270   -9.0110    7.2760 N.2   353  NAP353      0.0021
     20  C2A       54.5870   -8.7130    7.6870 C.3   353  NAP353      0.5254
     21  N3A       54.2900   -8.5570    8.9800 N.2   353  NAP353     -0.0055
     22  C4A       55.2510   -8.6910    9.9190 C.2   353  NAP353      0.3518
     23  O3        53.0810   -4.5240   17.7600 O.3   353  NAP353     -0.2703
     24  PN        52.4720   -3.0490   17.4930 P.3   353  NAP353      0.2189
     25  O1N       52.4590   -2.3140   18.7850 O.3   353  NAP353     -0.4371
     26  O2N       51.1730   -3.2030   16.7810 O.2   353  NAP353     -0.5170
     27  O5D       53.5420   -2.3330   16.5210 O.3   353  NAP353     -0.3112
     28  C5D       53.2360   -1.0930   15.8610 C.3   353  NAP353      0.1813
     29  C4D       54.4910   -0.4260   15.3130 C.3   353  NAP353      0.1799
     30  O4D       54.2000    0.9790   15.1430 O.3   353  NAP353     -0.3327
     31  C3D       55.6580   -0.4620   16.2900 C.3   353  NAP353      0.2158
     32  O3D       56.9310   -0.2960   15.6430 O.3   353  NAP353     -0.2175
     33  C2D       55.3550    0.7060   17.2140 C.3   353  NAP353      0.2309
     34  O2D       56.5950    1.1520   17.7750 O.3   353  NAP353     -0.2158
     35  C1D       54.7690    1.7240   16.2450 C.3   353  NAP353      0.2263
     36  N1N       53.8310    2.6330   16.9460 N.pl3 353  NAP353     -0.2787
     37  C2N       54.3110    3.8050   17.5660 C.3   353  NAP353      0.1244
     38  C3N       53.4260    4.6370   18.2560 C.2   353  NAP353      0.0544
     39  C7N       53.8940    5.8990   18.9840 C.2   353  NAP353      0.2818
     40  O7N       53.1280    6.4790   19.7480 O.2   353  NAP353     -0.2670
     41  N7N       55.1330    6.3070   18.7550 N.am  353  NAP353     -0.0839
     42  C4N       52.0770    4.2940   18.3120 C.2   353  NAP353      0.0033
     43  C5N       51.5950    3.1400   17.7000 C.2   353  NAP353      0.0157
     44  C6N       52.4690    2.3040   17.0130 C.2   353  NAP353      0.0633
     45  P2B       53.1920  -11.6430   14.2420 P.3   353  NAP353      0.5328
     46  O1X       54.4020  -12.4710   14.0420 O.3   353  NAP353     -0.1145
     47  O2X       51.9150  -12.3250   13.9110 O.2   353  NAP353     -0.2224
     48  O3X       53.1710  -10.8790   15.5090 O.3   353  NAP353     -0.1145
@<TRIPOS>BOND
     1    19    20    1
     2    19    17    2
     3    20    21    1
     4    18    17    1
     5    17    16    1
     6    21    22    2
     7    16    22    1
     8    16    15    2
     9    22    13    1
    10    15    14    1
    11    13    14    1
    12    13    12    1
    13     7    12    1
    14     7     6    1
    15    12    10    1
    16    11    10    1
    17    11    45    1
    18    10     8    1
    19     9     8    1
    20     6     8    1
    21     6     5    1
    22    47    45    2
    23    46    45    1
    24    45    48    1
    25     5     4    1
    26    30    29    1
    27    30    35    1
    28    29    28    1
    29    29    31    1
    30     4     1    1
    31    32    31    1
    32    28    27    1
    33    35    36    1
    34    35    33    1
    35    31    33    1
    36    27    24    1
    37    26    24    2
    38     2     1    2
    39    36    44    1
    40    36    37    1
    41     1     3    1
    42     1    23    1
    43    44    43    2
    44    33    34    1
    45    24    23    1
    46    24    25    1
    47    37    38    1
    48    43    42    1
    49    38    42    2
    50    38    39    1
    51    41    39   am
    52    39    40    2
