@<TRIPOS>MOLECULE
1ykg_FMN_A_1.pdb
 50 52 0 0 0
SMALL
GASTEIGER

@<TRIPOS>ATOM
      1  N1         8.4480   13.2450   -2.5690 N.2   300  FMN300     -0.3025
      2  C2         9.1090   12.8490   -3.6850 C.1   300  FMN300      0.2727
      3  O2         8.5280   12.2960   -4.6100 O.2   300  FMN300     -0.1927
      4  N3        10.4620   13.0430   -3.7900 N.am  300  FMN300     -0.1956
      5  C4        11.2710   13.6720   -2.8620 C.2   300  FMN300      0.2930
      6  O4        12.4760   13.7730   -3.0970 O.2   300  FMN300     -0.2661
      7  C4A       10.5850   14.1210   -1.6610 C.2   300  FMN300      0.2298
      8  N5        11.2590   14.7540   -0.6130 N.2   300  FMN300     -0.3963
      9  C5A       10.5600   15.1450    0.4840 C.2   300  FMN300      0.1216
     10  C6        11.2970   15.8300    1.4650 C.3   300  FMN300      0.0486
     11  C7        10.6850   16.2510    2.6570 C.2   300  FMN300     -0.0588
     12  C7M       11.5080   16.9900    3.6950 C.3   300  FMN300     -0.0426
     13  C8         9.3180   15.9830    2.8670 C.2   300  FMN300     -0.0489
     14  C8M        8.6090   16.4100    4.1400 C.3   300  FMN300     -0.0397
     15  C9         8.5700   15.3340    1.8670 C.2   300  FMN300     -0.0346
     16  C9A        9.1630   14.8880    0.6620 C.2   300  FMN300      0.0704
     17  N10        8.4470   14.2050   -0.3120 N.pl3 300  FMN300     -0.2669
     18  C10        9.1250   13.8650   -1.5190 C.2   300  FMN300      0.2351
     19  C1'        7.0700   13.6630   -0.1130 C.3   300  FMN300      0.0482
     20  C2'        6.0300   14.6240   -0.6810 C.3   300  FMN300      0.0996
     21  O2'        6.1470   14.6300   -2.0890 O.3   300  FMN300     -0.3876
     22  C3'        4.5740   14.2140   -0.4140 C.3   300  FMN300      0.1104
     23  O3'        4.3230   13.0460   -1.1510 O.3   300  FMN300     -0.3865
     24  C4'        4.1590   14.0630    1.0770 C.3   300  FMN300      0.1073
     25  O4'        2.8740   14.6170    1.2610 O.3   300  FMN300     -0.3868
     26  C5'        4.0900   12.6140    1.6090 C.3   300  FMN300      0.0876
     27  O5'        3.4630   12.5770    2.8920 O.3   300  FMN300     -0.2809
     28  P          3.4930   11.2340    3.8070 P.3   300  FMN300      0.5320
     29  O1P        4.9270   11.1060    4.1340 O.3   300  FMN300     -0.1145
     30  O2P        2.6400   11.5630    4.9610 O.3   300  FMN300     -0.1145
     31  O3P        2.9380   10.1910    2.9200 O.2   300  FMN300     -0.2224
     32  HN3       10.9390   12.5910   -4.5590 H     300  FMN300      0.1693
     33  H6        12.3430   16.0340    1.2960 H     300  FMN300      0.0430
     34 HM71       11.6000   16.3790    4.5930 H     300  FMN300      0.0275
     35 HM72       12.5080   17.2020    3.3160 H     300  FMN300      0.0275
     36 HM73       11.0240   17.9350    3.9440 H     300  FMN300      0.0275
     37 HM81        9.3040   16.5400    4.9680 H     300  FMN300      0.0278
     38 HM82        7.8820   15.6500    4.4290 H     300  FMN300      0.0278
     39 HM83        8.0860   17.3500    3.9630 H     300  FMN300      0.0278
     40  H9         7.5150   15.2090    2.0410 H     300  FMN300      0.0640
     41 H1'1        6.9620   12.6910   -0.5950 H     300  FMN300      0.0495
     42 H1'2        6.8850   13.4880    0.9430 H     300  FMN300      0.0495
     43  H2'        6.2270   15.6270   -0.2880 H     300  FMN300      0.0636
     44 HO2'        6.9910   14.2090   -2.3350 H     300  FMN300      0.2100
     45  H3'        3.9880   15.0040   -0.8850 H     300  FMN300      0.0646
     46 HO3'        4.6900   13.2100   -2.0270 H     300  FMN300      0.2100
     47  H4'        4.8730   14.6360    1.6770 H     300  FMN300      0.0643
     48 HO4'        2.5330   14.2680    2.0900 H     300  FMN300      0.2100
     49 H5'1        3.4970   11.9940    0.9370 H     300  FMN300      0.0592
     50 H5'2        5.0990   12.2060    1.6690 H     300  FMN300      0.0592
@<TRIPOS>BOND
     1     3     2    2
     2    32     4    1
     3     4     2   am
     4     4     5   am
     5     2     1    2
     6     6     5    2
     7     5     7    1
     8     1    18    2
     9    44    21    1
    10    21    20    1
    11    46    23    1
    12     7    18    1
    13     7     8    2
    14    18    17    1
    15    23    22    1
    16    45    22    1
    17    20    22    1
    18    20    43    1
    19    20    19    1
    20     8     9    2
    21    41    19    1
    22    22    24    1
    23    17    19    1
    24    17    16    1
    25    19    42    1
    26     9    16    1
    27     9    10    1
    28    16    15    2
    29    49    26    1
    30    24    25    1
    31    24    26    1
    32    24    47    1
    33    25    48    1
    34    33    10    1
    35    10    11    1
    36    26    50    1
    37    26    27    1
    38    15    40    1
    39    15    13    1
    40    11    13    2
    41    11    12    1
    42    13    14    1
    43    27    28    1
    44    31    28    2
    45    35    12    1
    46    12    36    1
    47    12    34    1
    48    28    29    1
    49    28    30    1
    50    39    14    1
    51    14    38    1
    52    14    37    1
