@<TRIPOS>MOLECULE
1yki_NFZ_A_1.pdb
 14 14 0 0 0
SMALL
GASTEIGER

@<TRIPOS>ATOM
      1  O4         5.1800    6.7080   49.6260 O.2   1219  NFZ1219    -0.2455
      2  C6         5.7400    6.9480   48.5860 C.2   1219  NFZ1219     0.3804
      3  N4         6.8590    7.6750   48.5100 N.am  1219  NFZ1219    -0.0663
      4  N3         5.1920    6.4490   47.4950 N.am  1219  NFZ1219    -0.0591
      5  N2         5.5170    6.8550   46.2980 N.2   1219  NFZ1219    -0.1499
      6  C5         4.8170    6.4240   45.3340 C.2   1219  NFZ1219     0.1571
      7  C3         5.1430    6.9010   44.0030 C.ar  1219  NFZ1219     0.1681
      8  C4         4.4740    6.6680   42.8640 C.ar  1219  NFZ1219     0.0442
      9  C2         5.1810    7.3790   41.8180 C.ar  1219  NFZ1219     0.0661
     10  O3         6.2800    7.7650   43.8140 O.2   1219  NFZ1219    -0.4312
     11  C1         6.2270    7.9930   42.3980 C.ar  1219  NFZ1219     0.2889
     12  N1         7.1330    8.7440   41.8060 N.pl3 1219  NFZ1219     0.0932
     13  O1         7.0130    9.0810   40.4640 O.2   1219  NFZ1219    -0.1230
     14  O2         8.0730    9.1480   42.4760 O.2   1219  NFZ1219    -0.1230
@<TRIPOS>BOND
     1    13    12    2
     2    12    11    1
     3    12    14    2
     4     9    11   ar
     5     9     8   ar
     6    11    10   ar
     7     8     7   ar
     8    10     7   ar
     9     7     6    1
    10     6     5    2
    11     5     4    1
    12     4     2   am
    13     3     2   am
    14     2     1    2
