@<TRIPOS>MOLECULE
1yki_FMN_A_1.pdb
 31 33 0 0 0
SMALL
GASTEIGER

@<TRIPOS>ATOM
      1  N1         2.3510    8.4450   47.5660 N.2   1218  FMN1218    -0.2890
      2  C2         2.5780    8.6000   46.2450 C.1   1218  FMN1218     0.3669
      3  O2         1.7920    8.0480   45.4280 O.2   1218  FMN1218    -0.1744
      4  N3         3.6220    9.3570   45.8110 N.2   1218  FMN1218    -0.2300
      5  C4         4.4570    9.9450   46.6960 C.1   1218  FMN1218     0.2513
      6  O4         5.4260   10.6020   46.2550 O.2   1218  FMN1218    -0.2057
      7  C4A        4.2200    9.8020   48.0700 C.2   1218  FMN1218     0.2700
      8  N5         5.0350   10.3550   48.9990 N.2   1218  FMN1218    -0.3878
      9  C5A        4.7160   10.3080   50.3220 C.2   1218  FMN1218     0.1320
     10  C6         5.3550   11.1510   51.2310 C.2   1218  FMN1218     0.0250
     11  C7         4.9720   11.2140   52.5710 C.2   1218  FMN1218    -0.0238
     12  C7M        5.7010   12.1000   53.5360 C.3   1218  FMN1218     0.0308
     13  C8         3.9070   10.4410   53.0050 C.2   1218  FMN1218    -0.0280
     14  C8M        3.4380   10.4650   54.4320 C.3   1218  FMN1218     0.0304
     15  C9         3.2480    9.6380   52.0950 C.2   1218  FMN1218    -0.0041
     16  C9A        3.6490    9.5450   50.7570 C.3   1218  FMN1218     0.1497
     17  N10        2.8880    8.8220   49.8150 N.pl3 1218  FMN1218    -0.2691
     18  C10        3.1370    9.0310   48.4940 C.2   1218  FMN1218     0.2416
     19  C1'        1.7090    8.0220   50.2350 C.3   1218  FMN1218     0.1294
     20  C2'        2.1330    6.8060   51.1060 C.3   1218  FMN1218     0.2044
     21  O2'        2.6050    5.6850   50.3420 O.3   1218  FMN1218    -0.2185
     22  C3'        0.9780    6.4010   52.0230 C.3   1218  FMN1218     0.2164
     23  O3'        0.7750    7.4560   52.9730 O.3   1218  FMN1218    -0.2175
     24  C4'        1.1840    5.1070   52.7950 C.3   1218  FMN1218     0.2147
     25  O4'        1.3510    3.9930   51.9160 O.3   1218  FMN1218    -0.2176
     26  C5'        0.0040    4.8260   53.7260 C.3   1218  FMN1218     0.1892
     27  O5'       -1.2190    4.7500   52.9950 O.3   1218  FMN1218    -0.2674
     28  P         -2.4320    5.8070   53.1760 P.3   1218  FMN1218     0.5327
     29  O1P       -3.4320    5.3960   52.1010 O.2   1218  FMN1218    -0.2224
     30  O2P       -1.8660    7.1980   52.9650 O.3   1218  FMN1218    -0.1145
     31  O3P       -2.9560    5.6300   54.5810 O.3   1218  FMN1218    -0.1145
@<TRIPOS>BOND
     1     3     2    2
     2     4     2    2
     3     4     5    2
     4     2     1    2
     5     6     5    2
     6     5     7    1
     7     1    18    2
     8     7    18    1
     9     7     8    2
    10    18    17    1
    11     8     9    2
    12    17    19    1
    13    17    16    1
    14    19    20    1
    15     9    16    1
    16     9    10    1
    17    21    20    1
    18    16    15    1
    19    20    22    1
    20    10    11    2
    21    25    24    1
    22    22    24    1
    23    22    23    1
    24    15    13    2
    25    29    28    2
    26    11    13    1
    27    11    12    1
    28    24    26    1
    29    30    28    1
    30    27    28    1
    31    27    26    1
    32    13    14    1
    33    28    31    1
