@<TRIPOS>MOLECULE
1ykj_PHB_A_1.pdb
 10 10 0 0 0
SMALL
GASTEIGER

@<TRIPOS>ATOM
      1  C1'       51.2180   65.0490  -60.1500 C.2   1396  PHB1396     0.3878
      2  O1'       52.2160   65.5100  -60.8220 O.co2 1396  PHB1396    -0.2406
      3  O2'       50.1760   64.5640  -60.6860 O.co2 1396  PHB1396    -0.2406
      4  C1        51.1560   65.0950  -58.6990 C.ar  1396  PHB1396     0.0800
      5  C2        52.2270   65.6380  -58.0330 C.ar  1396  PHB1396     0.0099
      6  C3        52.3420   65.5940  -56.6260 C.ar  1396  PHB1396     0.0422
      7  C4        51.3590   65.0050  -55.9050 C.ar  1396  PHB1396     0.1958
      8  C5        50.2270   64.4180  -56.5400 C.ar  1396  PHB1396     0.0422
      9  C6        50.1040   64.4560  -57.9640 C.ar  1396  PHB1396     0.0099
     10  O4        51.4850   65.1010  -54.5320 O.3   1396  PHB1396    -0.2866
@<TRIPOS>BOND
     1     2     1   ar
     2     3     1   ar
     3     1     4    1
     4     4     5   ar
     5     4     9   ar
     6     5     6   ar
     7     9     8   ar
     8     6     7   ar
     9     8     7   ar
    10     7    10    1
