@<TRIPOS>MOLECULE
1ykl_DHB_B_1.pdb
 11 11 0 0 0
SMALL
GASTEIGER

@<TRIPOS>ATOM
      1  C1        24.2670   12.3340   35.9270 C.ar  550  DHB550      0.0832
      2  C2        24.6410   11.1310   35.3420 C.ar  550  DHB550      0.0520
      3  C3        24.0000    9.9520   35.7070 C.ar  550  DHB550      0.2345
      4  O3        24.3650    8.7410   35.1260 O.3   550  DHB550     -0.2831
      5  C4        22.9940    9.9660   36.6390 C.ar  550  DHB550      0.2343
      6  O4        22.3650    8.7820   36.9800 O.3   550  DHB550     -0.2831
      7  C5        22.6150   11.1620   37.2290 C.ar  550  DHB550      0.0456
      8  C6        23.2510   12.3450   36.8720 C.ar  550  DHB550      0.0101
      9  C         24.9350   13.5710   35.5470 C.2   550  DHB550      0.3879
     10  O1        25.8390   13.5520   34.6960 O.co2 550  DHB550     -0.2406
     11  O2        24.6130   14.6570   36.0630 O.co2 550  DHB550     -0.2406
@<TRIPOS>BOND
     1    10     9   ar
     2     4     3    1
     3     2     3   ar
     4     2     1   ar
     5     9     1    1
     6     9    11   ar
     7     3     5   ar
     8     1     8   ar
     9     5     6    1
    10     5     7   ar
    11     8     7   ar
