@<TRIPOS>MOLECULE
1ykp_DHB_A_1.pdb
 11 11 0 0 0
SMALL
GASTEIGER

@<TRIPOS>ATOM
      1  C1        24.7270   12.3130   35.9490 C.ar  550  DHB550      0.0832
      2  C2        24.9330   11.2080   35.1700 C.ar  550  DHB550      0.0520
      3  C3        24.4120    9.9820   35.5680 C.ar  550  DHB550      0.2345
      4  O3        24.5840    8.8630   34.7860 O.3   550  DHB550     -0.2831
      5  C4        23.7010    9.8770   36.7550 C.ar  550  DHB550      0.2343
      6  O4        23.1680    8.6460   37.1340 O.3   550  DHB550     -0.2831
      7  C5        23.5010   11.0060   37.5450 C.ar  550  DHB550      0.0456
      8  C6        24.0140   12.2150   37.1460 C.ar  550  DHB550      0.0101
      9  C         25.2720   13.5910   35.5410 C.2   550  DHB550      0.3879
     10  O1        25.9050   13.6700   34.4770 O.co2 550  DHB550     -0.2406
     11  O2        25.1140   14.6160   36.2490 O.co2 550  DHB550     -0.2406
@<TRIPOS>BOND
     1    10     9   ar
     2     4     3    1
     3     2     3   ar
     4     2     1   ar
     5     9     1    1
     6     9    11   ar
     7     3     5   ar
     8     1     8   ar
     9     5     6    1
    10     5     7   ar
    11     8     7   ar
