@<TRIPOS>MOLECULE
1ykr_628_A_1.pdb
 30 33 0 0 0
SMALL
GASTEIGER

@<TRIPOS>ATOM
      1  C1        -1.2410   31.4100    9.7620 C.2   299  628299      0.0540
      2  C2        -0.5560   30.3480    9.1260 C.2   299  628299      0.0709
      3  N3         0.4010   30.5900    8.2500 N.pl3 299  628299     -0.2531
      4  C4         0.7650   31.8510    7.8860 C.2   299  628299      0.1888
      5  C5         0.1480   33.0090    8.4460 C.2   299  628299      0.0482
      6  C6        -0.8890   32.7610    9.4030 C.2   299  628299      0.0085
      7  C10        1.0960   29.6550    7.5990 C.3   299  628299      0.1745
      8  C11        1.9670   30.4360    6.8060 C.2   299  628299      0.2022
      9  N12        1.7880   31.7880    6.9660 N.2   299  628299     -0.3727
     10  S1         6.9510   25.4950    7.4530 S.O2  299  628299      0.0935
     11  C14        5.7450   26.7150    7.0990 C.ar  299  628299      0.1251
     12  C15        5.6520   27.1910    5.7520 C.ar  299  628299      0.0213
     13  C16        4.7040   28.1660    5.4230 C.ar  299  628299      0.0180
     14  C17        3.8370   28.6750    6.4330 C.ar  299  628299      0.0729
     15  C18        3.9300   28.1940    7.8030 C.ar  299  628299      0.0180
     16  C19        4.8930   27.2040    8.1400 C.ar  299  628299      0.0213
     17  C23       -2.2950   31.1080   10.7750 C.2   299  628299      0.1984
     18  C24       -2.4620   29.6710   11.2620 C.ar  299  628299      0.0601
     19  C25       -1.4430   28.9950   12.1060 C.ar  299  628299      0.0615
     20  C26       -1.6360   27.6710   12.5460 C.ar  299  628299      0.0115
     21  C27       -2.7880   26.9430   12.1700 C.ar  299  628299      0.0017
     22  C28       -3.7930   27.5370   11.3550 C.ar  299  628299      0.0115
     23  C29       -3.6400   28.8750   10.8850 C.ar  299  628299      0.0615
     24  O33       -3.0090   31.9910   11.2560 O.2   299  628299     -0.2865
     25  O34        7.5810   25.1800    6.1970 O.2   299  628299     -0.1503
     26  N35        2.8940   29.6640    5.9640 N.pl3 299  628299     -0.1858
     27 CL2        -0.3020   29.6390   12.5070 Cl    299  628299     -0.0821
     28 CL1        -4.6260   29.4180   10.1010 Cl    299  628299     -0.0821
     29  N1         6.2290   24.1310    7.9880 N.3   299  628299      0.0392
     30  O1         7.7810   25.9560    8.5380 O.2   299  628299     -0.1503
@<TRIPOS>BOND
     1    13    12   ar
     2    13    14   ar
     3    12    11   ar
     4    26    14    1
     5    26     8    1
     6    25    10    2
     7    14    15   ar
     8     8     9    2
     9     8     7    1
    10     9     4    2
    11    11    10    1
    12    11    16   ar
    13    10    29    1
    14    10    30    2
    15     7     3    1
    16    15    16   ar
    17     4     3    1
    18     4     5    1
    19     3     2    1
    20     5     6    2
    21     2     1    2
    22     6     1    1
    23     1    17    1
    24    28    23    1
    25    17    24    2
    26    17    18    1
    27    23    18   ar
    28    23    22   ar
    29    18    19   ar
    30    22    21   ar
    31    19    27    1
    32    19    20   ar
    33    21    20   ar
