@<TRIPOS>MOLECULE
1yl7_NAD_A_1.pdb
 44 48 0 0 0
SMALL
GASTEIGER

@<TRIPOS>ATOM
      1  PA       111.8030  -12.5070   12.6050 P.3   501  NAD501      0.2189
      2  O1A      111.7280  -11.3360   11.7130 O.2   501  NAD501     -0.5170
      3  O2A      112.3840  -13.6810   11.9080 O.3   501  NAD501     -0.4371
      4  O5B      112.6090  -12.1230   13.9440 O.3   501  NAD501     -0.3112
      5  C5B      113.0150  -13.1330   14.8450 C.3   501  NAD501      0.1813
      6  C4B      114.3090  -12.6730   15.5040 C.3   501  NAD501      0.1821
      7  O4B      114.6160  -13.5140   16.6020 O.3   501  NAD501     -0.3135
      8  C3B      115.5180  -12.7040   14.5580 C.3   501  NAD501      0.2184
      9  O3B      116.2230  -11.4860   14.6650 O.3   501  NAD501     -0.2174
     10  C2B      116.3700  -13.8390   15.0900 C.3   501  NAD501      0.2570
     11  O2B      117.7580  -13.7010   14.8370 O.3   501  NAD501     -0.2130
     12  C1B      116.0190  -13.7510   16.5700 C.3   501  NAD501      0.3186
     13  N9A      116.4360  -14.9300   17.3510 N.pl3 501  NAD501     -0.1439
     14  C8A      116.5180  -16.2340   16.9300 C.3   501  NAD501      0.3377
     15  N7A      116.9540  -16.9710   17.9710 N.2   501  NAD501     -0.2095
     16  C5A      117.1470  -16.1710   19.0470 C.2   501  NAD501      0.2526
     17  C6A      117.5710  -16.4130   20.3540 C.2   501  NAD501      0.4393
     18  N6A      117.9200  -17.6290   20.7410 N.pl3 501  NAD501      0.2180
     19  N1A      117.6760  -15.3640   21.2500 N.2   501  NAD501      0.0021
     20  C2A      117.3410  -14.0840   20.8490 C.3   501  NAD501      0.5254
     21  N3A      116.9110  -13.8540   19.5490 N.2   501  NAD501     -0.0055
     22  C4A      116.8230  -14.8800   18.6640 C.2   501  NAD501      0.3518
     23  O3       110.3560  -12.9480   13.1340 O.3   501  NAD501     -0.2703
     24  PN       109.1740  -11.9260   13.4920 P.3   501  NAD501      0.2189
     25  O1N      108.4020  -11.8440   12.2280 O.2   501  NAD501     -0.5170
     26  O2N      109.7170  -10.7460   14.2190 O.3   501  NAD501     -0.4371
     27  O5D      108.3160  -12.7570   14.5660 O.3   501  NAD501     -0.3112
     28  C5D      108.8980  -13.5890   15.5520 C.3   501  NAD501      0.1813
     29  C4D      107.8330  -14.5540   16.1000 C.3   501  NAD501      0.1799
     30  O4D      106.6890  -13.8200   16.5500 O.3   501  NAD501     -0.3327
     31  C3D      107.3470  -15.5370   15.0320 C.3   501  NAD501      0.2158
     32  O3D      107.1700  -16.8010   15.6160 O.3   501  NAD501     -0.2175
     33  C2D      106.0080  -14.9730   14.5880 C.3   501  NAD501      0.2309
     34  O2D      105.0800  -15.9320   14.1370 O.3   501  NAD501     -0.2158
     35  C1D      105.5350  -14.3120   15.8780 C.3   501  NAD501      0.2263
     36  N1N      104.5100  -13.1710   15.6940 N.pl3 501  NAD501     -0.2787
     37  C2N      103.5310  -13.1030   16.6650 C.3   501  NAD501      0.1244
     38  C3N      102.6120  -12.0460   16.6860 C.2   501  NAD501      0.0544
     39  C7N      101.6110  -11.9870   17.7500 C.2   501  NAD501      0.2818
     40  O7N      100.6720  -10.9690   17.7480 O.2   501  NAD501     -0.2670
     41  N7N      101.5580  -12.9060   18.6530 N.am  501  NAD501     -0.0839
     42  C4N      102.6870  -11.0400   15.6880 C.2   501  NAD501      0.0033
     43  C5N      103.6880  -11.1150   14.7150 C.2   501  NAD501      0.0157
     44  C6N      104.6010  -12.1950   14.7160 C.2   501  NAD501      0.0633
@<TRIPOS>BOND
     1     2     1    2
     2     3     1    1
     3    25    24    2
     4     1    23    1
     5     1     4    1
     6    23    24    1
     7    24    26    1
     8    24    27    1
     9     4     5    1
    10    34    33    1
    11     8     9    1
    12     8    10    1
    13     8     6    1
    14    27    28    1
    15    33    31    1
    16    33    35    1
    17    43    44    2
    18    43    42    1
    19    44    36    1
    20    11    10    1
    21     5     6    1
    22    31    32    1
    23    31    29    1
    24    10    12    1
    25     6     7    1
    26    28    29    1
    27    42    38    2
    28    36    35    1
    29    36    37    1
    30    35    30    1
    31    29    30    1
    32    12     7    1
    33    12    13    1
    34    37    38    1
    35    38    39    1
    36    14    13    1
    37    14    15    1
    38    13    22    1
    39    40    39    2
    40    39    41   am
    41    15    16    2
    42    22    16    1
    43    22    21    2
    44    16    17    1
    45    21    20    1
    46    17    18    1
    47    17    19    2
    48    20    19    1
