@<TRIPOS>MOLECULE
1ylh_DT3_A_1.pdb
 11 10 0 0 0
SMALL
GASTEIGER

@<TRIPOS>ATOM
      1  C2         7.2880    8.4670   -2.9610 C.3   592  DT3592      0.1953
      2  O2         5.4870    9.7270   -1.8780 O.3   592  DT3592     -0.2186
      3  C3         6.4600    9.7850   -2.9590 C.3   592  DT3592      0.2027
      4  O3         6.4150    7.3890   -3.3900 O.3   592  DT3592     -0.2194
      5  C4         5.7270    9.9500   -4.2920 C.3   592  DT3592      0.1407
      6  S2         5.0280   11.5870   -4.4710 S.3   592  DT3592     -0.1934
      7  O4         4.3100   11.5970   -5.8900 O.3   592  DT3592     -0.3074
      8  O5         3.9510   11.8370   -3.2520 O.3   592  DT3592     -0.3074
      9  O6         6.2170   12.6400   -4.4030 O.3   592  DT3592     -0.3074
     10  C1         7.9000    8.0750   -1.5890 C.3   592  DT3592      0.1042
     11  S1         8.8050    6.5990   -1.8170 S.3   592  DT3592     -0.0793
@<TRIPOS>BOND
     1     7     6    1
     2     6     9    1
     3     6     5    1
     4     6     8    1
     5     5     3    1
     6     4     1    1
     7     1     3    1
     8     1    10    1
     9     3     2    1
    10    11    10    1
