@<TRIPOS>MOLECULE
1yli_COA_A_1.pdb
 48 50 0 0 0
SMALL
GASTEIGER

@<TRIPOS>ATOM
      1  N1A      -24.2660  -20.0650   14.2220 N.2   157  COA157      0.0021
      2  C2A      -23.7730  -21.3390   14.0800 C.3   157  COA157      0.5254
      3  N3A      -24.3340  -22.1840   13.1690 N.2   157  COA157     -0.0055
      4  C4A      -25.3490  -21.7340   12.4010 C.2   157  COA157      0.3518
      5  C5A      -25.8580  -20.4560   12.5460 C.2   157  COA157      0.2526
      6  C6A      -25.2930  -19.6000   13.4650 C.2   157  COA157      0.4393
      7  N6A      -25.8070  -18.4080   13.7310 N.pl3 157  COA157      0.2180
      8  N7A      -26.8800  -20.3020   11.6940 N.2   157  COA157     -0.2095
      9  C8A      -27.0100  -21.4580   10.9980 C.3   157  COA157      0.3377
     10  N9A      -26.0730  -22.3550   11.4390 N.pl3 157  COA157     -0.1439
     11  C1B      -25.8480  -23.7290   10.9540 C.3   157  COA157      0.3185
     12  C2B      -27.0940  -24.5970   11.0190 C.3   157  COA157      0.2543
     13  O2B      -27.3800  -25.1060   12.3020 O.3   157  COA157     -0.2131
     14  C3B      -26.7150  -25.6670   10.0140 C.3   157  COA157      0.1928
     15  O3B      -25.7720  -26.5520   10.5820 O.3   157  COA157     -0.2673
     16  P3B      -25.6030  -28.0860   10.1400 P.3   157  COA157      0.5327
     17  O7A      -26.6880  -28.8340   10.8990 O.3   157  COA157     -0.1145
     18  O8A      -24.2670  -28.6330   10.5170 O.3   157  COA157     -0.1145
     19  O9A      -25.9000  -28.2820    8.6760 O.2   157  COA157     -0.2224
     20  C4B      -25.9690  -24.8660    8.9560 C.3   157  COA157      0.1795
     21  O4B      -25.5580  -23.6850    9.5890 O.3   157  COA157     -0.3136
     22  C5B      -26.8450  -24.5650    7.7420 C.3   157  COA157      0.1812
     23  O5B      -28.0780  -24.0490    8.2100 O.3   157  COA157     -0.3112
     24  P1A      -29.2930  -23.9790    7.1870 P.3   157  COA157      0.2189
     25  O1A      -30.5930  -23.9710    7.9530 O.3   157  COA157     -0.4371
     26  O2A      -29.1850  -25.0890    6.1690 O.2   157  COA157     -0.5170
     27  O3A      -29.0560  -22.6600    6.2840 O.3   157  COA157     -0.2703
     28  P2A      -29.5630  -21.2220    6.7230 P.3   157  COA157      0.2188
     29  O4A      -29.5520  -21.3090    8.2350 O.3   157  COA157     -0.4371
     30  O5A      -30.9230  -20.8780    6.1540 O.2   157  COA157     -0.5170
     31  O6A      -28.4020  -20.2880    6.1230 O.3   157  COA157     -0.3138
     32  CBP      -26.2210  -19.6030    5.5040 C.3   157  COA157      0.0645
     33  CCP      -27.0330  -20.4870    6.4340 C.3   157  COA157      0.1519
     34  CDP      -24.7780  -19.5620    6.0450 C.3   157  COA157      0.0056
     35  CEP      -26.3010  -20.2850    4.1410 C.3   157  COA157      0.0056
     36  CAP      -26.8250  -18.1780    5.4730 C.3   157  COA157      0.2312
     37  OAP      -26.9560  -17.7800    6.8180 O.3   157  COA157     -0.2131
     38  C9P      -25.9170  -17.2140    4.7390 C.2   157  COA157      0.2719
     39  O9P      -25.7890  -17.3300    3.3370 O.2   157  COA157     -0.2706
     40  N8P      -25.2380  -16.3100    5.4560 N.am  157  COA157     -0.2028
     41  C7P      -24.2100  -15.4350    4.8890 C.3   157  COA157      0.1248
     42  C6P      -22.8920  -16.1780    4.7540 C.3   157  COA157      0.1102
     43  C5P      -21.8430  -15.3030    4.1190 C.2   157  COA157      0.2432
     44  O5P      -21.9040  -15.0540    2.9060 O.2   157  COA157     -0.2733
     45  N4P      -20.8640  -14.8970    4.9360 N.am  157  COA157     -0.2044
     46  C3P      -19.7120  -14.1500    4.4730 C.3   157  COA157      0.1276
     47  C2P      -19.6500  -12.7810    5.1220 C.3   157  COA157      0.0920
     48  S1P      -21.0460  -11.7690    4.6070 S.3   157  COA157     -0.0802
@<TRIPOS>BOND
     1    44    43    2
     2    39    38    2
     3    43    42    1
     4    43    45   am
     5    35    32    1
     6    46    45    1
     7    46    47    1
     8    48    47    1
     9    38    40   am
    10    38    36    1
    11    42    41    1
    12    41    40    1
    13    36    32    1
    14    36    37    1
    15    32    34    1
    16    32    33    1
    17    31    33    1
    18    31    28    1
    19    30    28    2
    20    26    24    2
    21    27    28    1
    22    27    24    1
    23    28    29    1
    24    24    25    1
    25    24    23    1
    26    22    23    1
    27    22    20    1
    28    19    16    2
    29    20    21    1
    30    20    14    1
    31    21    11    1
    32    14    15    1
    33    14    12    1
    34    16    18    1
    35    16    15    1
    36    16    17    1
    37    11    12    1
    38    11    10    1
    39     9    10    1
    40     9     8    1
    41    12    13    1
    42    10     4    1
    43     8     5    2
    44     4     5    1
    45     4     3    2
    46     5     6    1
    47     3     2    1
    48     6     7    1
    49     6     1    2
    50     2     1    1
