@<TRIPOS>MOLECULE
1ylr_FMN_A_1.pdb
 31 33 0 0 0
SMALL
GASTEIGER

@<TRIPOS>ATOM
      1  N1         8.8630   -5.0270   15.9170 N.2   1218  FMN1218    -0.2887
      2  C2         7.6070   -4.8530   15.4690 C.1   1218  FMN1218     0.3669
      3  O2         6.6960   -5.4290   16.0670 O.2   1218  FMN1218    -0.1744
      4  N3         7.3290   -4.0380   14.4090 N.2   1218  FMN1218    -0.2300
      5  C4         8.3280   -3.4180   13.7740 C.1   1218  FMN1218     0.2513
      6  O4         8.0500   -2.6870   12.7850 O.2   1218  FMN1218    -0.2057
      7  C4A        9.6490   -3.5750   14.2380 C.2   1218  FMN1218     0.2703
      8  N5        10.6880   -2.9660   13.6400 N.2   1218  FMN1218    -0.3882
      9  C5A       11.9200   -3.0430   14.1800 C.2   1218  FMN1218     0.1277
     10  C6        12.8990   -2.1210   13.7970 C.3   1218  FMN1218     0.0820
     11  C7        14.1560   -2.0630   14.4220 C.2   1218  FMN1218    -0.0408
     12  C7M       15.2180   -1.0930   13.9540 C.3   1218  FMN1218     0.0265
     13  C8        14.3970   -2.9210   15.4800 C.2   1218  FMN1218    -0.0280
     14  C8M       15.7180   -2.8920   16.2180 C.3   1218  FMN1218     0.0304
     15  C9        13.4040   -3.7910   15.9140 C.2   1218  FMN1218     0.0123
     16  C9A       12.1590   -3.8880   15.2540 C.2   1218  FMN1218     0.0793
     17  N10       11.1410   -4.6640   15.7700 N.pl3 1218  FMN1218    -0.2545
     18  C10        9.8900   -4.4210   15.3350 C.2   1218  FMN1218     0.2449
     19  C1'       11.3450   -5.5450   16.9360 C.3   1218  FMN1218     0.1336
     20  C2'       12.2860   -6.7230   16.5670 C.3   1218  FMN1218     0.2048
     21  O2'       11.5450   -7.8010   15.9700 O.3   1218  FMN1218    -0.2185
     22  C3'       12.9950   -7.2040   17.8480 C.3   1218  FMN1218     0.2165
     23  O3'       13.8770   -6.1860   18.3290 O.3   1218  FMN1218    -0.2175
     24  C4'       13.7510   -8.5280   17.7410 C.3   1218  FMN1218     0.2147
     25  O4'       12.8900   -9.6150   17.4060 O.3   1218  FMN1218    -0.2176
     26  C5'       14.4160   -8.8770   19.0730 C.3   1218  FMN1218     0.1892
     27  O5'       13.4670   -9.0600   20.1460 O.3   1218  FMN1218    -0.2674
     28  P         13.4300   -8.0810   21.4420 P.3   1218  FMN1218     0.5327
     29  O1P       12.2260   -8.5170   22.1850 O.3   1218  FMN1218    -0.1145
     30  O2P       13.4570   -6.6500   20.9300 O.2   1218  FMN1218    -0.2224
     31  O3P       14.7240   -8.4190   22.1890 O.3   1218  FMN1218    -0.1145
@<TRIPOS>BOND
     1     6     5    2
     2     8     9    2
     3     8     7    2
     4     5     7    1
     5     5     4    2
     6    10     9    1
     7    10    11    1
     8    12    11    1
     9     9    16    1
    10     7    18    1
    11     4     2    2
    12    11    13    2
    13    16    17    1
    14    16    15    2
    15    18    17    1
    16    18     1    2
    17     2     1    2
    18     2     3    2
    19    13    15    1
    20    13    14    1
    21    17    19    1
    22    21    20    1
    23    20    19    1
    24    20    22    1
    25    25    24    1
    26    24    22    1
    27    24    26    1
    28    22    23    1
    29    26    27    1
    30    27    28    1
    31    30    28    2
    32    28    29    1
    33    28    31    1
