@<TRIPOS>MOLECULE
1ylu_FMN_A_1.pdb
 30 32 0 0 0
SMALL
GASTEIGER

@<TRIPOS>ATOM
      1  N1        21.9390   10.7190   42.2000 N.2   1218  FMN1218    -0.2887
      2  C2        21.8680   11.6010   41.1710 C.1   1218  FMN1218     0.3669
      3  O2        21.8640   11.1660   39.9930 O.2   1218  FMN1218    -0.1744
      4  N3        21.7840   12.9400   41.3970 N.2   1218  FMN1218    -0.2300
      5  C4        21.7890   13.4070   42.6700 C.1   1218  FMN1218     0.2513
      6  O4        21.7280   14.6440   42.8650 O.2   1218  FMN1218    -0.2057
      7  C4A       21.8720   12.4990   43.7330 C.2   1218  FMN1218     0.2703
      8  N5        21.8790   12.9420   45.0090 N.2   1218  FMN1218    -0.3882
      9  C5A       21.9320   12.0900   46.0590 C.2   1218  FMN1218     0.1277
     10  C6        21.8900   12.5980   47.3640 C.3   1218  FMN1218     0.0820
     11  C7        21.9410   11.7520   48.4640 C.2   1218  FMN1218    -0.0408
     12  C7M       21.9080   12.3080   49.8650 C.3   1218  FMN1218     0.0265
     13  C8        22.0250   10.3850   48.2610 C.2   1218  FMN1218    -0.0280
     14  C8M       22.0670    9.4350   49.4280 C.3   1218  FMN1218     0.0304
     15  C9        22.0650    9.8800   46.9680 C.2   1218  FMN1218     0.0123
     16  C9A       22.0180   10.7230   45.8430 C.2   1218  FMN1218     0.0793
     17  N10       22.0520   10.2350   44.5000 N.pl3 1218  FMN1218    -0.2545
     18  C10       21.9510   11.1270   43.4810 C.2   1218  FMN1218     0.2449
     19  C1'       22.1510    8.7800   44.2400 C.3   1218  FMN1218     0.1336
     20  C2'       23.5530    8.2400   44.6680 C.3   1218  FMN1218     0.2048
     21  O2'       24.5880    8.5490   43.7400 O.3   1218  FMN1218    -0.2185
     22  C3'       23.4720    6.7270   44.9120 C.3   1218  FMN1218     0.2165
     23  O3'       22.8010    6.5510   46.1500 O.3   1218  FMN1218    -0.2175
     24  C4'       24.7850    5.9590   45.0480 C.3   1218  FMN1218     0.2146
     25  O4'       25.5620    5.9970   43.8580 O.3   1218  FMN1218    -0.2176
     26  C5'       24.5090    4.4960   45.4230 C.3   1218  FMN1218     0.1863
     27  O5'       23.7520    3.8380   44.4150 O.3   1218  FMN1218    -0.2925
     28  P         22.2800    3.2080   44.7040 P.3   1218  FMN1218     0.3943
     29  O1P       21.8450    2.8840   43.2970 O.3   1218  FMN1218    -0.1425
     30  O2P       21.4680    4.3640   45.2770 O.3   1218  FMN1218    -0.1425
@<TRIPOS>BOND
     1     3     2    2
     2     2     4    2
     3     2     1    2
     4     4     5    2
     5     1    18    2
     6     5     6    2
     7     5     7    1
     8    29    28    1
     9    18     7    1
    10    18    17    1
    11     7     8    2
    12    21    20    1
    13    25    24    1
    14    19    17    1
    15    19    20    1
    16    27    28    1
    17    27    26    1
    18    17    16    1
    19    20    22    1
    20    28    30    1
    21    22    24    1
    22    22    23    1
    23     8     9    2
    24    24    26    1
    25    16     9    1
    26    16    15    2
    27     9    10    1
    28    15    13    1
    29    10    11    1
    30    13    11    2
    31    13    14    1
    32    11    12    1
