@<TRIPOS>MOLECULE
1yly_CB4_A_1.pdb
 22 22 0 0 0
SMALL
GASTEIGER

@<TRIPOS>ATOM
      1  B         16.8210   55.1110   32.4270 B     2001  CB42001     0.0000
      2  OB1       16.5430   56.2380   33.3500 O.3   2001  CB42001     0.0000
      3  OB2       15.9550   53.9500   32.7970 O.3   2001  CB42001     0.0000
      4  C7        18.3950   54.7180   32.4200 C.3   2001  CB42001     0.0000
      5  N10       18.9010   54.4750   33.7960 N.am  2001  CB42001     0.0000
      6  C11       20.1880   54.4390   34.1330 C.2   2001  CB42001     0.0000
      7  O12       21.0180   54.5350   33.2730 O.2   2001  CB42001     0.0000
      8  C13       20.4050   54.1700   35.6050 C.2   2001  CB42001     0.0000
      9  N16       20.1290   53.0250   36.1580 N.2   2001  CB42001     0.0000
     10  O17       19.5800   52.0430   35.3490 O.2   2001  CB42001     0.0000
     11  C18       19.5380   50.7300   36.0220 C.3   2001  CB42001     0.0000
     12  C14       21.1790   55.1760   36.3730 C.2   2001  CB42001     0.0000
     13  C15       21.8820   56.1810   35.7580 C.3   2001  CB42001     0.0000
     14  S16       22.6110   57.1710   36.9540 S.3   2001  CB42001     0.0000
     15  C17       21.9330   56.1610   38.1610 C.2   2001  CB42001     0.0000
     16  N18       22.1460   56.3590   39.4820 N.pl3 2001  CB42001     0.0000
     17  N19       21.1910   55.1760   37.7290 N.2   2001  CB42001     0.0000
     18  C19       20.9970   50.2750   36.1200 C.3   2001  CB42001     0.0000
     19  C20       18.8490   49.7900   35.0530 C.3   2001  CB42001     0.0000
     20  C21       18.7700   50.8660   37.3150 C.2   2001  CB42001     0.0000
     21  O2A       19.3350   50.3030   38.2900 O.co2 2001  CB42001     0.0000
     22  O2B       17.8370   51.7300   37.4140 O.co2 2001  CB42001     0.0000
@<TRIPOS>BOND
     1     4     1    1
     2     4     5    1
     3     1     3    1
     4     1     2    1
     5     7     6    2
     6     5     6   am
     7     6     8    1
     8    19    11    1
     9    10    11    1
    10    10     9    1
    11     8     9    2
    12     8    12    1
    13    13    12    1
    14    13    14    1
    15    11    18    1
    16    11    20    1
    17    12    17    2
    18    14    15    1
    19    20    22   ar
    20    20    21   ar
    21    17    15    2
    22    15    16    1
