@<TRIPOS>MOLECULE
1ylz_CB4_A_1.pdb
 22 22 0 0 0
SMALL
GASTEIGER

@<TRIPOS>ATOM
      1  B         44.4340   55.1340    9.0040 B     2001  CB42001     0.0000
      2  OB1       44.1640   56.2750    9.9040 O.3   2001  CB42001     0.0000
      3  OB2       43.5650   53.9790    9.4070 O.3   2001  CB42001     0.0000
      4  C7        46.0060   54.7510    8.9850 C.3   2001  CB42001     0.0000
      5  N10       46.5450   54.5410   10.3440 N.am  2001  CB42001     0.0000
      6  C11       47.8160   54.5990   10.7190 C.2   2001  CB42001     0.0000
      7  O12       48.6390   54.6870    9.8520 O.2   2001  CB42001     0.0000
      8  C13       48.0080   54.3380   12.1920 C.2   2001  CB42001     0.0000
      9  N16       47.6450   53.2450   12.7920 N.2   2001  CB42001     0.0000
     10  O17       47.0670   52.2700   12.0130 O.2   2001  CB42001     0.0000
     11  C18       46.9930   50.9570   12.6770 C.3   2001  CB42001     0.0000
     12  C14       48.8550   55.2730   12.9620 C.2   2001  CB42001     0.0000
     13  C15       49.5340   56.2900   12.3380 C.3   2001  CB42001     0.0000
     14  S16       50.2570   57.2620   13.5390 S.3   2001  CB42001     0.0000
     15  C17       49.5260   56.2850   14.7440 C.2   2001  CB42001     0.0000
     16  N18       49.7040   56.4780   16.0630 N.pl3 2001  CB42001     0.0000
     17  N19       48.8980   55.2190   14.3170 N.2   2001  CB42001     0.0000
     18  C19       48.4160   50.3920   12.6160 C.3   2001  CB42001     0.0000
     19  C20       46.1570   50.1230   11.7150 C.3   2001  CB42001     0.0000
     20  C21       46.3370   51.1060   14.0220 C.2   2001  CB42001     0.0000
     21  O2A       46.9420   50.5400   14.9690 O.co2 2001  CB42001     0.0000
     22  O2B       45.3250   51.8620   14.1680 O.co2 2001  CB42001     0.0000
@<TRIPOS>BOND
     1     4     1    1
     2     4     5    1
     3     1     3    1
     4     1     2    1
     5     7     6    2
     6     5     6   am
     7     6     8    1
     8    19    11    1
     9    10    11    1
    10    10     9    1
    11     8     9    2
    12     8    12    1
    13    13    12    1
    14    13    14    1
    15    18    11    1
    16    11    20    1
    17    12    17    2
    18    14    15    1
    19    20    22   ar
    20    20    21   ar
    21    17    15    2
    22    15    16    1
