@<TRIPOS>MOLECULE
1ym1_SM2_A_1.pdb
 22 23 0 0 0
SMALL
GASTEIGER

@<TRIPOS>ATOM
      1  CAF       27.9890   56.4700   11.2410 C.ar  2001  SM22001     0.0000
      2  CAC       28.8260   57.3630   11.7060 C.ar  2001  SM22001     0.0000
      3  CAB       28.6030   57.8970   12.9140 C.ar  2001  SM22001     0.0000
      4  SAD       27.1380   57.1090   13.4180 S.2   2001  SM22001     0.0000
      5  CAE       26.9470   56.1380   11.9870 C.ar  2001  SM22001     0.0000
      6  CAG       25.7850   55.1980   11.8150 C.3   2001  SM22001     0.0000
      7  CAH       25.3540   54.9640   10.3670 C.2   2001  SM22001     0.0000
      8  OAI       26.1510   54.5690    9.5190 O.2   2001  SM22001     0.0000
      9  NAJ       24.0770   55.2110   10.1200 N.am  2001  SM22001     0.0000
     10  CAK       23.2630   54.7110    9.0000 C.3   2001  SM22001     0.0000
     11  B         22.2990   55.8970    8.4880 B     2001  SM22001     0.0000
     12  OAT       21.6030   56.3450    9.7110 O.3   2001  SM22001     0.0000
     13  OAO       23.2650   56.9260    8.0160 O.3   2001  SM22001     0.0000
     14  CAL       22.6240   53.3870    9.4310 C.ar  2001  SM22001     0.0000
     15  CAQ       21.2850   53.2810    9.7890 C.ar  2001  SM22001     0.0000
     16  CAM       23.4130   52.2390    9.5030 C.ar  2001  SM22001     0.0000
     17  CAN       22.8690   51.0370    9.9370 C.ar  2001  SM22001     0.0000
     18  CAS       21.5330   50.9340   10.2950 C.ar  2001  SM22001     0.0000
     19  CAR       20.7370   52.0670   10.2160 C.ar  2001  SM22001     0.0000
     20  CAU       19.2440   51.9860   10.5710 C.2   2001  SM22001     0.0000
     21  OAW       18.4830   52.8320   10.1010 O.co2 2001  SM22001     0.0000
     22  OAV       18.8100   51.0830   11.2960 O.co2 2001  SM22001     0.0000
@<TRIPOS>BOND
     1    13    11    1
     2    11    10    1
     3    11    12    1
     4    10    14    1
     5    10     9    1
     6    14    16   ar
     7    14    15   ar
     8    16    17   ar
     9     8     7    2
    10    15    19   ar
    11    17    18   ar
    12    21    20   ar
    13     9     7   am
    14    19    18   ar
    15    19    20    1
    16     7     6    1
    17    20    22   ar
    18     1     2   ar
    19     1     5   ar
    20     2     3   ar
    21     6     5    1
    22     5     4   ar
    23     3     4   ar
