@<TRIPOS>MOLECULE
1ym2_III_X_1.pdb
 47 47 0 0 0
SMALL
GASTEIGER

@<TRIPOS>ATOM
      1  C         24.8680    7.5610   20.3920 C.2     1  ACE1        0.2423
      2  O         24.4390    7.6980   19.2550 O.2     1  ACE1       -0.2733
      3  CH3       23.9100    7.3900   21.5400 C.3     1  ACE1        0.0964
      4  N         26.1790    7.5510   20.7080 N.am    2  LEU2       -0.1978
      5  CA        27.1790    7.6970   19.6760 C.3     2  LEU2        0.1727
      6  C         27.1310    6.5280   18.7030 C.2     2  LEU2        0.2616
      7  O         26.7800    5.4270   19.1080 O.2     2  LEU2       -0.2715
      8  CB        28.5190    7.8050   20.4420 C.3     2  LEU2        0.0311
      9  CG        29.6410    8.4160   19.5930 C.3     2  LEU2        0.0022
     10  CD1       29.2140    9.8830   19.3130 C.3     2  LEU2        0.0001
     11  CD2       30.8310    8.5620   20.5910 C.3     2  LEU2        0.0001
     12  N         27.4780    6.7790   17.4180 N.am    3  MET3       -0.1963
     13  CA        27.4150    5.7000   16.4220 C.3     3  MET3        0.1736
     14  C         28.4670    6.0320   15.3950 C.2     3  MET3        0.2613
     15  O         28.1550    6.4810   14.2980 O.2     3  MET3       -0.2715
     16  CB        25.9910    5.6220   15.7640 C.3     3  MET3        0.0427
     17  CG        24.9600    4.9150   16.6860 C.3     3  MET3        0.0599
     18  SD        23.3810    4.6810   15.7700 S.3     3  MET3       -0.1393
     19  CE        22.7190    6.3320   16.0460 C.3     3  MET3        0.0692
     20  N         29.7390    5.7980   15.7800 N.am    4  24O4       -0.2031
     21  C41       30.8370    6.1230   14.8720 C.3     4  24O4        0.1256
     22  C43       31.5010    4.8840   14.2640 C.3     4  24O4        0.1726
     23  O45       32.0670    4.0320   15.3030 O.3     4  24O4       -0.2213
     24  C47       30.5200    4.0810   13.3830 C.3     4  24O4        0.0486
     25  C49       31.3840    3.2000   12.4470 C.3     4  24O4        0.0884
     26  C51       30.5870    1.8890   12.2590 C.3     4  24O4        0.0737
     27  C54       29.5210    1.9490   13.3300 C.2     4  24O4        0.1512
     28  C55       29.5830    3.1620   14.2030 C.3     4  24O4        0.0676
     29  O58       28.6740    1.0780   13.4670 O.2     4  24O4       -0.2960
     30  C59       31.4580    3.8830   11.0780 C.2     4  24O4        0.2418
     31  O60       30.5380    4.6030   10.7350 O.2     4  24O4       -0.2733
     32  C92       31.8860    6.9520   15.6390 C.3     4  24O4        0.0243
     33  C95       31.2720    8.3250   16.0210 C.3     4  24O4        0.0018
     34  C97       32.2650    9.0920   16.9130 C.3     4  24O4        0.0001
     35  C98       31.0390    9.1470   14.7310 C.3     4  24O4        0.0001
     36  N         32.5290    3.6720   10.3140 N.am    5  VAL5       -0.1978
     37  CA        32.5760    4.2890    9.0380 C.3     5  VAL5        0.1726
     38  C         31.5210    3.6820    8.1300 C.2     5  VAL5        0.2612
     39  O         31.2080    2.5080    8.2890 O.2     5  VAL5       -0.2715
     40  CB        34.0340    4.2140    8.4340 C.3     5  VAL5        0.0290
     41  CG1       34.5460    2.7390    8.2180 C.3     5  VAL5        0.0023
     42  CG2       33.9960    5.0520    7.1090 C.3     5  VAL5        0.0023
     43  C1        29.9500    3.9520    6.3190 C.3     6  LYT6        0.1152
     44  N         30.9800    4.4940    7.1950 N.am    6  LYT6       -0.2040
     45  C2        28.5190    4.2160    6.8630 C.3     6  LYT6        0.0234
     46  C3        27.9710    5.5210    6.2560 C.3     6  LYT6        0.0018
     47  C4        26.5400    5.7640    6.7730 C.3     6  LYT6        0.0001
@<TRIPOS>BOND
     1    46    47    1
     2    46    45    1
     3    43    45    1
     4    43    44    1
     5    42    40    1
     6    44    38   am
     7    38    39    2
     8    38    37    1
     9    41    40    1
    10    40    37    1
    11    37    36    1
    12    36    30   am
    13    31    30    2
    14    30    25    1
    15    26    25    1
    16    26    27    1
    17    25    24    1
    18    27    29    2
    19    27    28    1
    20    24    28    1
    21    24    22    1
    22    22    21    1
    23    22    23    1
    24    15    14    2
    25    35    33    1
    26    21    32    1
    27    21    20    1
    28    14    20   am
    29    14    13    1
    30    32    33    1
    31    16    13    1
    32    16    17    1
    33    18    19    1
    34    18    17    1
    35    33    34    1
    36    13    12    1
    37    12     6   am
    38     6     7    2
    39     6     5    1
    40     2     1    2
    41    10     9    1
    42     9     8    1
    43     9    11    1
    44     5     8    1
    45     5     4    1
    46     1     4   am
    47     1     3    1
