@<TRIPOS>MOLECULE
1ym4_III_X_1.pdb
 45 45 0 0 0
SMALL
GASTEIGER

@<TRIPOS>ATOM
      1  N         23.7960   10.2990   13.7810 N.3     1  GLU1       -0.1231
      2  CA        24.7510   10.3960   14.8910 C.3     1  GLU1        0.1699
      3  C         25.8880    9.4510   14.7140 C.2     1  GLU1        0.2592
      4  O         26.8800    9.5850   15.3980 O.2     1  GLU1       -0.2718
      5  CB        24.0610   10.2280   16.2640 C.3     1  GLU1        0.0402
      6  CG        23.8780   11.6360   16.9010 C.3     1  GLU1        0.1161
      7  CD        22.4280   11.9150   17.2990 C.2     1  GLU1        0.3649
      8  OE1       21.5990   11.0280   17.4280 O.co2   1  GLU1       -0.2457
      9  OE2       22.1170   13.2050   17.5090 O.co2   1  GLU1       -0.2457
     10  N         25.7800    8.4780   13.7920 N.am    2  VAL2       -0.1966
     11  CA        27.0250    7.8310   13.3520 C.3     2  VAL2        0.1727
     12  C         27.0800    7.9270   11.8590 C.2     2  VAL2        0.2616
     13  O         26.0420    7.9220   11.2030 O.2     2  VAL2       -0.2715
     14  CB        27.1550    6.3510   13.7810 C.3     2  VAL2        0.0290
     15  CG1       27.3540    6.2060   15.3270 C.3     2  VAL2        0.0023
     16  CG2       25.9300    5.5500   13.3400 C.3     2  VAL2        0.0023
     17  N         28.2800    8.0240   11.3100 N.am    3  ASN3       -0.1958
     18  CA        28.3660    8.0300    9.8640 C.3     3  ASN3        0.1819
     19  C         29.6310    7.3240    9.5400 C.2     3  ASN3        0.2617
     20  O         30.6230    7.9460    9.2110 O.2     3  ASN3       -0.2715
     21  CB        28.3530    9.5150    9.3320 C.3     3  ASN3        0.1195
     22  CG        26.9420   10.1210    9.3510 C.2     3  ASN3        0.2630
     23  OD1       26.1120    9.7680    8.5270 O.2     3  ASN3       -0.2716
     24  ND2       26.6630   11.0380   10.3100 N.am    3  ASN3       -0.0877
     25  N1        29.6060    5.9860    9.6350 N.am    4  24M4       -0.2031
     26  C3        30.8690    5.2750    9.5090 C.3     4  24M4        0.1256
     27  C5        31.0950    4.6900    8.0950 C.3     4  24M4        0.1721
     28  O7        30.0880    3.7350    7.7430 O.3     4  24M4       -0.2213
     29  C9        31.1390    5.7590    7.0240 C.3     4  24M4        0.0408
     30  C11       31.6750    5.0190    5.7560 C.3     4  24M4        0.0807
     31  C13       30.8200    5.4830    4.5820 C.3     4  24M4        0.0092
     32  C16       29.4500    5.8410    5.1840 C.3     4  24M4        0.0006
     33  C19       29.6890    6.1850    6.6820 C.3     4  24M4        0.0031
     34  C22       33.1460    5.2880    5.5360 C.2     4  24M4        0.2414
     35  O23       33.6080    6.3910    5.7780 O.2     4  24M4       -0.2733
     36  C36       30.9510    4.1700   10.5950 C.3     4  24M4        0.0243
     37  C39       30.9280    4.8450   11.9800 C.3     4  24M4        0.0018
     38  C41       32.2860    5.5390   12.2340 C.3     4  24M4        0.0001
     39  C45       30.6670    3.8000   13.0910 C.3     4  24M4        0.0001
     40  N         33.8920    4.2760    5.0780 N.am    5  ALA5       -0.1956
     41  CA        35.3010    4.5490    4.7890 C.3     5  ALA5        0.1978
     42  C         35.3840    5.3470    3.5120 C.2     5  ALA5        0.3842
     43  O         36.5680    5.3600    2.9060 O.co2   5  ALA5       -0.2437
     44  CB        36.0640    3.2390    4.6360 C.3     5  ALA5        0.0356
     45  OXT       34.4110    5.9390    3.0530 O.co2   5  ALA5       -0.2437
@<TRIPOS>BOND
     1    43    42   ar
     2    45    42   ar
     3    42    41    1
     4    31    32    1
     5    31    30    1
     6    44    41    1
     7    41    40    1
     8    40    34   am
     9    32    33    1
    10    34    30    1
    11    34    35    2
    12    30    29    1
    13    33    29    1
    14    29    27    1
    15    28    27    1
    16    27    26    1
    17    23    22    2
    18    20    19    2
    19    21    22    1
    20    21    18    1
    21    22    24   am
    22    26    25    1
    23    26    36    1
    24    19    25   am
    25    19    18    1
    26    18    17    1
    27    36    37    1
    28    13    12    2
    29    17    12   am
    30    12    11    1
    31    37    38    1
    32    37    39    1
    33    16    14    1
    34    11    14    1
    35    11    10    1
    36    14    15    1
    37     1     2    1
    38    10     3   am
    39     3     2    1
    40     3     4    2
    41     2     5    1
    42     5     6    1
    43     6     7    1
    44     7     8   ar
    45     7     9   ar
