@<TRIPOS>MOLECULE
1yma_HEM_A_1.pdb
 43 50 0 0 0
SMALL
GASTEIGER

@<TRIPOS>ATOM
      1 FE         14.7570   28.3280    4.9150 Fe    154  HEM154      0.0000
      2  CHA       15.6110   31.6180    4.9980 C.2   154  HEM154      0.0000
      3  CHB       13.8100   28.4890    8.2050 C.2   154  HEM154      0.0000
      4  CHC       13.7380   25.0640    4.7910 C.2   154  HEM154      0.0000
      5  CHD       15.1860   28.2890    1.5160 C.2   154  HEM154      0.0000
      6  NA        14.7100   29.7660    6.3060 N.2   154  HEM154      0.0000
      7  C1A       15.1330   31.0760    6.1690 C.2   154  HEM154      0.0000
      8  C2A       15.0200   31.7440    7.4370 C.2   154  HEM154      0.0000
      9  C3A       14.5280   30.8830    8.3280 C.2   154  HEM154      0.0000
     10  C4A       14.3160   29.6270    7.6260 C.2   154  HEM154      0.0000
     11  CMA       14.1920   31.0950    9.8190 C.3   154  HEM154      0.0000
     12  CAA       15.3660   33.2340    7.6770 C.3   154  HEM154      0.0000
     13  CBA       14.1520   34.1680    7.8510 C.3   154  HEM154      0.0000
     14  CGA       13.1890   34.1790    6.6860 C.2   154  HEM154      0.0000
     15  O1A       13.6760   34.4170    5.5470 O.co2 154  HEM154      0.0000
     16  O2A       11.9840   33.9270    6.9320 O.co2 154  HEM154      0.0000
     17  NB        13.9760   27.0360    6.2350 N.ar  154  HEM154      0.0000
     18  C1B       13.5750   27.3150    7.5260 C.ar  154  HEM154      0.0000
     19  C2B       12.8730   26.1690    8.0690 C.ar  154  HEM154      0.0000
     20  C3B       12.8460   25.2240    7.1280 C.ar  154  HEM154      0.0000
     21  C4B       13.5450   25.7470    5.9680 C.ar  154  HEM154      0.0000
     22  CMB       12.2680   26.1290    9.4960 C.3   154  HEM154      0.0000
     23  CAB       12.2210   23.8200    7.1850 C.3   154  HEM154      0.0000
     24  CBB       12.0600   23.0990    8.5180 C.3   154  HEM154      0.0000
     25  NC        14.4630   26.9680    3.4490 N.2   154  HEM154      0.0000
     26  C1C       14.1300   25.6320    3.6070 C.2   154  HEM154      0.0000
     27  C2C       14.2500   24.9450    2.3390 C.2   154  HEM154      0.0000
     28  C3C       14.6580   25.8320    1.4290 C.2   154  HEM154      0.0000
     29  C4C       14.7820   27.1150    2.1040 C.2   154  HEM154      0.0000
     30  CMC       13.9550   23.4440    2.1460 C.3   154  HEM154      0.0000
     31  CAC       14.9330   25.6420   -0.0690 C.3   154  HEM154      0.0000
     32  CBC       16.0250   24.7820   -0.6310 C.3   154  HEM154      0.0000
     33  ND        15.1440   29.7280    3.5060 N.ar  154  HEM154      0.0000
     34  C1D       15.5630   29.4060    2.2190 C.ar  154  HEM154      0.0000
     35  C2D       16.4650   30.4270    1.7330 C.ar  154  HEM154      0.0000
     36  C3D       16.5920   31.3480    2.6910 C.ar  154  HEM154      0.0000
     37  C4D       15.7620   30.9410    3.8020 C.ar  154  HEM154      0.0000
     38  CMD       17.1250   30.3570    0.3370 C.3   154  HEM154      0.0000
     39  CAD       17.4430   32.6270    2.6810 C.3   154  HEM154      0.0000
     40  CBD       18.8990   32.5010    2.1990 C.3   154  HEM154      0.0000
     41  CGD       19.7870   33.6720    2.5620 C.2   154  HEM154      0.0000
     42  O1D       20.2750   34.3260    1.5970 O.co2 154  HEM154      0.0000
     43  O2D       19.9480   33.8830    3.7880 O.co2 154  HEM154      0.0000
@<TRIPOS>BOND
     1    32    31    1
     2    31    28    1
     3    38    35    1
     4    28    29    1
     5    28    27    2
     6     5    29    1
     7     5    34    2
     8    42    41   ar
     9    35    34   ar
    10    35    36   ar
    11    29    25    2
    12    30    27    1
    13    40    41    1
    14    40    39    1
    15    34    33   ar
    16    27    26    1
    17    41    43   ar
    18    39    36    1
    19    36    37   ar
    20    25    26    1
    21    25     1    1
    22    33    37   ar
    23    33     1    1
    24    26     4    2
    25    37     2    2
    26     4    21    1
    27     1    17    1
    28     1     6    1
    29     2     7    1
    30    15    14   ar
    31    21    17   ar
    32    21    20   ar
    33     7     6    2
    34     7     8    1
    35    17    18   ar
    36     6    10    1
    37    14    16   ar
    38    14    13    1
    39    20    23    1
    40    20    19   ar
    41    23    24    1
    42     8    12    1
    43     8     9    2
    44    18    19   ar
    45    18     3    1
    46    10     3    2
    47    10     9    1
    48    12    13    1
    49    19    22    1
    50     9    11    1
