@<TRIPOS>MOLECULE
1ymb_HEM_A_1.pdb
 43 50 0 0 0
SMALL
GASTEIGER

@<TRIPOS>ATOM
      1 FE         14.4770   29.1130    4.9230 Fe    154  HEM154      0.0000
      2  CHA       15.6920   32.2790    5.1120 C.2   154  HEM154      0.0000
      3  CHB       13.8450   29.1690    8.3320 C.2   154  HEM154      0.0000
      4  CHC       13.3110   25.8100    4.8230 C.2   154  HEM154      0.0000
      5  CHD       15.1290   29.0100    1.6000 C.2   154  HEM154      0.0000
      6  NA        14.8270   30.3910    6.4240 N.2   154  HEM154      0.0000
      7  C1A       15.1780   31.7200    6.2770 C.2   154  HEM154      0.0000
      8  C2A       15.0540   32.4260    7.5390 C.2   154  HEM154      0.0000
      9  C3A       14.5830   31.5610    8.4330 C.2   154  HEM154      0.0000
     10  C4A       14.3890   30.2730    7.7250 C.2   154  HEM154      0.0000
     11  CMA       14.1600   31.7590    9.8940 C.3   154  HEM154      0.0000
     12  CAA       15.3580   33.9210    7.6980 C.3   154  HEM154      0.0000
     13  CBA       14.0100   34.7160    8.0850 C.3   154  HEM154      0.0000
     14  CGA       13.1160   34.8740    6.8800 C.2   154  HEM154      0.0000
     15  O1A       13.8020   35.3030    5.9040 O.co2 154  HEM154      0.0000
     16  O2A       11.8900   34.4980    6.8960 O.co2 154  HEM154      0.0000
     17  NB        13.7670   27.7790    6.3100 N.ar  154  HEM154      0.0000
     18  C1B       13.4600   28.0580    7.6160 C.ar  154  HEM154      0.0000
     19  C2B       12.7450   26.9130    8.1810 C.ar  154  HEM154      0.0000
     20  C3B       12.6260   25.9970    7.2400 C.ar  154  HEM154      0.0000
     21  C4B       13.2890   26.5220    6.0360 C.ar  154  HEM154      0.0000
     22  CMB       12.2200   26.8270    9.6360 C.3   154  HEM154      0.0000
     23  CAB       11.9380   24.6140    7.2810 C.2   154  HEM154      0.0000
     24  CBB       12.5870   23.5340    7.7890 C.2   154  HEM154      0.0000
     25  NC        14.2090   27.7050    3.5110 N.2   154  HEM154      0.0000
     26  C1C       13.7630   26.4200    3.6760 C.2   154  HEM154      0.0000
     27  C2C       13.9510   25.6840    2.4080 C.2   154  HEM154      0.0000
     28  C3C       14.4460   26.5350    1.5170 C.2   154  HEM154      0.0000
     29  C4C       14.6360   27.8220    2.1980 C.2   154  HEM154      0.0000
     30  CMC       13.5760   24.1970    2.2890 C.3   154  HEM154      0.0000
     31  CAC       14.8300   26.3100    0.0580 C.2   154  HEM154      0.0000
     32  CBC       15.4500   25.4160   -0.6200 C.2   154  HEM154      0.0000
     33  ND        15.1650   30.3950    3.5770 N.ar  154  HEM154      0.0000
     34  C1D       15.5280   30.1380    2.2670 C.ar  154  HEM154      0.0000
     35  C2D       16.3540   31.2440    1.7660 C.ar  154  HEM154      0.0000
     36  C3D       16.5250   32.1160    2.7490 C.ar  154  HEM154      0.0000
     37  C4D       15.7750   31.6190    3.8820 C.ar  154  HEM154      0.0000
     38  CMD       16.9210   31.3500    0.3270 C.3   154  HEM154      0.0000
     39  CAD       17.2830   33.4750    2.7990 C.3   154  HEM154      0.0000
     40  CBD       18.6470   33.3860    3.5420 C.3   154  HEM154      0.0000
     41  CGD       19.5710   34.5510    3.2700 C.2   154  HEM154      0.0000
     42  O1D       19.6660   34.9530    2.1170 O.co2 154  HEM154      0.0000
     43  O2D       20.1550   35.0960    4.2920 O.co2 154  HEM154      0.0000
@<TRIPOS>BOND
     1    32    31    2
     2    31    28    1
     3    38    35    1
     4    28    29    1
     5    28    27    2
     6     5    29    1
     7     5    34    2
     8    35    34   ar
     9    35    36   ar
    10    42    41   ar
    11    29    25    2
    12    34    33   ar
    13    30    27    1
    14    27    26    1
    15    36    39    1
    16    36    37   ar
    17    39    40    1
    18    41    40    1
    19    41    43   ar
    20    25    26    1
    21    25     1    1
    22    33    37   ar
    23    33     1    1
    24    26     4    2
    25    37     2    2
    26     4    21    1
    27     1    17    1
    28     1     6    1
    29     2     7    1
    30    15    14   ar
    31    21    17   ar
    32    21    20   ar
    33     7     6    2
    34     7     8    1
    35    17    18   ar
    36     6    10    1
    37    14    16   ar
    38    14    13    1
    39    20    23    1
    40    20    19   ar
    41    23    24    2
    42     8    12    1
    43     8     9    2
    44    18    19   ar
    45    18     3    1
    46    12    13    1
    47    10     3    2
    48    10     9    1
    49    19    22    1
    50     9    11    1
