@<TRIPOS>MOLECULE
1ymc_CLN_A_1.pdb
 44 52 0 0 0
SMALL
GASTEIGER

@<TRIPOS>ATOM
      1 FE         14.2660   29.1440    4.8170 Fe    154  CLN154      0.0000
      2  CHA       15.3160   32.4200    4.9610 C.2   154  CLN154      0.0000
      3  CHB       13.9920   29.1630    8.2480 C.2   154  CLN154      0.0000
      4  CHC       13.1370   25.9610    4.7760 C.2   154  CLN154      0.0000
      5  CHD       14.9270   29.0340    1.4850 C.2   154  CLN154      0.0000
      6  NA        14.6770   30.4990    6.3260 N.2   154  CLN154      0.0000
      7  C1A       14.9620   31.8400    6.1730 C.2   154  CLN154      0.0000
      8  C2A       14.8750   32.5050    7.5030 C.2   154  CLN154      0.0000
      9  C3A       14.5450   31.5920    8.4080 C.2   154  CLN154      0.0000
     10  C4A       14.3920   30.3170    7.6490 C.2   154  CLN154      0.0000
     11  CMA       14.2700   31.6470    9.8670 C.3   154  CLN154      0.0000
     12  CAA       15.1170   34.0070    7.6450 C.3   154  CLN154      0.0000
     13  CBA       13.8400   34.9600    7.7730 C.3   154  CLN154      0.0000
     14  CGA       12.8700   34.7550    6.6040 C.2   154  CLN154      0.0000
     15  O1A       13.5100   34.9210    5.5110 O.co2 154  CLN154      0.0000
     16  O2A       11.6490   34.4360    6.8110 O.co2 154  CLN154      0.0000
     17  NB        13.7110   27.8360    6.2450 N.ar  154  CLN154      0.0000
     18  C1B       13.4600   28.0980    7.5780 C.ar  154  CLN154      0.0000
     19  C2B       12.8030   26.9680    8.1700 C.ar  154  CLN154      0.0000
     20  C3B       12.6040   26.0620    7.2170 C.ar  154  CLN154      0.0000
     21  C4B       13.1680   26.5710    5.9980 C.ar  154  CLN154      0.0000
     22  CMB       12.4520   26.8930    9.7210 C.3   154  CLN154      0.0000
     23  CAB       11.9580   24.6380    7.2610 C.3   154  CLN154      0.0000
     24  CBB       12.9350   23.6700    7.5400 C.3   154  CLN154      0.0000
     25  NC        14.0570   27.6620    3.3430 N.2   154  CLN154      0.0000
     26  C1C       13.5410   26.3680    3.5110 C.2   154  CLN154      0.0000
     27  C2C       13.4790   25.5680    2.2360 C.2   154  CLN154      0.0000
     28  C3C       14.2750   26.5360    1.3560 C.2   154  CLN154      0.0000
     29  C4C       14.5650   27.7780    2.0710 C.2   154  CLN154      0.0000
     30  CMC       12.1190   24.9970    1.9180 C.3   154  CLN154      0.0000
     31  CAC       14.7460   26.1370    0.1630 C.3   154  CLN154      0.0000
     32  CBC       14.9780   24.7110    0.0930 C.3   154  CLN154      0.0000
     33  S         14.5550   24.2100    1.8610 S.3   154  CLN154      0.0000
     34  ND        14.9320   30.4830    3.4920 N.ar  154  CLN154      0.0000
     35  C1D       15.3060   30.1880    2.1720 C.ar  154  CLN154      0.0000
     36  C2D       16.0550   31.2650    1.6250 C.ar  154  CLN154      0.0000
     37  C3D       16.1400   32.2180    2.5750 C.ar  154  CLN154      0.0000
     38  C4D       15.4670   31.7330    3.7450 C.ar  154  CLN154      0.0000
     39  CMD       16.6010   31.3730    0.2110 C.3   154  CLN154      0.0000
     40  CAD       16.9040   33.5670    2.4180 C.3   154  CLN154      0.0000
     41  CBD       18.2720   33.4930    2.9990 C.3   154  CLN154      0.0000
     42  CGD       19.3460   34.4870    2.8010 C.2   154  CLN154      0.0000
     43  O1D       19.7700   34.7030    1.6270 O.co2 154  CLN154      0.0000
     44  O2D       19.7550   35.0230    3.9050 O.co2 154  CLN154      0.0000
@<TRIPOS>BOND
     1    32    31    1
     2    32    33    1
     3    31    28    1
     4    39    36    1
     5    28    29    1
     6    28    27    2
     7     5    29    1
     8     5    35    2
     9    36    35   ar
    10    36    37   ar
    11    43    42   ar
    12    33    27    1
    13    30    27    1
    14    29    25    2
    15    35    34   ar
    16    27    26    1
    17    40    37    1
    18    40    41    1
    19    37    38   ar
    20    42    41    1
    21    42    44   ar
    22    25    26    1
    23    25     1    1
    24    34    38   ar
    25    34     1    1
    26    26     4    2
    27    38     2    2
    28     4    21    1
    29     1    17    1
    30     1     6    1
    31     2     7    1
    32    15    14   ar
    33    21    17   ar
    34    21    20   ar
    35     7     6    2
    36     7     8    1
    37    17    18   ar
    38     6    10    1
    39    14    16   ar
    40    14    13    1
    41    20    23    1
    42    20    19   ar
    43    23    24    1
    44     8    12    1
    45     8     9    2
    46    18    19   ar
    47    18     3    1
    48    12    13    1
    49    10     3    2
    50    10     9    1
    51    19    22    1
    52     9    11    1
