@<TRIPOS>MOLECULE
1ymf_ADP_A_1.pdb
 27 29 0 0 0
SMALL
GASTEIGER

@<TRIPOS>ATOM
      1  PB        27.5860  -16.0500   13.8740 P.3   998  ADP998      0.5373
      2  O1B       28.3170  -15.1240   12.9790 O.2   998  ADP998     -0.2221
      3  O2B       26.3940  -15.3000   14.4990 O.3   998  ADP998     -0.1143
      4  O3B       27.0680  -17.2630   13.0770 O.3   998  ADP998     -0.1143
      5  PA        29.9900  -15.8400   15.3340 P.3   998  ADP998      0.2231
      6  O1A       30.2370  -15.8450   16.7920 O.3   998  ADP998     -0.4370
      7  O2A       30.0100  -14.4040   14.7790 O.2   998  ADP998     -0.5169
      8  O3A       28.5840  -16.5670   15.0290 O.3   998  ADP998     -0.2261
      9  O5'       31.0830  -16.7760   14.6100 O.3   998  ADP998     -0.3111
     10  C5'       31.9940  -16.2740   13.6550 C.3   998  ADP998      0.1813
     11  C4'       32.5290  -17.4480   12.8420 C.3   998  ADP998      0.1821
     12  O4'       33.6250  -17.0630   12.0330 O.3   998  ADP998     -0.3135
     13  C3'       33.0210  -18.5700   13.7420 C.3   998  ADP998      0.2184
     14  O3'       32.0540  -19.5870   13.8390 O.3   998  ADP998     -0.2174
     15  C2'       34.2740  -19.0910   13.0720 C.3   998  ADP998      0.2570
     16  O2'       34.0540  -20.3870   12.5660 O.3   998  ADP998     -0.2130
     17  C1'       34.5560  -18.1270   11.9290 C.3   998  ADP998      0.3186
     18  N9        35.9430  -17.6330   12.0310 N.pl3 998  ADP998     -0.1439
     19  C8        36.3350  -16.3520   12.3200 C.3   998  ADP998      0.3377
     20  N7        37.6870  -16.3080   12.3220 N.2   998  ADP998     -0.2095
     21  C5        38.1660  -17.5400   12.0400 C.2   998  ADP998      0.2526
     22  C6        39.4580  -18.0400   11.9180 C.2   998  ADP998      0.4393
     23  N6        40.4820  -17.1990   11.8050 N.pl3 998  ADP998      0.2180
     24  N1        39.6440  -19.3730   11.6150 N.2   998  ADP998      0.0021
     25  C2        38.5540  -20.2000   11.4330 C.3   998  ADP998      0.5254
     26  N3        37.2750  -19.6940   11.5550 N.2   998  ADP998     -0.0055
     27  C4        37.0800  -18.3850   11.8540 C.2   998  ADP998      0.3518
@<TRIPOS>BOND
     1    25    26    1
     2    25    24    1
     3    26    27    2
     4    24    22    2
     5    23    22    1
     6    27    18    1
     7    27    21    1
     8    22    21    1
     9    17    18    1
    10    17    12    1
    11    17    15    1
    12    18    19    1
    13    12    11    1
    14    21    20    2
    15    19    20    1
    16    16    15    1
    17    11    10    1
    18    11    13    1
    19     2     1    2
    20    15    13    1
    21     4     1    1
    22    10     9    1
    23    13    14    1
    24     1     3    1
    25     1     8    1
    26     9     5    1
    27     7     5    2
    28     8     5    1
    29     5     6    1
