@<TRIPOS>MOLECULE
1yms_NBF_A_1.pdb
 20 21 0 0 0
SMALL
GASTEIGER

@<TRIPOS>ATOM
      1  C25       24.2730   51.5600   11.2940 C.3   1001  NBF1001     0.0000
      2  C24       24.6560   51.9490   12.6010 C.3   1001  NBF1001     0.0000
      3  O23       24.2020   53.3080   12.6650 O.3   1001  NBF1001     0.0000
      4  C15       25.0850   54.3030   13.0100 C.ar  1001  NBF1001     0.0000
      5  C13       25.6710   55.0610   11.9830 C.ar  1001  NBF1001     0.0000
      6  C11       25.2130   54.8820   10.5180 C.2   1001  NBF1001     0.0000
      7  O12       26.0290   54.5840    9.6460 O.2   1001  NBF1001     0.0000
      8  N10       23.8930   55.0760   10.2540 N.am  1001  NBF1001     0.0000
      9  C7        23.2930   54.9650    8.9450 C.3   1001  NBF1001     0.0000
     10  B         21.7420   55.2600    8.9420 B     1001  NBF1001     0.0000
     11  O1        21.4180   56.3080    9.8600 O.3   1001  NBF1001     0.0000
     12  O2        21.0190   54.0620    9.3020 O.3   1001  NBF1001     0.0000
     13  C14       26.6250   56.1010   12.3780 C.ar  1001  NBF1001     0.0000
     14  C16       26.9310   56.3440   13.7960 C.ar  1001  NBF1001     0.0000
     15  C18       27.8540   57.3550   14.1550 C.ar  1001  NBF1001     0.0000
     16  C20       28.4930   58.1310   13.2250 C.ar  1001  NBF1001     0.0000
     17  C22       28.2420   57.9390   11.8320 C.ar  1001  NBF1001     0.0000
     18  C17       27.3290   56.9500   11.4190 C.ar  1001  NBF1001     0.0000
     19  C19       26.2820   55.5400   14.7620 C.ar  1001  NBF1001     0.0000
     20  C21       25.3930   54.5480   14.4140 C.ar  1001  NBF1001     0.0000
@<TRIPOS>BOND
     1    10     9    1
     2    10    12    1
     3    10    11    1
     4     9     8    1
     5     7     6    2
     6     8     6   am
     7     6     5    1
     8     1     2    1
     9    18    17   ar
    10    18    13   ar
    11    17    16   ar
    12     5    13   ar
    13     5     4   ar
    14    13    14   ar
    15     2     3    1
    16     3     4    1
    17     4    20   ar
    18    16    15   ar
    19    14    15   ar
    20    14    19   ar
    21    20    19   ar
