@<TRIPOS>MOLECULE
1ymx_CFX_A_1.pdb
 24 25 0 0 0
SMALL
GASTEIGER

@<TRIPOS>ATOM
      1  C4        -8.7680   55.5470   37.6260 C.2   1001  CFX1001     0.2580
      2  O5        -8.4310   56.2250   36.6850 O.2   1001  CFX1001    -0.2837
      3  N1        -8.1880   53.2340   36.5780 N.2   1001  CFX1001    -0.2543
      4  C2        -9.4210   53.1610   37.3380 C.3   1001  CFX1001     0.2018
      5  S8       -10.5520   51.9220   36.6180 S.3   1001  CFX1001    -0.1121
      6  C9        -9.3570   50.5340   36.4610 C.3   1001  CFX1001     0.0656
      7  C10       -8.0640   50.8610   36.0050 C.3   1001  CFX1001     0.0574
      8  C11       -7.5200   52.1520   36.0850 C.2   1001  CFX1001     0.1346
      9  C15       -7.3590   49.6600   35.4700 C.3   1001  CFX1001     0.0074
     10  C12       -6.1120   52.5590   35.7360 C.2   1001  CFX1001     0.4007
     11  O13       -5.3620   52.5550   36.7260 O.co2 1001  CFX1001    -0.2392
     12  O14       -5.9670   52.8830   34.5290 O.co2 1001  CFX1001    -0.2392
     13  C3       -10.0080   54.6040   37.3970 C.3   1001  CFX1001     0.2602
     14  O16      -10.8840   54.6420   38.5550 O.3   1001  CFX1001    -0.3291
     15  C17      -11.3920   55.9210   38.9500 C.3   1001  CFX1001     0.1765
     16  N18      -10.6720   54.9890   36.1330 N.am  1001  CFX1001    -0.1717
     17  C19      -11.9870   54.7640   35.8290 C.2   1001  CFX1001     0.2487
     18  O21      -12.7650   54.1960   36.6150 O.2   1001  CFX1001    -0.2729
     19  C20      -12.4790   55.2350   34.4370 C.3   1001  CFX1001     0.1197
     20  C23      -13.6150   56.2830   34.5180 C.ar  1001  CFX1001     0.0165
     21  S24      -14.5880   56.4960   35.9390 S.2   1001  CFX1001    -0.0903
     22  C25      -15.5060   57.7320   35.2280 C.ar  1001  CFX1001     0.0351
     23  C26      -15.1120   57.9940   33.9620 C.ar  1001  CFX1001     0.0072
     24  C27      -14.0220   57.1720   33.5220 C.ar  1001  CFX1001     0.0032
@<TRIPOS>BOND
     1    24    23   ar
     2    24    20   ar
     3    23    22   ar
     4    19    20    1
     5    19    17    1
     6    20    21   ar
     7    12    10   ar
     8    22    21   ar
     9     9     7    1
    10    10     8    1
    11    10    11   ar
    12    17    16   am
    13    17    18    2
    14     7     8    1
    15     7     6    1
    16     8     3    2
    17    16    13    1
    18     6     5    1
    19     3     4    1
    20     5     4    1
    21     2     1    2
    22     4    13    1
    23    13     1    1
    24    13    14    1
    25    14    15    1
