@<TRIPOS>MOLECULE
1ynh_SUO_A_1.pdb
 16 15 0 0 0
SMALL
GASTEIGER

@<TRIPOS>ATOM
      1  N         11.1160   54.3740   72.8160 N.am  1001  SUO1001    -0.1956
      2  CA         9.7000   54.7000   72.8850 C.3   1001  SUO1001     0.1978
      3  CB         9.5150   56.2140   73.0570 C.3   1001  SUO1001     0.0348
      4  CG         8.0710   56.6300   73.3050 C.3   1001  SUO1001     0.0228
      5  CD         7.8980   58.1480   73.3000 C.3   1001  SUO1001     0.1094
      6  NE         6.4620   58.5220   73.5270 N.3   1001  SUO1001    -0.1314
      7  C          8.9690   54.2130   71.6330 C.2   1001  SUO1001     0.3842
      8  O          9.6260   54.0340   70.5730 O.co2 1001  SUO1001    -0.2437
      9  OXT       10.7630   52.2020   73.2230 O.2   1001  SUO1001    -0.2733
     10  O2         7.7450   54.0090   71.7310 O.co2 1001  SUO1001    -0.2437
     11  CW        13.0320   52.8840   72.8450 C.3   1001  SUO1001     0.0986
     12  CX        13.5280   51.6980   73.6790 C.3   1001  SUO1001     0.1237
     13  CY        14.9430   51.2720   73.3090 C.2   1001  SUO1001     0.3654
     14  OD1       15.2720   51.2930   72.1070 O.co2 1001  SUO1001    -0.2456
     15  OD2       15.7280   50.9190   74.2110 O.co2 1001  SUO1001    -0.2456
     16  CV        11.5350   53.1260   72.9780 C.2   1001  SUO1001     0.2424
@<TRIPOS>BOND
     1     8     7   ar
     2     7    10   ar
     3     7     2    1
     4    14    13   ar
     5     1     2    1
     6     1    16   am
     7    11    16    1
     8    11    12    1
     9     2     3    1
    10    16     9    2
    11     3     4    1
    12     5     4    1
    13     5     6    1
    14    13    12    1
    15    13    15   ar
