@<TRIPOS>MOLECULE
1yni_SUG_A_1.pdb
 19 18 0 0 0
SMALL
GASTEIGER

@<TRIPOS>ATOM
      1  O2         7.8780   53.8140   71.8300 O.co2 1001  SUG1001    -0.2437
      2  N         11.2820   54.2260   72.7520 N.am  1001  SUG1001    -0.1956
      3  CA         9.8740   54.5980   72.8840 C.3   1001  SUG1001     0.1979
      4  CB         9.7310   56.1190   72.9770 C.3   1001  SUG1001     0.0370
      5  CG         8.4340   56.5690   73.6140 C.3   1001  SUG1001     0.0493
      6  CD         8.0190   57.9640   73.1820 C.3   1001  SUG1001     0.2205
      7  NE         6.6270   58.2080   73.5440 N.pl3 1001  SUG1001    -0.0865
      8  CZ         5.9150   59.2600   73.1560 C.cat 1001  SUG1001     0.5346
      9  NH1        6.4590   60.1840   72.3810 N.pl3 1001  SUG1001     0.1354
     10  NH2        4.6520   59.3860   73.5440 N.pl3 1001  SUG1001     0.1354
     11  C          9.0890   54.0800   71.6870 C.2   1001  SUG1001     0.3842
     12  O          9.7110   53.9450   70.6150 O.co2 1001  SUG1001    -0.2437
     13  CW        13.1250   52.6720   72.7520 C.3   1001  SUG1001     0.0986
     14  CX        13.6200   51.5190   73.6230 C.3   1001  SUG1001     0.1237
     15  CY        15.0510   51.1310   73.3080 C.2   1001  SUG1001     0.3654
     16  OD1       15.4030   51.1310   72.1120 O.co2 1001  SUG1001    -0.2456
     17  OD2       15.8220   50.8380   74.2540 O.co2 1001  SUG1001    -0.2456
     18  CV        11.6970   52.9970   73.0360 C.2   1001  SUG1001     0.2424
     19  OXT       10.9650   52.1450   73.5250 O.2   1001  SUG1001    -0.2733
@<TRIPOS>BOND
     1    12    11   ar
     2    11     1   ar
     3    11     3    1
     4    16    15   ar
     5     9     8    1
     6     2     3    1
     7     2    18   am
     8    13    18    1
     9    13    14    1
    10     3     4    1
    11     4     5    1
    12    18    19    2
    13     8    10    1
    14     8     7    2
    15     6     7    1
    16     6     5    1
    17    15    14    1
    18    15    17   ar
