@<TRIPOS>MOLECULE
1ynk_SC5_H_1.pdb
 24 25 0 0 0
SMALL
GASTEIGER

@<TRIPOS>ATOM
      1  C1       -38.9960  -66.7660   45.4950 C.ar  501  SC5501     -0.0000
      2  C2       -39.4330  -68.0910   45.2410 C.ar  501  SC5501     -0.0002
      3  C3       -38.7740  -69.1710   45.8630 C.ar  501  SC5501     -0.0009
      4  C4       -37.6800  -68.9370   46.7710 C.ar  501  SC5501      0.0170
      5  C5       -37.2440  -67.5990   46.9940 C.ar  501  SC5501     -0.0009
      6  C6       -37.8950  -66.5250   46.3510 C.ar  501  SC5501     -0.0002
      7  C7       -37.9130  -70.9650   48.3220 C.3   501  SC5501      0.0519
      8  C8       -36.9700  -70.1450   47.4180 C.3   501  SC5501      0.2032
      9  C9       -36.2020  -72.5090   43.8710 C.3   501  SC5501      0.3327
     10  C10      -35.6930  -73.0300   42.5470 C.2   501  SC5501      0.4082
     11  O1       -35.9930  -74.1340   42.0790 O.co2 501  SC5501     -0.2416
     12  O2       -34.8570  -72.1510   41.9430 O.co2 501  SC5501     -0.2416
     13  N1       -34.1020  -71.0830   46.6650 N.pl3 501  SC5501     -0.0663
     14  C11      -35.1470  -71.3980   45.9660 C.cat 501  SC5501      0.4598
     15  N2       -35.0440  -72.1260   44.7290 N.pl3 501  SC5501     -0.0793
     16  N3       -36.4660  -71.0030   46.3570 N.pl3 501  SC5501     -0.0910
     17  C12      -31.3120  -66.4490   48.5070 C.1   501  SC5501      0.1004
     18  N4       -30.7260  -65.5120   48.8590 N.1   501  SC5501     -0.1908
     19  C13      -33.0350  -67.4780   47.0920 C.ar  501  SC5501      0.0133
     20  C14      -33.7190  -68.6340   46.6340 C.ar  501  SC5501      0.0378
     21  C15      -33.3930  -69.9270   47.1520 C.ar  501  SC5501      0.1590
     22  C16      -32.3730  -70.0240   48.1620 C.ar  501  SC5501      0.0378
     23  C17      -31.6920  -68.8680   48.6160 C.ar  501  SC5501      0.0133
     24  C18      -32.0150  -67.5910   48.0800 C.ar  501  SC5501      0.0686
@<TRIPOS>BOND
     1    12    10   ar
     2    11    10   ar
     3    10     9    1
     4     9    15    1
     5    15    14    1
     6     2     1   ar
     7     2     3   ar
     8     1     6   ar
     9     3     4   ar
    10    14    16    2
    11    14    13    1
    12     6     5   ar
    13    16     8    1
    14    20    19   ar
    15    20    21   ar
    16    13    21    1
    17     4     5   ar
    18     4     8    1
    19    19    24   ar
    20    21    22   ar
    21     8     7    1
    22    24    17    1
    23    24    23   ar
    24    22    23   ar
    25    17    18    3
