@<TRIPOS>MOLECULE
1ynl_NES_L_1.pdb
 14 13 0 0 0
SMALL
GASTEIGER

@<TRIPOS>ATOM
      1  N4        65.2490   -2.6920   60.5910 N.3   501  NES501     -0.1977
      2  C7        64.8460   -1.6690   59.6150 C.3   501  NES501      0.1115
      3  C8        63.4530   -1.9960   59.2440 C.3   501  NES501      0.1240
      4  S         62.9690   -0.8250   58.0590 S.3   501  NES501     -0.1946
      5  O1S       61.4490   -0.3530   58.4880 O.3   501  NES501     -0.3074
      6  O2S       62.9640   -1.5050   56.4860 O.3   501  NES501     -0.3074
      7  O3S       64.0200    0.5260   58.0700 O.3   501  NES501     -0.3074
      8  O1        66.5060   -0.9590   62.9650 O.2   501  NES501     -0.2859
      9  C2        66.9890   -1.2300   61.8310 C.2   501  NES501      0.2379
     10  C3        66.6420   -2.6390   61.0640 C.3   501  NES501      0.2330
     11  C4        66.6880   -3.7690   62.0960 C.2   501  NES501      0.2379
     12  O5        67.6900   -4.1120   62.7350 O.2   501  NES501     -0.2859
     13  C6        67.6660   -2.9340   59.8530 C.2   501  NES501      0.2379
     14  O7        67.6180   -3.9570   59.1310 O.2   501  NES501     -0.2859
@<TRIPOS>BOND
     1     6     4    1
     2     4     7    1
     3     4     5    1
     4     4     3    1
     5    14    13    2
     6     3     2    1
     7     2     1    1
     8    13    10    1
     9     1    10    1
    10    10     9    1
    11    10    11    1
    12     9     8    2
    13    11    12    2
