@<TRIPOS>MOLECULE
1yno_TZD_A_1.pdb
 27 28 0 0 0
SMALL
GASTEIGER

@<TRIPOS>ATOM
      1  N1'       10.0730   45.5160   22.1800 N.2   530  TZD530     -0.1861
      2  C2'        9.4250   44.3690   21.7930 C.1   530  TZD530      0.0663
      3  C2A        7.9520   44.4200   21.6220 C.3   530  TZD530      0.1291
      4  N3'       10.0480   43.2320   21.6050 N.2   530  TZD530     -0.3368
      5  C4'       11.3770   43.1930   21.7700 C.2   530  TZD530      0.2294
      6  N4'       12.0080   42.0600   21.4560 N.pl3 530  TZD530     -0.0924
      7  C5'       12.1620   44.3230   22.2380 C.2   530  TZD530      0.0683
      8  C6'       11.3980   45.5340   22.3720 C.2   530  TZD530      0.1117
      9  C35       13.6440   44.3160   22.3760 C.3   530  TZD530      0.1415
     10  N3        14.1040   43.4700   23.4810 N.ar  530  TZD530     -0.2894
     11  C2        14.6170   42.1070   23.2610 C.ar  530  TZD530      0.2920
     12  OC2       14.6320   41.5960   22.1150 O.2   530  TZD530     -0.2594
     13  S1        14.9780   41.2630   24.7000 S.2   530  TZD530     -0.0306
     14  C5        14.6710   42.7370   25.5730 C.ar  530  TZD530      0.0259
     15  C4        14.1830   43.7600   24.8280 C.ar  530  TZD530      0.0432
     16  C4A       13.6510   45.0540   25.3510 C.3   530  TZD530      0.0503
     17  C5A       14.9120   42.7190   27.1070 C.3   530  TZD530      0.0667
     18  C5B       13.8700   41.8530   27.8170 C.3   530  TZD530      0.1544
     19  O5G       14.2500   42.0280   29.2000 O.3   530  TZD530     -0.3134
     20  P1        13.6700   41.0560   30.3010 P.3   530  TZD530      0.2230
     21  O11       14.6180   39.7840   30.2290 O.3   530  TZD530     -0.2261
     22  O12       13.8680   41.7410   31.6180 O.3   530  TZD530     -0.4370
     23  O13       12.3410   40.5690   29.9700 O.2   530  TZD530     -0.5169
     24  P2        16.2380   39.6560   30.4010 P.3   530  TZD530      0.5373
     25  O21       16.6480   40.5990   31.5350 O.3   530  TZD530     -0.1143
     26  O22       16.4310   38.1980   30.7180 O.3   530  TZD530     -0.1143
     27  O23       16.8320   39.9750   29.0700 O.2   530  TZD530     -0.2221
@<TRIPOS>BOND
     1     6     5    1
     2     4     5    2
     3     4     2    2
     4     3     2    1
     5     5     7    1
     6     2     1    2
     7    12    11    2
     8     1     8    1
     9     7     8    2
    10     7     9    1
    11     9    10    1
    12    11    10   ar
    13    11    13   ar
    14    10    15   ar
    15    13    14   ar
    16    15    16    1
    17    15    14   ar
    18    14    17    1
    19    17    18    1
    20    18    19    1
    21    27    24    2
    22    19    20    1
    23    23    20    2
    24    21    20    1
    25    21    24    1
    26    20    22    1
    27    24    26    1
    28    24    25    1
