@<TRIPOS>MOLECULE
1ynq_NDP_B_1.pdb
 48 52 0 0 0
SMALL
GASTEIGER

@<TRIPOS>ATOM
      1  PA         9.7690   49.5340    2.3370 P.3   301  NDP301      0.2189
      2  O1A        9.2790   48.8620    1.1080 O.2   301  NDP301     -0.5170
      3  O2A        9.1470   50.7900    2.7240 O.3   301  NDP301     -0.4371
      4  O5B       11.3500   49.6890    2.2350 O.3   301  NDP301     -0.3112
      5  C5B       11.9770   50.8150    2.8190 C.3   301  NDP301      0.1813
      6  C4B       13.3120   51.0000    2.1220 C.3   301  NDP301      0.1820
      7  O4B       13.0710   51.2500    0.7440 O.3   301  NDP301     -0.3136
      8  C3B       14.1040   52.2050    2.6010 C.3   301  NDP301      0.2157
      9  O3B       14.8650   51.9570    3.7670 O.3   301  NDP301     -0.2175
     10  C2B       14.9310   52.5410    1.3970 C.3   301  NDP301      0.2314
     11  O2B       15.9780   51.5830    1.2800 O.3   301  NDP301     -0.2630
     12  C1B       13.9760   52.2240    0.2610 C.3   301  NDP301      0.3158
     13  N9A       13.1190   53.3670   -0.1490 N.pl3 301  NDP301     -0.1439
     14  C8A       12.0330   53.8750    0.4950 C.3   301  NDP301      0.3377
     15  N7A       11.4730   54.8410   -0.2460 N.2   301  NDP301     -0.2095
     16  C5A       12.2050   54.9360   -1.4110 C.2   301  NDP301      0.2526
     17  C6A       12.1000   55.7460   -2.5440 C.2   301  NDP301      0.4393
     18  N6A       11.0550   56.5390   -2.8170 N.pl3 301  NDP301      0.2180
     19  N1A       13.0420   55.5660   -3.5440 N.2   301  NDP301      0.0021
     20  C2A       14.0230   54.6220   -3.4260 C.3   301  NDP301      0.5254
     21  N3A       14.1550   53.8120   -2.3430 N.2   301  NDP301     -0.0055
     22  C4A       13.2330   53.9910   -1.3500 C.2   301  NDP301      0.3518
     23  O3         9.5340   48.4450    3.5060 O.3   301  NDP301     -0.2703
     24  PN        10.2060   47.7910    4.7710 P.3   301  NDP301      0.2189
     25  O1N       11.4270   48.5280    5.0880 O.3   301  NDP301     -0.4371
     26  O2N       10.2480   46.3360    4.5770 O.2   301  NDP301     -0.5170
     27  O5D        9.0400   48.0280    5.8500 O.3   301  NDP301     -0.3112
     28  C5D        8.5950   49.3230    6.2710 C.3   301  NDP301      0.1813
     29  C4D        8.4520   49.3420    7.8110 C.3   301  NDP301      0.1799
     30  O4D        7.7430   48.1780    8.2080 O.3   301  NDP301     -0.3327
     31  C3D        9.7660   49.2380    8.5460 C.3   301  NDP301      0.2158
     32  O3D       10.4040   50.5080    8.6790 O.3   301  NDP301     -0.2175
     33  C2D        9.3050   48.7580    9.8820 C.3   301  NDP301      0.2309
     34  O2D        8.7800   49.8480   10.6140 O.3   301  NDP301     -0.2158
     35  C1D        8.1960   47.7580    9.4970 C.3   301  NDP301      0.2263
     36  N1N        8.5920   46.3520    9.3760 N.pl3 301  NDP301     -0.2787
     37  C2N        7.9590   45.4700   10.2000 C.3   301  NDP301      0.1244
     38  C3N        8.2740   44.1340   10.1720 C.2   301  NDP301      0.0544
     39  C7N        7.4960   43.2160   11.0110 C.2   301  NDP301      0.2818
     40  O7N        6.6160   43.7330   11.8390 O.2   301  NDP301     -0.2670
     41  N7N        7.5890   41.9260   10.8900 N.am  301  NDP301     -0.0839
     42  C4N        9.2830   43.5050    9.2390 C.2   301  NDP301      0.0033
     43  C5N        9.8650   44.5690    8.3740 C.2   301  NDP301      0.0157
     44  C6N        9.5400   45.9120    8.4440 C.2   301  NDP301      0.0633
     45  P2B       17.5110   51.9390    1.6860 P.3   301  NDP301      0.5328
     46  O1X       18.3190   50.7890    1.1570 O.3   301  NDP301     -0.1145
     47  O2X       17.8360   53.2900    1.1540 O.2   301  NDP301     -0.2224
     48  O3X       17.5010   52.0080    3.2300 O.3   301  NDP301     -0.1145
@<TRIPOS>BOND
     1    19    20    1
     2    19    17    2
     3    20    21    1
     4    18    17    1
     5    17    16    1
     6    21    22    2
     7    16    22    1
     8    16    15    2
     9    22    13    1
    10    15    14    1
    11    13    12    1
    12    13    14    1
    13    12     7    1
    14    12    10    1
    15     7     6    1
    16     2     1    2
    17    47    45    2
    18    46    45    1
    19    11    10    1
    20    11    45    1
    21    10     8    1
    22    45    48    1
    23     6     8    1
    24     6     5    1
    25     4     1    1
    26     4     5    1
    27     1     3    1
    28     1    23    1
    29     8     9    1
    30    23    24    1
    31    26    24    2
    32    24    25    1
    33    24    27    1
    34    27    28    1
    35    28    29    1
    36    29    30    1
    37    29    31    1
    38    30    35    1
    39    43    44    2
    40    43    42    1
    41    44    36    1
    42    31    32    1
    43    31    33    1
    44    42    38    2
    45    36    35    1
    46    36    37    1
    47    35    33    1
    48    33    34    1
    49    38    37    1
    50    38    39    1
    51    41    39   am
    52    39    40    2
