@<TRIPOS>MOLECULE
1ynr_HEC_A_1.pdb
 43 50 0 0 0
SMALL
GASTEIGER

@<TRIPOS>ATOM
      1 FE         55.1560   33.3350   91.9360 Fe     81  HEC81       0.0000
      2  CHA       58.1710   32.0850   91.3480 C.2    81  HEC81       0.0000
      3  CHB       53.7370   30.9770   89.8230 C.2    81  HEC81       0.0000
      4  CHC       52.0740   34.3970   92.8510 C.2    81  HEC81       0.0000
      5  CHD       56.5520   36.0950   93.6130 C.2    81  HEC81       0.0000
      6  NA        55.8060   31.8170   90.7960 N.ar   81  HEC81       0.0000
      7  C1A       57.1450   31.4540   90.7070 C.ar   81  HEC81       0.0000
      8  C2A       57.2530   30.3320   89.7910 C.ar   81  HEC81       0.0000
      9  C3A       56.0110   30.0280   89.3800 C.ar   81  HEC81       0.0000
     10  C4A       55.1030   30.9580   90.0000 C.ar   81  HEC81       0.0000
     11  CMA       55.5340   28.9310   88.4100 C.3    81  HEC81       0.0000
     12  CAA       58.5610   29.6150   89.3840 C.3    81  HEC81       0.0000
     13  CBA       58.9380   28.5690   90.4540 C.3    81  HEC81       0.0000
     14  CGA       60.2410   27.8590   90.1250 C.2    81  HEC81       0.0000
     15  O1A       60.8000   28.0580   89.0040 O.co2  81  HEC81       0.0000
     16  O2A       60.7230   27.0670   90.9740 O.co2  81  HEC81       0.0000
     17  NB        53.2950   32.7800   91.4190 N.2    81  HEC81       0.0000
     18  C1B       52.8980   31.7820   90.5750 C.2    81  HEC81       0.0000
     19  C2B       51.4760   31.6550   90.6390 C.2    81  HEC81       0.0000
     20  C3B       51.0170   32.6050   91.4610 C.2    81  HEC81       0.0000
     21  C4B       52.1500   33.3200   91.9970 C.2    81  HEC81       0.0000
     22  CMB       50.6430   30.6860   89.7310 C.3    81  HEC81       0.0000
     23  CAB       49.5380   32.9050   91.8470 C.3    81  HEC81       0.0000
     24  CBB       48.7560   31.6800   92.4140 C.3    81  HEC81       0.0000
     25  NC        54.4730   34.9340   93.0080 N.ar   81  HEC81       0.0000
     26  C1C       53.1260   35.1690   93.2900 C.ar   81  HEC81       0.0000
     27  C2C       53.0110   36.3390   94.1330 C.ar   81  HEC81       0.0000
     28  C3C       54.2550   36.7890   94.3480 C.ar   81  HEC81       0.0000
     29  C4C       55.1760   35.9230   93.6450 C.ar   81  HEC81       0.0000
     30  CMC       51.6580   36.9080   94.6910 C.3    81  HEC81       0.0000
     31  CAC       54.8070   37.9890   95.1710 C.3    81  HEC81       0.0000
     32  CBC       53.9780   38.5560   96.3610 C.3    81  HEC81       0.0000
     33  ND        57.0180   34.0120   92.3890 N.2    81  HEC81       0.0000
     34  C1D       57.3960   35.1580   93.0880 C.2    81  HEC81       0.0000
     35  C2D       58.8240   35.2100   93.2440 C.2    81  HEC81       0.0000
     36  C3D       59.3140   33.9640   92.5700 C.2    81  HEC81       0.0000
     37  C4D       58.1410   33.2720   92.0620 C.2    81  HEC81       0.0000
     38  CMD       59.5990   36.3450   93.9860 C.3    81  HEC81       0.0000
     39  CAD       60.7880   33.5120   92.4190 C.3    81  HEC81       0.0000
     40  CBD       61.1140   32.5480   93.5740 C.3    81  HEC81       0.0000
     41  CGD       62.5280   32.0390   93.3560 C.2    81  HEC81       0.0000
     42  O1D       62.7030   30.8150   93.4030 O.co2  81  HEC81       0.0000
     43  O2D       63.4540   32.8600   93.0900 O.co2  81  HEC81       0.0000
@<TRIPOS>BOND
     1    11     9    1
     2    15    14   ar
     3     9     8   ar
     4     9    10   ar
     5    12     8    1
     6    12    13    1
     7    22    19    1
     8     8     7   ar
     9     3    10    2
    10     3    18    1
    11    10     6   ar
    12    14    13    1
    13    14    16   ar
    14    18    19    1
    15    18    17    2
    16    19    20    2
    17     7     6   ar
    18     7     2    2
    19     6     1    1
    20     2    37    1
    21    17     1    1
    22    17    21    1
    23    20    23    1
    24    20    21    1
    25    23    24    1
    26     1    33    1
    27     1    25    1
    28    21     4    2
    29    37    33    2
    30    37    36    1
    31    33    34    1
    32    39    36    1
    33    39    40    1
    34    36    35    2
    35     4    26    1
    36    25    26   ar
    37    25    29   ar
    38    34    35    1
    39    34     5    2
    40    43    41   ar
    41    35    38    1
    42    26    27   ar
    43    41    42   ar
    44    41    40    1
    45     5    29    1
    46    29    28   ar
    47    27    28   ar
    48    27    30    1
    49    28    31    1
    50    31    32    1
