@<TRIPOS>MOLECULE
1yns_HPO_A_1.pdb
 12 11 0 0 0
SMALL
GASTEIGER

@<TRIPOS>ATOM
      1  C1        36.3540   12.8200  -11.1090 C.3   1261  HPO1261     0.0000
      2  C2        37.4100   12.3590  -12.0440 C.3   1261  HPO1261     0.0000
      3  C3        37.6660   10.9980  -12.7600 C.3   1261  HPO1261     0.0004
      4  C4        38.2520    9.9120  -11.8680 C.3   1261  HPO1261     0.0078
      5  C5        38.4990    8.6520  -12.6930 C.3   1261  HPO1261     0.0650
      6  C6        39.8340    8.3670  -12.4150 C.2   1261  HPO1261     0.1579
      7  C7        41.2090    8.5220  -12.9690 C.3   1261  HPO1261     0.1232
      8  O1        39.8570    7.3790  -11.7390 O.2   1261  HPO1261    -0.2956
      9  P1        42.3080    7.9490  -12.5020 P.3   1261  HPO1261     0.1246
     10  O2        43.4810    8.9650  -12.6300 O.3   1261  HPO1261    -0.3568
     11  O3        42.6760    6.7810  -13.4150 O.2   1261  HPO1261    -0.4597
     12  O4        42.5340    7.3000  -10.9080 O.3   1261  HPO1261    -0.3568
@<TRIPOS>BOND
     1    11     9    2
     2     7     9    1
     3     7     6    1
     4     3     2    1
     5     3     4    1
     6     5     6    1
     7     5     4    1
     8    10     9    1
     9     9    12    1
    10     6     8    2
    11     2     1    1
