@<TRIPOS>MOLECULE
1ynu_PY4_A_1.pdb
 22 22 0 0 0
SMALL
GASTEIGER

@<TRIPOS>ATOM
      1  N1        22.8910    2.6960   19.4820 N.ar  600  PY4600     -0.2452
      2  C2        21.8000    2.6160   18.5870 C.ar  600  PY4600      0.0981
      3  C2A       21.9620    3.3730   17.2890 C.3   600  PY4600      0.0555
      4  C3        20.6700    1.8370   19.0000 C.ar  600  PY4600      0.2103
      5  O3        19.6500    1.7460   18.1910 O.3   600  PY4600     -0.2853
      6  C4        20.7060    1.1500   20.3520 C.ar  600  PY4600      0.0587
      7  C4A       19.5980    0.3720   20.7800 C.2   600  PY4600      0.0967
      8  C5        21.9490    1.3190   21.2150 C.ar  600  PY4600      0.0316
      9  C6        23.0020    2.0930   20.7410 C.ar  600  PY4600      0.0968
     10  C5A       22.0400    0.6290   22.6020 C.3   600  PY4600      0.1819
     11  O4P       22.6110   -0.7030   22.4610 O.3   600  PY4600     -0.2653
     12  P         23.4750   -1.4620   23.6660 P.3   600  PY4600      0.5329
     13  O1P       24.7240   -1.9200   22.9910 O.2   600  PY4600     -0.2224
     14  O2P       22.7260   -2.6160   24.1170 O.3   600  PY4600     -0.1145
     15  O3P       23.7160   -0.5080   24.8110 O.3   600  PY4600     -0.1145
     16  N         18.6850   -0.0040   19.8700 N.2   600  PY4600     -0.2593
     17  CA        17.4850   -0.8290   20.1420 C.3   600  PY4600      0.2056
     18  C         16.2020    0.0060   19.9700 C.2   600  PY4600      0.3866
     19  O         16.2220    0.9250   19.1440 O.co2 600  PY4600     -0.2435
     20  CB        17.5420   -1.4660   21.5530 C.3   600  PY4600      0.0360
     21  CG        18.0290   -2.9110   21.3760 C.3   600  PY4600      0.0027
     22  OXT       15.1110   -0.2430   20.6270 O.co2 600  PY4600     -0.2435
@<TRIPOS>BOND
     1     3     2    1
     2     5     4    1
     3     2     4   ar
     4     2     1   ar
     5     4     6   ar
     6    19    18   ar
     7     1     9   ar
     8    16    17    1
     9    16     7    2
    10    18    17    1
    11    18    22   ar
    12    17    20    1
    13     6     7    1
    14     6     8   ar
    15     9     8   ar
    16     8    10    1
    17    21    20    1
    18    11    10    1
    19    11    12    1
    20    13    12    2
    21    12    14    1
    22    12    15    1
