@<TRIPOS>MOLECULE
1yoa_FMN_A_1.pdb
 31 33 0 0 0
SMALL
GASTEIGER

@<TRIPOS>ATOM
      1  N1        26.2130   62.4220   26.6550 N.2   402  FMN402     -0.2887
      2  C2        27.4380   62.7800   27.1590 C.1   402  FMN402      0.3669
      3  O2        27.7370   62.4240   28.2870 O.2   402  FMN402     -0.1744
      4  N3        28.3180   63.5450   26.4310 N.2   402  FMN402     -0.2300
      5  C4        27.9710   63.9300   25.1590 C.1   402  FMN402      0.2513
      6  O4        28.7210   64.7270   24.6000 O.2   402  FMN402     -0.2057
      7  C4A       26.7180   63.5750   24.6230 C.2   402  FMN402      0.2706
      8  N5        26.3290   63.9510   23.3510 N.2   402  FMN402     -0.3841
      9  C5A       25.0990   63.5640   22.8550 C.2   402  FMN402      0.1452
     10  C6        24.7390   63.9570   21.5690 C.2   402  FMN402      0.0252
     11  C7        23.5060   63.6070   21.0410 C.2   402  FMN402     -0.0375
     12  C7M       23.1800   64.0680   19.6440 C.3   402  FMN402      0.0268
     13  C8        22.6230   62.8310   21.8010 C.3   402  FMN402      0.0417
     14  C8M       21.1940   62.6450   21.3720 C.3   402  FMN402      0.0091
     15  C9        22.9850   62.4290   23.0960 C.2   402  FMN402     -0.0049
     16  C9A       24.2300   62.7890   23.6290 C.2   402  FMN402      0.0795
     17  N10       24.6200   62.4120   24.9120 N.pl3 402  FMN402     -0.2545
     18  C10       25.8430   62.8060   25.3890 C.2   402  FMN402      0.2449
     19  C1'       23.7450   61.5750   25.8220 C.3   402  FMN402      0.1336
     20  C2'       22.7850   62.4320   26.6770 C.3   402  FMN402      0.2048
     21  O2'       23.4630   63.5050   27.2910 O.3   402  FMN402     -0.2185
     22  C3'       22.0560   61.6380   27.7840 C.3   402  FMN402      0.2165
     23  O3'       22.7290   60.4390   28.1060 O.3   402  FMN402     -0.2175
     24  C4'       20.5960   61.3480   27.4160 C.3   402  FMN402      0.2147
     25  O4'       20.0550   60.3550   28.2610 O.3   402  FMN402     -0.2176
     26  C5'       20.4250   60.8760   25.9770 C.3   402  FMN402      0.1892
     27  O5'       19.1050   60.4550   25.7530 O.3   402  FMN402     -0.2674
     28  P         18.7140   59.9490   24.2710 P.3   402  FMN402      0.5327
     29  O1P       18.1840   58.5550   24.3740 O.3   402  FMN402     -0.1145
     30  O2P       19.9540   59.9370   23.3460 O.2   402  FMN402     -0.2224
     31  O3P       17.6480   60.9200   23.6930 O.3   402  FMN402     -0.1145
@<TRIPOS>BOND
     1    12    11    1
     2    11    10    2
     3    11    13    1
     4    14    13    1
     5    10     9    1
     6    13    15    1
     7     9     8    2
     8     9    16    1
     9    15    16    2
    10    30    28    2
    11     8     7    2
    12    16    17    1
    13    31    28    1
    14    28    29    1
    15    28    27    1
    16     6     5    2
    17     7     5    1
    18     7    18    1
    19    17    18    1
    20    17    19    1
    21     5     4    2
    22    18     1    2
    23    27    26    1
    24    19    20    1
    25    26    24    1
    26     4     2    2
    27     1     2    2
    28    20    21    1
    29    20    22    1
    30     2     3    2
    31    24    22    1
    32    24    25    1
    33    22    23    1
