@<TRIPOS>MOLECULE
1yob_FMN_A_1.pdb
 31 33 0 0 0
SMALL
GASTEIGER

@<TRIPOS>ATOM
      1  N1        22.5650   32.5830  109.4370 N.2   1200  FMN1200    -0.2890
      2  C2        21.4710   33.3080  109.8080 C.1   1200  FMN1200     0.3669
      3  O2        20.6150   33.8540  109.0960 O.2   1200  FMN1200    -0.1744
      4  N3        21.2240   33.5040  111.2480 N.2   1200  FMN1200    -0.2300
      5  C4        22.0810   32.9620  112.2510 C.1   1200  FMN1200     0.2513
      6  O4        21.7380   33.2090  113.4130 O.2   1200  FMN1200    -0.2057
      7  C4A       23.1610   32.2440  111.8100 C.2   1200  FMN1200     0.2700
      8  N5        23.9290   31.7530  112.7100 N.2   1200  FMN1200    -0.3878
      9  C5A       25.0600   30.9920  112.3630 C.2   1200  FMN1200     0.1320
     10  C6        25.9240   30.4250  113.3400 C.2   1200  FMN1200     0.0250
     11  C7        27.0720   29.6430  112.9320 C.2   1200  FMN1200    -0.0238
     12  C7M       27.8020   29.1590  114.1810 C.3   1200  FMN1200     0.0308
     13  C8        27.3570   29.4320  111.5100 C.2   1200  FMN1200    -0.0280
     14  C8M       28.5330   28.6300  111.1250 C.3   1200  FMN1200     0.0304
     15  C9        26.5230   29.9770  110.5510 C.2   1200  FMN1200    -0.0041
     16  C9A       25.3220   30.7910  110.9070 C.3   1200  FMN1200     0.1497
     17  N10       24.5170   31.3080  109.8760 N.pl3 1200  FMN1200    -0.2691
     18  C10       23.4290   32.0340  110.3040 C.2   1200  FMN1200     0.2416
     19  C1'       24.7070   31.1480  108.4280 C.3   1200  FMN1200     0.1294
     20  C2'       25.8630   31.9210  107.8340 C.3   1200  FMN1200     0.2044
     21  O2'       25.6450   33.3050  108.0300 O.3   1200  FMN1200    -0.2185
     22  C3'       25.8910   31.5750  106.3740 C.3   1200  FMN1200     0.2164
     23  O3'       26.4630   30.2310  106.2520 O.3   1200  FMN1200    -0.2175
     24  C4'       26.8000   32.4200  105.4440 C.3   1200  FMN1200     0.2147
     25  O4'       26.6960   31.9710  104.1180 O.3   1200  FMN1200    -0.2176
     26  C5'       28.2980   32.4720  105.8220 C.3   1200  FMN1200     0.1892
     27  O5'       28.7970   33.6880  105.2270 O.3   1200  FMN1200    -0.2674
     28  P         30.3600   33.8650  105.1400 P.3   1200  FMN1200     0.5327
     29  O1P       30.5250   35.2610  104.4660 O.3   1200  FMN1200    -0.1145
     30  O2P       30.9070   33.8700  106.5180 O.3   1200  FMN1200    -0.1145
     31  O3P       30.9590   32.7780  104.2420 O.2   1200  FMN1200    -0.2224
@<TRIPOS>BOND
     1    25    24    1
     2    31    28    2
     3    29    28    1
     4    28    27    1
     5    28    30    1
     6    27    26    1
     7    24    26    1
     8    24    22    1
     9    23    22    1
    10    22    20    1
    11    20    21    1
    12    20    19    1
    13    19    17    1
    14     3     2    2
    15     1     2    2
    16     1    18    2
    17     2     4    2
    18    17    18    1
    19    17    16    1
    20    18     7    1
    21    15    16    1
    22    15    13    2
    23    16     9    1
    24    14    13    1
    25     4     5    2
    26    13    11    1
    27     7     5    1
    28     7     8    2
    29     5     6    2
    30     9     8    2
    31     9    10    1
    32    11    10    2
    33    11    12    1
