@<TRIPOS>MOLECULE
1yoe_RIB_A_1.pdb
 10 10 0 0 0
SMALL
GASTEIGER

@<TRIPOS>ATOM
      1  O5'       -8.3590   29.4990   36.7240 O.3   2001  RIB2001    -0.2176
      2  C5'       -8.3480   28.2410   36.0630 C.3   2001  RIB2001     0.2142
      3  C4'       -8.8110   27.1630   37.0390 C.3   2001  RIB2001     0.1837
      4  O4'      -10.1110   27.5170   37.5130 O.3   2001  RIB2001    -0.3236
      5  C3'       -8.9210   25.7860   36.3920 C.3   2001  RIB2001     0.2169
      6  O3'       -8.2470   24.8380   37.2120 O.3   2001  RIB2001    -0.2175
      7  C2'      -10.4150   25.4890   36.3180 C.3   2001  RIB2001     0.2433
      8  O2'      -10.7380   24.1770   36.7600 O.3   2001  RIB2001    -0.2148
      9  C1'      -11.1030   26.5490   37.1690 C.3   2001  RIB2001     0.3024
     10  O1'      -11.5740   25.9730   38.3790 O.3   2001  RIB2001    -0.1869
@<TRIPOS>BOND
     1     2     1    1
     2     2     3    1
     3     7     5    1
     4     7     8    1
     5     7     9    1
     6     5     3    1
     7     5     6    1
     8     3     4    1
     9     9     4    1
    10     9    10    1
