@<TRIPOS>MOLECULE
1yog_COH_A_1.pdb
 43 50 0 0 0
SMALL
GASTEIGER

@<TRIPOS>ATOM
      1 CO         14.6330   28.0260    5.0490 Co.oh 154  COH154      0.0000
      2  CHA       15.9290   31.0720    5.3860 C.2   154  COH154      0.0000
      3  CHB       13.7850   27.9630    8.3640 C.2   154  COH154      0.0000
      4  CHC       13.5630   24.8880    4.7450 C.2   154  COH154      0.0000
      5  CHD       15.7430   27.8700    1.8100 C.2   154  COH154      0.0000
      6  NA        14.8070   29.2260    6.6140 N.2   154  COH154      0.0000
      7  C1A       15.3750   30.5180    6.5670 C.2   154  COH154      0.0000
      8  C2A       15.2690   31.1930    7.9240 C.2   154  COH154      0.0000
      9  C3A       14.6670   30.2570    8.8010 C.2   154  COH154      0.0000
     10  C4A       14.3860   29.0650    7.8990 C.2   154  COH154      0.0000
     11  CMA       14.2790   30.4080   10.2600 C.3   154  COH154      0.0000
     12  CAA       15.6850   32.6500    8.3380 C.3   154  COH154      0.0000
     13  CBA       14.4490   33.5480    8.3530 C.3   154  COH154      0.0000
     14  CGA       13.7870   33.6040    6.9860 C.2   154  COH154      0.0000
     15  O1A       14.4500   34.0420    6.0000 O.co2 154  COH154      0.0000
     16  O2A       12.6380   33.1270    6.8650 O.co2 154  COH154      0.0000
     17  NB        13.8480   26.7490    6.2880 N.ar  154  COH154      0.0000
     18  C1B       13.5270   26.8450    7.6390 C.ar  154  COH154      0.0000
     19  C2B       12.9100   25.6300    8.1840 C.ar  154  COH154      0.0000
     20  C3B       12.7990   24.7920    7.1330 C.ar  154  COH154      0.0000
     21  C4B       13.3800   25.4690    5.9850 C.ar  154  COH154      0.0000
     22  CMB       12.4550   25.4030    9.5950 C.3   154  COH154      0.0000
     23  CAB       12.2250   23.4520    7.1590 C.3   154  COH154      0.0000
     24  CBB       12.6600   22.4520    8.0090 C.3   154  COH154      0.0000
     25  NC        14.5790   26.7400    3.4890 N.2   154  COH154      0.0000
     26  C1C       14.1970   25.4220    3.6360 C.2   154  COH154      0.0000
     27  C2C       14.4120   24.7010    2.4050 C.2   154  COH154      0.0000
     28  C3C       15.0680   25.5940    1.5760 C.2   154  COH154      0.0000
     29  C4C       15.0680   26.8040    2.2590 C.2   154  COH154      0.0000
     30  CMC       13.7340   23.3540    2.0250 C.3   154  COH154      0.0000
     31  CAC       15.6670   25.4420    0.2940 C.3   154  COH154      0.0000
     32  CBC       15.4430   24.3860   -0.6500 C.3   154  COH154      0.0000
     33  ND        15.6140   29.1810    3.8230 N.ar  154  COH154      0.0000
     34  C1D       15.9510   29.0450    2.5390 C.ar  154  COH154      0.0000
     35  C2D       16.6760   30.2680    1.9940 C.ar  154  COH154      0.0000
     36  C3D       16.7210   31.1080    3.0300 C.ar  154  COH154      0.0000
     37  C4D       16.0590   30.5010    4.1430 C.ar  154  COH154      0.0000
     38  CMD       17.1900   30.3480    0.5620 C.3   154  COH154      0.0000
     39  CAD       17.5600   32.3720    3.1230 C.3   154  COH154      0.0000
     40  CBD       19.0380   32.0270    3.2840 C.3   154  COH154      0.0000
     41  CGD       19.9350   33.2340    3.0060 C.2   154  COH154      0.0000
     42  O1D       20.2200   33.5430    1.8160 O.co2 154  COH154      0.0000
     43  O2D       20.3400   33.8900    3.9800 O.co2 154  COH154      0.0000
@<TRIPOS>BOND
     1    32    31    1
     2    31    28    1
     3    38    35    1
     4    28    29    1
     5    28    27    2
     6     5    29    1
     7     5    34    2
     8    42    41   ar
     9    35    34   ar
    10    35    36   ar
    11    30    27    1
    12    29    25    2
    13    27    26    1
    14    34    33   ar
    15    41    40    1
    16    41    43   ar
    17    36    39    1
    18    36    37   ar
    19    39    40    1
    20    25    26    1
    21    25     1    1
    22    26     4    2
    23    33    37   ar
    24    33     1    1
    25    37     2    2
    26     4    21    1
    27     1    17    1
    28     1     6    1
    29     2     7    1
    30    21    17   ar
    31    21    20   ar
    32    15    14   ar
    33    17    18   ar
    34     7     6    2
    35     7     8    1
    36     6    10    1
    37    16    14   ar
    38    14    13    1
    39    20    23    1
    40    20    19   ar
    41    23    24    1
    42    18    19   ar
    43    18     3    1
    44    10     3    2
    45    10     9    1
    46     8    12    1
    47     8     9    2
    48    19    22    1
    49    12    13    1
    50     9    11    1
