@<TRIPOS>MOLECULE
1yoh_COH_A_1.pdb
 43 50 0 0 0
SMALL
GASTEIGER

@<TRIPOS>ATOM
      1 CO         14.7430   27.9770    4.7060 Co.oh 154  COH154      0.0000
      2  CHA       16.1530   31.0630    5.0190 C.2   154  COH154      0.0000
      3  CHB       14.0730   27.8870    8.0020 C.2   154  COH154      0.0000
      4  CHC       13.4260   24.9690    4.3670 C.2   154  COH154      0.0000
      5  CHD       15.5780   27.8730    1.4300 C.2   154  COH154      0.0000
      6  NA        14.9800   29.1170    6.1560 N.2   154  COH154      0.0000
      7  C1A       15.6080   30.4250    6.1280 C.2   154  COH154      0.0000
      8  C2A       15.6190   31.1200    7.4980 C.2   154  COH154      0.0000
      9  C3A       15.0480   30.1790    8.3390 C.2   154  COH154      0.0000
     10  C4A       14.6610   29.0310    7.5090 C.2   154  COH154      0.0000
     11  CMA       14.7030   30.3060    9.7960 C.3   154  COH154      0.0000
     12  CAA       16.0510   32.5870    7.7660 C.3   154  COH154      0.0000
     13  CBA       14.8840   33.5690    7.9320 C.3   154  COH154      0.0000
     14  CGA       13.9650   33.5070    6.7160 C.2   154  COH154      0.0000
     15  O1A       14.3830   33.9690    5.6460 O.co2 154  COH154      0.0000
     16  O2A       12.8630   32.8940    6.8060 O.co2 154  COH154      0.0000
     17  NB        13.9080   26.6770    5.8540 N.ar  154  COH154      0.0000
     18  C1B       13.6850   26.7920    7.2280 C.ar  154  COH154      0.0000
     19  C2B       13.0850   25.6590    7.8600 C.ar  154  COH154      0.0000
     20  C3B       12.8920   24.8230    6.8590 C.ar  154  COH154      0.0000
     21  C4B       13.4080   25.4830    5.6270 C.ar  154  COH154      0.0000
     22  CMB       12.6940   25.5460    9.4260 C.3   154  COH154      0.0000
     23  CAB       12.2200   23.5380    6.9430 C.3   154  COH154      0.0000
     24  CBB       12.5250   22.4630    7.8450 C.3   154  COH154      0.0000
     25  NC        14.5330   26.6730    3.1290 N.2   154  COH154      0.0000
     26  C1C       14.0230   25.4360    3.2340 C.2   154  COH154      0.0000
     27  C2C       14.2270   24.6730    2.0460 C.2   154  COH154      0.0000
     28  C3C       14.8630   25.5420    1.1640 C.2   154  COH154      0.0000
     29  C4C       14.9770   26.7620    1.8770 C.2   154  COH154      0.0000
     30  CMC       13.6210   23.3280    1.8230 C.3   154  COH154      0.0000
     31  CAC       15.4450   25.3190   -0.1490 C.3   154  COH154      0.0000
     32  CBC       15.3590   24.0960   -0.8930 C.3   154  COH154      0.0000
     33  ND        15.6830   29.1690    3.4360 N.ar  154  COH154      0.0000
     34  C1D       15.8960   29.0120    2.1420 C.ar  154  COH154      0.0000
     35  C2D       16.6330   30.1930    1.5480 C.ar  154  COH154      0.0000
     36  C3D       16.8560   31.0140    2.5950 C.ar  154  COH154      0.0000
     37  C4D       16.2500   30.4350    3.7500 C.ar  154  COH154      0.0000
     38  CMD       17.1120   30.2890    0.1200 C.3   154  COH154      0.0000
     39  CAD       17.6860   32.2540    2.5860 C.3   154  COH154      0.0000
     40  CBD       19.1300   31.8620    2.8510 C.3   154  COH154      0.0000
     41  CGD       20.0350   33.0610    2.8360 C.2   154  COH154      0.0000
     42  O1D       20.3130   33.6000    1.7600 O.co2 154  COH154      0.0000
     43  O2D       20.4240   33.5240    3.8990 O.co2 154  COH154      0.0000
@<TRIPOS>BOND
     1    32    31    1
     2    31    28    1
     3    38    35    1
     4    28    29    1
     5    28    27    2
     6     5    29    1
     7     5    34    2
     8    35    34   ar
     9    35    36   ar
    10    42    41   ar
    11    30    27    1
    12    29    25    2
    13    27    26    1
    14    34    33   ar
    15    39    36    1
    16    39    40    1
    17    36    37   ar
    18    41    40    1
    19    41    43   ar
    20    25    26    1
    21    25     1    1
    22    26     4    2
    23    33    37   ar
    24    33     1    1
    25    37     2    2
    26     4    21    1
    27     1    17    1
    28     1     6    1
    29     2     7    1
    30    21    17   ar
    31    21    20   ar
    32    15    14   ar
    33    17    18   ar
    34     7     6    2
    35     7     8    1
    36     6    10    1
    37    14    16   ar
    38    14    13    1
    39    20    23    1
    40    20    19   ar
    41    23    24    1
    42    18    19   ar
    43    18     3    1
    44     8    12    1
    45     8     9    2
    46    10     3    2
    47    10     9    1
    48    12    13    1
    49    19    22    1
    50     9    11    1
