@<TRIPOS>MOLECULE
1yoi_COH_A_1.pdb
 43 50 0 0 0
SMALL
GASTEIGER

@<TRIPOS>ATOM
      1 CO         14.7160   27.8930    4.8000 Co.oh 154  COH154      0.0000
      2  CHA       16.1410   31.0570    5.0380 C.2   154  COH154      0.0000
      3  CHB       14.0220   27.9470    8.0870 C.2   154  COH154      0.0000
      4  CHC       13.4490   24.9050    4.4600 C.2   154  COH154      0.0000
      5  CHD       15.5480   27.8230    1.5030 C.2   154  COH154      0.0000
      6  NA        14.9930   29.1770    6.2010 N.2   154  COH154      0.0000
      7  C1A       15.6070   30.4730    6.1960 C.2   154  COH154      0.0000
      8  C2A       15.5510   31.1160    7.5280 C.2   154  COH154      0.0000
      9  C3A       14.9760   30.2130    8.3620 C.2   154  COH154      0.0000
     10  C4A       14.6160   29.0550    7.5480 C.2   154  COH154      0.0000
     11  CMA       14.5790   30.3430    9.8180 C.3   154  COH154      0.0000
     12  CAA       16.0430   32.5190    7.7810 C.3   154  COH154      0.0000
     13  CBA       14.9700   33.5770    7.9390 C.3   154  COH154      0.0000
     14  CGA       14.0060   33.5770    6.7690 C.2   154  COH154      0.0000
     15  O1A       14.4190   33.9700    5.6590 O.co2 154  COH154      0.0000
     16  O2A       12.8490   33.1240    6.9500 O.co2 154  COH154      0.0000
     17  NB        13.8520   26.6940    5.9830 N.ar  154  COH154      0.0000
     18  C1B       13.6350   26.8040    7.3240 C.ar  154  COH154      0.0000
     19  C2B       13.1160   25.6330    7.9390 C.ar  154  COH154      0.0000
     20  C3B       12.9510   24.7820    6.8770 C.ar  154  COH154      0.0000
     21  C4B       13.4240   25.4790    5.6880 C.ar  154  COH154      0.0000
     22  CMB       12.6880   25.5660    9.4440 C.3   154  COH154      0.0000
     23  CAB       12.3130   23.5090    6.8900 C.3   154  COH154      0.0000
     24  CBB       12.5140   22.5810    7.8980 C.3   154  COH154      0.0000
     25  NC        14.5450   26.5920    3.2640 N.2   154  COH154      0.0000
     26  C1C       14.0340   25.3660    3.3190 C.2   154  COH154      0.0000
     27  C2C       14.2220   24.6320    2.0880 C.2   154  COH154      0.0000
     28  C3C       14.8650   25.5400    1.2090 C.2   154  COH154      0.0000
     29  C4C       14.9500   26.7230    1.9750 C.2   154  COH154      0.0000
     30  CMC       13.6630   23.2280    1.9210 C.3   154  COH154      0.0000
     31  CAC       15.4730   25.3570   -0.0840 C.3   154  COH154      0.0000
     32  CBC       15.3700   24.0780   -0.7050 C.3   154  COH154      0.0000
     33  ND        15.6970   29.1740    3.4680 N.ar  154  COH154      0.0000
     34  C1D       15.9730   28.9880    2.2320 C.ar  154  COH154      0.0000
     35  C2D       16.7140   30.1580    1.6280 C.ar  154  COH154      0.0000
     36  C3D       16.8810   31.0290    2.6610 C.ar  154  COH154      0.0000
     37  C4D       16.2390   30.4420    3.8180 C.ar  154  COH154      0.0000
     38  CMD       17.1410   30.2580    0.1440 C.3   154  COH154      0.0000
     39  CAD       17.7090   32.2810    2.6350 C.3   154  COH154      0.0000
     40  CBD       19.1570   31.8830    2.8200 C.3   154  COH154      0.0000
     41  CGD       20.0810   33.0900    2.8500 C.2   154  COH154      0.0000
     42  O1D       20.4570   33.5940    1.7770 O.co2 154  COH154      0.0000
     43  O2D       20.4130   33.5660    3.9390 O.co2 154  COH154      0.0000
@<TRIPOS>BOND
     1    32    31    1
     2    31    28    1
     3    38    35    1
     4    28    29    1
     5    28    27    2
     6     5    29    1
     7     5    34    2
     8    35    34   ar
     9    35    36   ar
    10    42    41   ar
    11    30    27    1
    12    29    25    2
    13    27    26    1
    14    34    33   ar
    15    39    36    1
    16    39    40    1
    17    36    37   ar
    18    40    41    1
    19    41    43   ar
    20    25    26    1
    21    25     1    1
    22    26     4    2
    23    33    37   ar
    24    33     1    1
    25    37     2    2
    26     4    21    1
    27     1    17    1
    28     1     6    1
    29     2     7    1
    30    15    14   ar
    31    21    17   ar
    32    21    20   ar
    33    17    18   ar
    34     7     6    2
    35     7     8    1
    36     6    10    1
    37    14    16   ar
    38    14    13    1
    39    20    23    1
    40    20    19   ar
    41    23    24    1
    42    18    19   ar
    43    18     3    1
    44     8    12    1
    45     8     9    2
    46    10     3    2
    47    10     9    1
    48    12    13    1
    49    19    22    1
    50     9    11    1
