@<TRIPOS>MOLECULE
1yol_S03_A_1.pdb
 32 36 0 0 0
SMALL
GASTEIGER

@<TRIPOS>ATOM
      1  N33        1.4930   27.5650   32.6330 N.pl3 601  S03601      0.2117
      2  C1         1.0850   26.6070   31.7630 C.2   601  S03601      0.4065
      3  N6        -0.2420   26.4930   31.4910 N.2   601  S03601     -0.0027
      4  C5        -0.7240   25.5680   30.6260 C.3   601  S03601      0.5248
      5  C2         1.9620   25.7170   31.1090 C.3   601  S03601      0.2449
      6  C9         3.3420   25.5530   31.1070 C.2   601  S03601      0.0419
      7  C10        4.3370   26.2930   31.9320 C.ar  601  S03601      0.0036
      8  C11        5.4830   26.8960   31.4150 C.ar  601  S03601      0.0000
      9  C12        6.3810   27.5460   32.2740 C.ar  601  S03601      0.0031
     10  C13        6.1380   27.5780   33.6480 C.ar  601  S03601      0.0369
     11  C14        4.9990   26.9550   34.1500 C.ar  601  S03601      0.1387
     12  O16        4.6580   26.9370   35.4770 O.3   601  S03601     -0.4714
     13  C17        5.6190   26.7980   36.5040 C.3   601  S03601      0.2525
     14  C15        4.1200   26.3230   33.2900 C.ar  601  S03601      0.0367
     15  C8         3.6990   24.4920   30.2670 C.2   601  S03601      0.1771
     16  C3         1.4910   24.7800   30.2280 C.2   601  S03601      0.3240
     17  N4         0.0740   24.6930   29.9710 N.2   601  S03601     -0.0103
     18  N7         2.5200   24.0480   29.7610 N.pl3 601  S03601     -0.1499
     19  C18        2.4510   23.0580   28.8340 C.ar  601  S03601      0.1432
     20  C19        3.0410   21.7860   28.9280 C.ar  601  S03601      0.0404
     21  C20        2.9480   20.8050   27.9080 C.ar  601  S03601      0.0006
     22  C23        1.7950   23.2800   27.6310 C.ar  601  S03601      0.0404
     23  C22        1.6960   22.3360   26.6180 C.ar  601  S03601      0.0006
     24  C21        2.2660   21.0740   26.7190 C.ar  601  S03601     -0.0059
     25  C24        2.0540   20.1720   25.5040 C.3   601  S03601      0.0992
     26  N26        2.7260   18.8850   25.3350 N.3   601  S03601     -0.2688
     27  C27        4.0050   18.8180   24.6560 C.3   601  S03601      0.0750
     28  C28        3.8330   18.4350   23.1780 C.3   601  S03601      0.0502
     29  C31        1.9350   17.6570   25.2650 C.3   601  S03601      0.0750
     30  C30        1.5390   17.3790   23.8140 C.3   601  S03601      0.0502
     31  C29        2.6780   17.5020   22.7780 C.3   601  S03601      0.1548
     32  O32        3.2070   16.2220   22.4120 O.3   601  S03601     -0.2231
@<TRIPOS>BOND
     1    32    31    1
     2    31    28    1
     3    31    30    1
     4    28    27    1
     5    30    29    1
     6    27    26    1
     7    29    26    1
     8    26    25    1
     9    25    24    1
    10    23    24   ar
    11    23    22   ar
    12    24    21   ar
    13    22    19   ar
    14    21    20   ar
    15    19    20   ar
    16    19    18    1
    17    18    16    1
    18    18    15    1
    19    17    16    2
    20    17     4    1
    21    16     5    1
    22    15     6    2
    23     4     3    1
    24     6     5    1
    25     6     7    1
    26     5     2    1
    27     8     7   ar
    28     8     9   ar
    29     3     2    2
    30     2     1    1
    31     7    14   ar
    32     9    10   ar
    33    14    11   ar
    34    10    11   ar
    35    11    12    1
    36    12    13    1
