@<TRIPOS>MOLECULE
1yom_P01_A_1.pdb
 27 29 0 0 0
SMALL
GASTEIGER

@<TRIPOS>ATOM
      1 CL1         8.9950  -11.5690   -2.9010 Cl      1  P011       -0.0822
      2  C5A        9.9650  -10.1660   -3.4120 C.ar    1  P011        0.0590
      3  C6A        9.2810   -9.1520   -4.0720 C.ar    1  P011        0.0280
      4  C1A        9.9690   -8.0280   -4.5130 C.ar    1  P011        0.0740
      5  C2A       11.3480   -7.9630   -4.2550 C.ar    1  P011        0.0166
      6  C3A       12.0330   -8.9840   -3.5820 C.ar    1  P011        0.0022
      7  C4A       11.3350  -10.1030   -3.1570 C.ar    1  P011        0.0115
      8  N6         9.3900   -7.0080   -5.2090 N.pl3   1  P011       -0.1814
      9  C6         8.0890   -6.9080   -5.6320 C.2     1  P011        0.2383
     10  C5         7.7540   -5.8320   -6.4620 C.2     1  P011        0.1693
     11  N7         8.4890   -4.7780   -6.9980 N.2     1  P011       -0.2402
     12  C4         6.4840   -5.6950   -6.8880 C.2     1  P011        0.2197
     13  N9         6.3540   -4.6380   -7.6610 N.pl3   1  P011       -0.2624
     14  C10        4.9910   -4.3820   -8.1910 C.3     1  P011        0.0770
     15  C11        4.9170   -4.7360   -9.6760 C.3     1  P011        0.0216
     16  C12        4.5100   -2.9660   -7.8640 C.3     1  P011        0.0216
     17  C8         7.5700   -4.0440   -7.7340 C.3     1  P011        0.2220
     18  N3         5.4980   -6.5510   -6.5520 N.2     1  P011       -0.3099
     19  C2         5.8250   -7.6020   -5.7510 C.1     1  P011        0.2227
     20  N1         7.0990   -7.7740   -5.2910 N.2     1  P011       -0.3081
     21  N21        4.8400   -8.4660   -5.4080 N.pl3   1  P011       -0.1508
     22  C22        4.9900   -9.4210   -4.3150 C.3     1  P011        0.1384
     23  C25        4.0260  -10.5900   -4.5320 C.3     1  P011        0.0234
     24  C26        4.2590  -11.2280   -5.9050 C.3     1  P011        0.0019
     25  C27        4.1250  -11.6100   -3.3990 C.3     1  P011        0.0019
     26  C23        4.7840   -8.7250   -2.9640 C.3     1  P011        0.2044
     27  O24        3.4070   -8.6540   -2.6080 O.3     1  P011       -0.2185
@<TRIPOS>BOND
     1    15    14    1
     2    14    16    1
     3    14    13    1
     4    17    13    1
     5    17    11    1
     6    13    12    1
     7    11    10    2
     8    12    18    2
     9    12    10    1
    10    18    19    2
    11    10     9    1
    12    24    23    1
    13    19    21    1
    14    19    20    2
    15     9    20    2
    16     9     8    1
    17    21    22    1
    18     8     4    1
    19    23    22    1
    20    23    25    1
    21     4     5   ar
    22     4     3   ar
    23    22    26    1
    24     5     6   ar
    25     3     2   ar
    26     6     7   ar
    27     2     7   ar
    28     2     1    1
    29    26    27    1
