@<TRIPOS>MOLECULE
1yon_APX_A_1.pdb
 40 43 0 0 0
SMALL
GASTEIGER

@<TRIPOS>ATOM
      1  PM        20.0290    0.1890    8.2920 P.3   501  APX501      0.2189
      2  O6M       21.1230    1.1800    8.1700 O.3   501  APX501     -0.4371
      3  O7M       19.8040   -0.9490    7.3830 O.2   501  APX501     -0.5170
      4  O3N       18.6890    0.9120    8.5990 O.3   501  APX501     -0.2703
      5  O5M       20.2770   -0.5870    9.6280 O.3   501  APX501     -0.3112
      6  C5M       19.8200   -1.9210    9.5530 C.3   501  APX501      0.1813
      7  C4M       20.9020   -2.9240    9.8720 C.3   501  APX501      0.1807
      8  O4M       22.2330   -2.4630   10.3750 O.3   501  APX501     -0.3237
      9  C3M       20.1300   -3.3540   11.0870 C.3   501  APX501      0.2168
     10  O3M       20.5730   -4.6710   11.4580 O.3   501  APX501     -0.2175
     11  C2M       20.5530   -2.2270   12.0620 C.3   501  APX501      0.2433
     12  O2M       20.4080   -2.6290   13.4280 O.3   501  APX501     -0.2148
     13  C1M       22.0260   -1.9100   11.7060 C.3   501  APX501      0.3023
     14  O1N       22.3280   -0.4490   11.6890 O.3   501  APX501     -0.1869
     15  PA        17.1960    0.4650    8.2290 P.3   501  APX501      0.2189
     16  O6B       16.9920    0.4180    6.7790 O.2   501  APX501     -0.5170
     17  O7B       16.8740   -0.7520    9.0820 O.3   501  APX501     -0.4371
     18  O5B       16.4200    1.6470    8.8870 O.3   501  APX501     -0.3112
     19  C5B       16.6410    2.9860    8.4630 C.3   501  APX501      0.1813
     20  C4B       15.6100    3.9410    9.1550 C.3   501  APX501      0.1820
     21  O4B       14.3420    3.5330    8.6300 O.3   501  APX501     -0.3136
     22  C3B       15.5120    3.7830   10.6790 C.3   501  APX501      0.2157
     23  O3B       14.9750    5.0030   11.2980 O.3   501  APX501     -0.2175
     24  C2B       14.5280    2.6630   10.8190 C.3   501  APX501      0.2314
     25  O2B       13.9070    2.6790   12.1180 O.3   501  APX501     -0.2630
     26  C1B       13.5410    3.1890    9.7540 C.3   501  APX501      0.3158
     27  N9A       12.5280    2.2000    9.4810 N.pl3 501  APX501     -0.1439
     28  C4A       11.2470    2.5090    9.3650 C.2   501  APX501      0.3518
     29  N3A       10.5870    3.7060    9.4070 N.2   501  APX501     -0.0055
     30  C2A        9.2640    3.8080    9.2570 C.3   501  APX501      0.5254
     31  N1A        8.5870    2.5910    9.0370 N.2   501  APX501      0.0021
     32  C6A        9.2570    1.3240    8.9740 C.2   501  APX501      0.4393
     33  C5A       10.6120    1.2950    9.1430 C.2   501  APX501      0.2526
     34  N7A       11.5070    0.3080    9.1030 N.2   501  APX501     -0.2095
     35  C8A       12.6890    0.8780    9.3320 C.3   501  APX501      0.3377
     36  N6A        8.6260    0.1640    8.7590 N.pl3 501  APX501      0.2180
     37  P2        14.6140    1.7960   13.3650 P.3   501  APX501      0.5328
     38  OP1       13.5230    1.8510   14.5170 O.3   501  APX501     -0.1145
     39  OP2       14.6920    0.3550   12.8570 O.2   501  APX501     -0.2224
     40  OP3       15.9620    2.4270   13.6560 O.3   501  APX501     -0.1145
@<TRIPOS>BOND
     1    16    15    2
     2     3     1    2
     3     2     1    1
     4    15     4    1
     5    15    18    1
     6    15    17    1
     7     1     4    1
     8     1     5    1
     9    19    18    1
    10    19    20    1
    11    21    20    1
    12    21    26    1
    13    36    32    1
    14    32    31    2
    15    32    33    1
    16    31    30    1
    17    34    33    2
    18    34    35    1
    19    33    28    1
    20    20    22    1
    21    30    29    1
    22    35    27    1
    23    28    29    2
    24    28    27    1
    25    27    26    1
    26     6     5    1
    27     6     7    1
    28    26    24    1
    29     7     8    1
    30     7     9    1
    31     8    13    1
    32    22    24    1
    33    22    23    1
    34    24    25    1
    35     9    10    1
    36     9    11    1
    37    14    13    1
    38    13    11    1
    39    11    12    1
    40    25    37    1
    41    39    37    2
    42    37    40    1
    43    37    38    1
