@<TRIPOS>MOLECULE
1yoo_PLP_A_1.pdb
 15 15 0 0 0
SMALL
GASTEIGER

@<TRIPOS>ATOM
      1  N1        26.7600    4.7080  -15.0330 N.ar  413  PLP413     -0.2452
      2  C2        26.2380    5.7160  -15.7660 C.ar  413  PLP413      0.0978
      3  C2A       26.9400    6.1520  -17.0210 C.3   413  PLP413      0.0555
      4  C3        25.0910    6.3000  -15.3970 C.ar  413  PLP413      0.2049
      5  O3        24.5960    7.3080  -16.1490 O.3   413  PLP413     -0.2857
      6  C4        24.4250    5.8720  -14.2660 C.ar  413  PLP413      0.0182
      7  C4A       23.2200    6.4590  -13.9030 C.3   413  PLP413      0.0342
      8  C5        24.9640    4.8300  -13.5110 C.ar  413  PLP413      0.0261
      9  C6        26.1410    4.2660  -13.9050 C.ar  413  PLP413      0.0965
     10  C5A       24.2610    4.2650  -12.2530 C.3   413  PLP413      0.1815
     11  O4P       23.3700    5.0360  -11.4360 O.3   413  PLP413     -0.2653
     12  P         22.8310    4.3670  -10.1070 P.3   413  PLP413      0.5329
     13  O1P       22.0690    3.1570  -10.4330 O.2   413  PLP413     -0.2224
     14  O2P       21.7930    5.4910   -9.5900 O.3   413  PLP413     -0.1145
     15  O3P       23.9660    4.2410   -9.1740 O.3   413  PLP413     -0.1145
@<TRIPOS>BOND
     1     3     2    1
     2     5     4    1
     3     2     4   ar
     4     2     1   ar
     5     4     6   ar
     6     1     9   ar
     7     6     7    1
     8     6     8   ar
     9     9     8   ar
    10     8    10    1
    11    10    11    1
    12    11    12    1
    13    13    12    2
    14    12    14    1
    15    12    15    1
