@<TRIPOS>MOLECULE
1you_PFD_A_1.pdb
 29 31 0 0 0
SMALL
GASTEIGER

@<TRIPOS>ATOM
      1  F29       42.0890   29.5350   -7.3330 F     998  PFD998     -0.2042
      2  C28       41.7620   30.4600   -6.4300 C.ar  998  PFD998      0.1403
      3  C26       40.4110   30.7680   -6.2270 C.ar  998  PFD998      0.0328
      4  C24       40.0780   31.7620   -5.3140 C.ar  998  PFD998      0.0398
      5  C27       42.7860   31.1330   -5.7540 C.ar  998  PFD998      0.0328
      6  C25       42.4280   32.1030   -4.8230 C.ar  998  PFD998      0.0398
      7  C23       41.0830   32.4130   -4.6010 C.ar  998  PFD998      0.1454
      8  O22       40.7230   33.3360   -3.6880 O.3   998  PFD998     -0.4535
      9  C20       41.0600   34.6710   -3.6600 C.ar  998  PFD998      0.1455
     10  C16       41.4230   35.3780   -4.7970 C.ar  998  PFD998      0.0406
     11  C12       41.7400   36.7460   -4.6610 C.ar  998  PFD998      0.0401
     12  C17       41.0180   35.3380   -2.4230 C.ar  998  PFD998      0.0406
     13  C13       41.3460   36.6930   -2.2980 C.ar  998  PFD998      0.0401
     14  C6        41.7010   37.4090   -3.4300 C.ar  998  PFD998      0.1412
     15  O2        42.1240   38.7300   -3.3230 O.3   998  PFD998     -0.4527
     16  C1        43.3040   39.0440   -2.4320 C.3   998  PFD998      0.3402
     17  C5        44.3030   40.1410   -2.8970 C.3   998  PFD998      0.1075
     18  C11       44.9380   40.9890   -1.7550 C.3   998  PFD998      0.1483
     19  O15       46.1660   40.4680   -1.1670 O.3   998  PFD998     -0.3536
     20  C19       46.1340   40.3520    0.2790 C.3   998  PFD998      0.1422
     21  C21       47.4430   39.9030    0.9170 C.3   998  PFD998      0.0346
     22  C4        44.2880   37.9490   -1.9870 C.1   998  PFD998      0.2458
     23  O10       45.0570   37.4150   -2.7960 O.2   998  PFD998     -0.2086
     24  N9        44.4250   37.5400   -0.7020 N.2   998  PFD998     -0.2319
     25  C14       43.6440   38.0780    0.2460 C.1   998  PFD998      0.3754
     26  O18       43.7870   37.6320    1.4920 O.2   998  PFD998     -0.1738
     27  N7        42.7430   39.0390   -0.0030 N.2   998  PFD998     -0.2319
     28  C3        42.5450   39.5380   -1.2450 C.1   998  PFD998      0.2458
     29  O8        41.7030   40.4060   -1.5140 O.2   998  PFD998     -0.2086
@<TRIPOS>BOND
     1     1     2    1
     2     2     3   ar
     3     2     5   ar
     4     3     4   ar
     5     5     6   ar
     6     4     7   ar
     7     6     7   ar
     8    10    11   ar
     9    10     9   ar
    10    11    14   ar
    11     7     8    1
    12     8     9    1
    13     9    12   ar
    14    14    15    1
    15    14    13   ar
    16    15    16    1
    17    17    16    1
    18    17    18    1
    19    23    22    2
    20    16    22    1
    21    16    28    1
    22    12    13   ar
    23    22    24    2
    24    18    19    1
    25    29    28    2
    26    28    27    2
    27    19    20    1
    28    24    25    2
    29    27    25    2
    30    25    26    2
    31    20    21    1
