@<TRIPOS>MOLECULE
1yow_P0E_A_1.pdb
 46 45 0 0 0
SMALL
GASTEIGER

@<TRIPOS>ATOM
      1  O1        22.6540   31.3510   54.3130 O.3   201  P0E201     -0.4426
      2  C2        21.8830   30.2670   54.9230 C.3   201  P0E201      0.2425
      3  C3        20.7230   29.8770   54.0410 C.3   201  P0E201      0.2543
      4  C4        22.8040   29.1130   55.1870 C.3   201  P0E201      0.2010
      5  O5        19.8050   30.9970   54.0240 O.3   201  P0E201     -0.4444
      6  O6        23.1450   29.2050   56.5600 O.3   201  P0E201     -0.2662
      7  O7        25.3640   29.2190   57.8000 O.3   201  P0E201     -0.1145
      8  P8        24.1970   28.2440   57.3100 P.3   201  P0E201      0.5327
      9  O9        24.8240   27.1170   56.3100 O.2   201  P0E201     -0.2224
     10  O10       23.4980   27.5440   58.5780 O.3   201  P0E201     -0.1145
     11  C11       22.7950   32.6840   54.7800 C.2   201  P0E201      0.3412
     12  O12       23.5480   33.4840   54.2470 O.2   201  P0E201     -0.2449
     13  C13       18.4510   30.7860   54.1300 C.2   201  P0E201      0.3171
     14  O14       17.9530   29.7360   54.5180 O.2   201  P0E201     -0.2501
     15  C15       21.9380   33.0800   56.0100 C.2   201  P0E201      0.0773
     16  C16       22.1950   34.3610   56.8560 C.2   201  P0E201     -0.0195
     17  C17       23.3610   35.3410   56.5240 C.3   201  P0E201      0.0263
     18  C18       23.2720   36.5130   57.5370 C.3   201  P0E201      0.0047
     19  C19       24.2670   37.6550   57.3270 C.3   201  P0E201      0.0007
     20  C20       24.9460   38.0970   58.6580 C.3   201  P0E201      0.0047
     21  C21       24.0280   38.1480   59.9060 C.3   201  P0E201      0.0257
     22  C22       24.4730   37.1250   60.9660 C.2   201  P0E201     -0.0307
     23  C23       23.7900   36.5970   62.0220 C.2   201  P0E201     -0.0307
     24  C24       17.5990   31.9930   53.7190 C.3   201  P0E201      0.1096
     25  C25       18.2880   33.3510   53.9810 C.3   201  P0E201      0.0116
     26  C26       18.3860   33.6720   55.4920 C.3   201  P0E201      0.0006
     27  C27       18.0480   35.1400   55.8040 C.3   201  P0E201      0.0000
     28  C28       18.1680   35.4620   57.3030 C.3   201  P0E201      0.0003
     29  C29       17.8570   36.9400   57.5900 C.3   201  P0E201      0.0047
     30  C30       19.0290   37.6210   58.3230 C.3   201  P0E201      0.0257
     31  C31       19.2230   39.0790   57.9140 C.2   201  P0E201     -0.0307
     32  C32       19.4990   40.1360   58.7130 C.2   201  P0E201     -0.0307
     33  C33       19.6720   40.0830   60.2100 C.3   201  P0E201      0.0257
     34  C34       22.3580   36.8450   62.5160 C.3   201  P0E201      0.0257
     35  C35       19.9740   41.4380   60.8340 C.3   201  P0E201      0.0047
     36  C36       21.4470   41.5700   61.2550 C.3   201  P0E201      0.0003
     37  C37       21.7040   41.0320   62.6830 C.3   201  P0E201      0.0000
     38  C38       23.2030   40.7770   62.9470 C.3   201  P0E201      0.0000
     39  C39       23.4860   40.2260   64.3370 C.3   201  P0E201      0.0000
     40  C40       23.1380   41.1930   65.4430 C.3   201  P0E201      0.0000
     41  C41       23.3870   40.6040   66.8470 C.3   201  P0E201      0.0000
     42  C42       21.2590   36.6320   61.4390 C.3   201  P0E201      0.0047
     43  C43       19.9800   35.9940   62.0030 C.3   201  P0E201      0.0003
     44  C44       19.3250   36.8050   63.1580 C.3   201  P0E201      0.0000
     45  C45       17.9130   37.2610   62.7990 C.3   201  P0E201      0.0000
     46  C46       17.3310   38.0950   63.9240 C.3   201  P0E201      0.0000
@<TRIPOS>BOND
     1    24    25    1
     2    24    13    1
     3    25    26    1
     4     5     3    1
     5     5    13    1
     6     3     2    1
     7    13    14    2
     8    12    11    2
     9     1    11    1
    10     1     2    1
    11    11    15    1
    12     2     4    1
    13     4     6    1
    14    26    27    1
    15    27    28    1
    16    15    16    2
    17     9     8    2
    18    17    16    1
    19    17    18    1
    20     6     8    1
    21    28    29    1
    22     8     7    1
    23     8    10    1
    24    19    18    1
    25    19    20    1
    26    29    30    1
    27    31    30    1
    28    31    32    2
    29    20    21    1
    30    32    33    1
    31    21    22    1
    32    33    35    1
    33    35    36    1
    34    22    23    2
    35    36    37    1
    36    42    43    1
    37    42    34    1
    38    43    44    1
    39    23    34    1
    40    37    38    1
    41    45    44    1
    42    45    46    1
    43    38    39    1
    44    39    40    1
    45    40    41    1
