@<TRIPOS>MOLECULE
1yp0_PEF_A_1.pdb
 47 46 0 0 0
SMALL
GASTEIGER

@<TRIPOS>ATOM
      1  C2        74.5310   54.1720    6.6270 C.3   201  PEF201      0.2420
      2  C1        73.9540   54.9870    5.6020 C.3   201  PEF201      0.1964
      3  N         75.5830   54.7480    0.7890 N.3   201  PEF201     -0.1286
      4  C3        75.6740   55.1410    7.1790 C.3   201  PEF201      0.2543
      5  C4        73.9770   56.5200    1.0730 C.3   201  PEF201      0.1696
      6  C5        75.1160   56.0380    0.1600 C.3   201  PEF201      0.1417
      7  C10       73.1050   52.7590    7.7560 C.2   201  PEF201      0.3171
      8  C11       71.6110   53.0370    8.0600 C.3   201  PEF201      0.1096
      9  C12       70.8800   51.9520    8.7280 C.3   201  PEF201      0.0116
     10  C13       69.8500   52.7070    9.5650 C.3   201  PEF201      0.0006
     11  C14       68.6090   51.5890    9.5080 C.3   201  PEF201      0.0000
     12  C15       67.8470   52.4490   10.3040 C.3   201  PEF201      0.0000
     13  C16       66.6240   52.3530    9.4420 C.3   201  PEF201      0.0000
     14  C17       66.1270   53.4270   10.2460 C.3   201  PEF201      0.0000
     15  C18       66.1160   54.6360    9.4420 C.3   201  PEF201      0.0000
     16  C19       65.6580   55.5210   10.4930 C.3   201  PEF201      0.0000
     17  C20       66.7540   56.5210   10.1830 C.3   201  PEF201      0.0000
     18  C21       66.4170   57.2180   11.3460 C.3   201  PEF201      0.0000
     19  C22       67.4590   57.9880   11.9670 C.3   201  PEF201      0.0000
     20  C23       66.6660   58.4650   13.0230 C.3   201  PEF201      0.0000
     21  C24       67.3700   59.3050   13.8940 C.3   201  PEF201      0.0000
     22  C25       66.2960   59.6770   14.8250 C.3   201  PEF201      0.0000
     23  C30       75.7820   55.2340    9.3660 C.2   201  PEF201      0.3171
     24  C31       75.1310   54.5290   10.4240 C.3   201  PEF201      0.1096
     25  C32       74.8950   55.4900   11.5110 C.3   201  PEF201      0.0116
     26  C33       73.7550   54.6760   12.0820 C.3   201  PEF201      0.0006
     27  C34       72.9210   55.4410   13.0600 C.3   201  PEF201      0.0000
     28  C35       71.7090   54.5340   13.2970 C.3   201  PEF201      0.0000
     29  C36       70.7240   55.1190   14.2840 C.3   201  PEF201      0.0000
     30  C37       69.5420   54.1790   14.2460 C.3   201  PEF201      0.0000
     31  C38       68.4340   54.7180   15.0920 C.3   201  PEF201      0.0000
     32  C39       67.3550   53.8800   14.5410 C.3   201  PEF201      0.0000
     33  C40       66.1340   54.6050   14.9190 C.3   201  PEF201      0.0000
     34  C41       65.1960   53.9480   13.9340 C.3   201  PEF201      0.0000
     35  C42       63.9960   54.8770   13.9030 C.3   201  PEF201      0.0000
     36  C43       63.1940   54.5060   12.6950 C.3   201  PEF201      0.0000
     37  C44       62.0890   55.5140   12.4840 C.3   201  PEF201      0.0000
     38  C45       61.3410   55.0720   11.2480 C.3   201  PEF201      0.0000
     39  O4        73.6950   51.7700    8.3270 O.2   201  PEF201     -0.2501
     40  O5        76.0260   56.4430    9.3840 O.2   201  PEF201     -0.2501
     41  O2        73.4690   53.6850    7.1980 O.3   201  PEF201     -0.4457
     42  O3        75.5240   54.4990    8.3690 O.3   201  PEF201     -0.4444
     43  O1P       72.8310   57.3420    3.9430 O.3   201  PEF201     -0.4373
     44  O2P       72.1700   54.9640    3.5710 O.2   201  PEF201     -0.5172
     45  O3P       74.4940   55.1810    4.4620 O.3   201  PEF201     -0.3100
     46  O4P       74.3450   55.8980    2.2750 O.3   201  PEF201     -0.3125
     47  P         73.3940   55.9870    3.5590 P.3   201  PEF201      0.2141
@<TRIPOS>BOND
     1     6     3    1
     2     6     5    1
     3     5    46    1
     4    46    47    1
     5    47    44    2
     6    47    43    1
     7    47    45    1
     8    45     2    1
     9     2     1    1
    10     1     4    1
    11     1    41    1
    12     4    42    1
    13    41     7    1
    14     7     8    1
    15     7    39    2
    16     8     9    1
    17    42    23    1
    18     9    10    1
    19    23    40    2
    20    23    24    1
    21    13    14    1
    22    13    12    1
    23    15    14    1
    24    15    16    1
    25    11    10    1
    26    11    12    1
    27    17    16    1
    28    17    18    1
    29    24    25    1
    30    38    37    1
    31    18    19    1
    32    25    26    1
    33    19    20    1
    34    26    27    1
    35    37    36    1
    36    36    35    1
    37    20    21    1
    38    27    28    1
    39    28    29    1
    40    21    22    1
    41    35    34    1
    42    34    33    1
    43    30    29    1
    44    30    31    1
    45    32    33    1
    46    32    31    1
