@<TRIPOS>MOLECULE
1yp1_III_B_1.pdb
 26 25 0 0 0
SMALL
GASTEIGER

@<TRIPOS>ATOM
      1  N         14.7060  -45.2610  -86.7400 N.3     1  LYS1       -0.1231
      2  CA        15.9640  -44.5900  -87.1850 C.3     1  LYS1        0.1693
      3  C         16.8940  -45.4730  -88.0320 C.2     1  LYS1        0.2592
      4  O         17.1210  -45.2010  -89.2020 O.2     1  LYS1       -0.2718
      5  CB        16.7170  -44.0580  -85.9630 C.3     1  LYS1        0.0285
      6  CG        17.8590  -43.1370  -86.3390 C.3     1  LYS1        0.0035
      7  CD        19.1520  -43.7320  -85.8910 C.3     1  LYS1        0.0206
      8  CE        20.3190  -42.7910  -86.0790 C.3     1  LYS1        0.1093
      9  NZ        21.3730  -43.2860  -85.1610 N.3     1  LYS1       -0.1314
     10  N         17.4360  -46.5350  -87.4620 N.am    2  ASN2       -0.1960
     11  CA        18.3230  -47.3880  -88.2550 C.3     2  ASN2        0.1819
     12  C         17.6190  -48.5550  -88.9750 C.2     2  ASN2        0.2622
     13  O         17.0280  -49.4420  -88.3630 O.2     2  ASN2       -0.2715
     14  CB        19.4500  -47.9160  -87.3710 C.3     2  ASN2        0.1195
     15  CG        20.7230  -48.1460  -88.1370 C.2     2  ASN2        0.2630
     16  OD1       21.6550  -48.7460  -87.6220 O.2     2  ASN2       -0.2716
     17  ND2       20.7780  -47.6610  -89.3690 N.am    2  ASN2       -0.0877
     18  N         17.6670  -48.5980  -90.2900 N.am    3  LEU3       -0.1941
     19  CA        16.9330  -49.7040  -90.9070 C.3     3  LEU3        0.1978
     20  C         17.7720  -50.8450  -91.3930 C.2     3  LEU3        0.3842
     21  O         17.9890  -50.9360  -92.6180 O.co2   3  LEU3       -0.2437
     22  CB        16.0460  -49.1950  -92.0270 C.3     3  LEU3        0.0333
     23  CG        15.7360  -47.7200  -91.8690 C.3     3  LEU3        0.0023
     24  CD1       16.6280  -46.9950  -92.8290 C.3     3  LEU3        0.0001
     25  CD2       14.2550  -47.4370  -92.1250 C.3     3  LEU3        0.0001
     26  OXT       18.1880  -51.6290  -90.5310 O.co2   3  LEU3       -0.2437
@<TRIPOS>BOND
     1    24    23    1
     2    21    20   ar
     3    25    23    1
     4    22    23    1
     5    22    19    1
     6    20    19    1
     7    20    26   ar
     8    19    18    1
     9    18    12   am
    10    17    15   am
    11     4     3    2
    12    12    13    2
    13    12    11    1
    14    11    10    1
    15    11    14    1
    16    15    16    2
    17    15    14    1
    18     3    10   am
    19     3     2    1
    20     2     1    1
    21     2     5    1
    22     6     5    1
    23     6     7    1
    24     8     7    1
    25     8     9    1
