@<TRIPOS>MOLECULE
1yp2_PMB_A_1.pdb
 11 11 0 0 0
SMALL
GASTEIGER

@<TRIPOS>ATOM
      1  C1        41.7880   27.9630   47.3960 C.ar  3226  PMB3226     0.0000
      2  C2        42.2650   26.9530   46.5630 C.ar  3226  PMB3226     0.0000
      3  C3        43.3140   26.1620   46.9280 C.ar  3226  PMB3226     0.0000
      4  C4        43.9180   26.3600   48.1580 C.ar  3226  PMB3226     0.0000
      5  C5        43.4580   27.3840   49.0620 C.ar  3226  PMB3226     0.0000
      6  C6        42.3710   28.2040   48.6730 C.ar  3226  PMB3226     0.0000
      7  S1        40.4670   28.9110   46.7630 S.3   3226  PMB3226     0.0000
      8  O1        39.3460   28.7820   47.6930 O.3   3226  PMB3226     0.0000
      9  O2        40.1980   28.3280   45.4490 O.3   3226  PMB3226     0.0000
     10  O3        41.0380   30.2610   46.6740 O.3   3226  PMB3226     0.0000
     11 HG         45.3080   25.1680   48.4140 Hg    3226  PMB3226     0.0000
@<TRIPOS>BOND
     1     9     7    1
     2     2     3   ar
     3     2     1   ar
     4    10     7    1
     5     7     1    1
     6     7     8    1
     7     3     4   ar
     8     1     6   ar
     9     4    11    1
    10     4     5   ar
    11     6     5   ar
