@<TRIPOS>MOLECULE
1yp3_ATP_A_1.pdb
 31 33 0 0 0
SMALL
GASTEIGER

@<TRIPOS>ATOM
      1  PG        57.5480  -14.9430   60.5330 P.3   757  ATP757      0.5373
      2  O1G       56.8530  -15.8240   61.5090 O.3   757  ATP757     -0.1143
      3  O2G       57.5610  -13.4730   60.9980 O.3   757  ATP757     -0.1143
      4  O3G       58.9790  -15.4640   60.3460 O.2   757  ATP757     -0.2221
      5  PB        57.0720  -14.1690   57.8340 P.3   757  ATP757      0.2277
      6  O1B       56.2280  -14.7090   56.7450 O.2   757  ATP757     -0.5168
      7  O2B       58.5450  -14.0200   57.4780 O.3   757  ATP757     -0.4368
      8  O3B       56.8320  -15.1100   59.0880 O.3   757  ATP757     -0.2258
      9  PA        57.0020  -11.2860   58.3980 P.3   757  ATP757      0.2189
     10  O1A       58.4510  -11.3720   58.7070 O.3   757  ATP757     -0.4371
     11  O2A       56.7330  -10.5050   57.1120 O.2   757  ATP757     -0.5170
     12  O3A       56.4050  -12.7740   58.2760 O.3   757  ATP757     -0.2700
     13  O5'       56.2210  -10.6900   59.6570 O.3   757  ATP757     -0.3112
     14  C5'       54.8530  -10.9720   59.8220 C.3   757  ATP757      0.1813
     15  C4'       54.0820   -9.6990   60.1500 C.3   757  ATP757      0.1821
     16  O4'       54.2800   -9.3530   61.4880 O.3   757  ATP757     -0.3135
     17  C3'       54.5020   -8.5210   59.3060 C.3   757  ATP757      0.2184
     18  O3'       53.2880   -7.9060   58.8650 O.3   757  ATP757     -0.2174
     19  C2'       55.3710   -7.6750   60.2540 C.3   757  ATP757      0.2570
     20  O2'       55.4600   -6.2920   60.0510 O.3   757  ATP757     -0.2130
     21  C1'       54.7910   -8.0280   61.6080 C.3   757  ATP757      0.3186
     22  N9        55.6570   -8.1980   62.8170 N.pl3 757  ATP757     -0.1439
     23  C8        57.0240   -8.3830   62.7890 C.3   757  ATP757      0.3377
     24  N7        57.4270   -8.4920   64.0360 N.2   757  ATP757     -0.2095
     25  C5        56.3860   -8.3880   64.9070 C.2   757  ATP757      0.2526
     26  C6        56.1920   -8.4220   66.3000 C.2   757  ATP757      0.4393
     27  N6        57.1240   -8.5820   67.2080 N.pl3 757  ATP757      0.2180
     28  N1        54.9130   -8.2710   66.8170 N.2   757  ATP757      0.0021
     29  C2        53.8220   -8.0890   65.9960 C.3   757  ATP757      0.5254
     30  N3        53.9890   -8.0530   64.6300 N.2   757  ATP757     -0.0055
     31  C4        55.2480   -8.2010   64.1070 C.2   757  ATP757      0.3518
@<TRIPOS>BOND
     1     6     5    2
     2    11     9    2
     3     7     5    1
     4     5    12    1
     5     5     8    1
     6    12     9    1
     7     9    10    1
     8     9    13    1
     9    18    17    1
    10     8     1    1
    11    17    15    1
    12    17    19    1
    13    13    14    1
    14    14    15    1
    15    20    19    1
    16    15    16    1
    17    19    21    1
    18     4     1    2
    19     1     3    1
    20     1     2    1
    21    16    21    1
    22    21    22    1
    23    23    22    1
    24    23    24    1
    25    22    31    1
    26    24    25    2
    27    31    30    2
    28    31    25    1
    29    30    29    1
    30    25    26    1
    31    29    28    1
    32    26    28    2
    33    26    27    1
