@<TRIPOS>MOLECULE
1yp4_ADQ_B_1.pdb
 38 41 0 0 0
SMALL
GASTEIGER

@<TRIPOS>ATOM
      1  PB         8.1550   29.6520   52.1390 P.3   506  ADQ506      0.2208
      2  O1B        9.1080   28.7690   51.3940 O.3   506  ADQ506     -0.4371
      3  O2B        7.5880   30.9020   51.2590 O.2   506  ADQ506     -0.5170
      4  O3B        8.8630   30.1550   53.3220 O.3   506  ADQ506     -0.2857
      5  PA         6.6150   27.4690   53.2160 P.3   506  ADQ506      0.2189
      6  O1A        6.1510   26.4550   52.2530 O.2   506  ADQ506     -0.5170
      7  O2A        5.5990   27.6770   54.2790 O.3   506  ADQ506     -0.4371
      8  O3A        6.8980   28.7990   52.4310 O.3   506  ADQ506     -0.2703
      9  O5D        8.0870   27.0550   53.8040 O.3   506  ADQ506     -0.3112
     10  C5D        8.2160   25.8770   54.6390 C.3   506  ADQ506      0.1813
     11  C4D        9.3720   24.9270   54.2750 C.3   506  ADQ506      0.1821
     12  O4D        8.8920   23.6060   54.5920 O.3   506  ADQ506     -0.3135
     13  C3D        9.7630   24.8900   52.7950 C.3   506  ADQ506      0.2184
     14  O3D       11.1780   25.1910   52.6400 O.3   506  ADQ506     -0.2174
     15  C2D        9.4390   23.4820   52.2520 C.3   506  ADQ506      0.2570
     16  O2D       10.6000   22.8150   51.6800 O.3   506  ADQ506     -0.2130
     17  C1D        8.8110   22.7410   53.4430 C.3   506  ADQ506      0.3186
     18  N9         7.2920   22.3160   53.2810 N.pl3 506  ADQ506     -0.1439
     19  C8         6.3040   22.9850   52.6160 C.3   506  ADQ506      0.3377
     20  N7         5.1350   22.3180   52.6950 N.2   506  ADQ506     -0.2095
     21  C5         5.3220   21.2290   53.3930 C.2   506  ADQ506      0.2526
     22  C6         4.5030   20.1340   53.8220 C.2   506  ADQ506      0.4393
     23  N6         3.2090   20.0920   53.4960 N.pl3 506  ADQ506      0.2180
     24  N1         5.0480   19.0950   54.5890 N.2   506  ADQ506      0.0021
     25  C2         6.3900   19.0860   54.9590 C.3   506  ADQ506      0.5254
     26  N3         7.1880   20.1360   54.5500 N.2   506  ADQ506     -0.0055
     27  C4         6.7170   21.2060   53.7860 C.2   506  ADQ506      0.3518
     28  C1'        8.9590   30.5740   54.7830 C.3   506  ADQ506      0.2742
     29  C2'        8.1300   31.5120   55.7180 C.3   506  ADQ506      0.2409
     30  C3'        8.5120   33.0550   55.5970 C.3   506  ADQ506      0.2198
     31  C4'       10.0550   33.2590   55.6610 C.3   506  ADQ506      0.2144
     32  C5'       10.7470   32.3360   54.5900 C.3   506  ADQ506      0.1835
     33  C6'       12.2930   32.3800   54.5510 C.3   506  ADQ506      0.2142
     34  O2'        6.7070   31.3370   55.4060 O.3   506  ADQ506     -0.2149
     35  O3'        7.8870   33.7780   56.6850 O.3   506  ADQ506     -0.2174
     36  O4'       10.5200   34.6020   55.3460 O.3   506  ADQ506     -0.2176
     37  O5'       10.3720   30.9280   54.7740 O.3   506  ADQ506     -0.3254
     38  O6'       12.8040   31.3890   53.5840 O.3   506  ADQ506     -0.2176
@<TRIPOS>BOND
     1     3     1    2
     2     2     1    1
     3    16    15    1
     4     1     8    1
     5     1     4    1
     6    15    13    1
     7    15    17    1
     8     6     5    2
     9     8     5    1
    10    19    20    1
    11    19    18    1
    12    14    13    1
    13    20    21    2
    14    13    11    1
    15     5     9    1
    16     5     7    1
    17    18    17    1
    18    18    27    1
    19     4    28    1
    20    21    27    1
    21    21    22    1
    22    17    12    1
    23    23    22    1
    24    38    33    1
    25    27    26    2
    26     9    10    1
    27    22    24    2
    28    11    12    1
    29    11    10    1
    30    26    25    1
    31    33    32    1
    32    24    25    1
    33    32    37    1
    34    32    31    1
    35    37    28    1
    36    28    29    1
    37    36    31    1
    38    34    29    1
    39    30    31    1
    40    30    29    1
    41    30    35    1
