@<TRIPOS>MOLECULE
1yp4_ADP_A_1.pdb
 27 29 0 0 0
SMALL
GASTEIGER

@<TRIPOS>ATOM
      1  PB        59.5760  -14.6690   58.4900 P.3   557  ADP557      0.5373
      2  O1B       60.8150  -13.8390   58.4210 O.3   557  ADP557     -0.1143
      3  O2B       59.2830  -15.4480   57.2320 O.2   557  ADP557     -0.2221
      4  O3B       59.5590  -15.5840   59.7830 O.3   557  ADP557     -0.1143
      5  PA        57.3570  -13.4840   59.7970 P.3   557  ADP557      0.2231
      6  O1A       56.4870  -14.7270   59.7960 O.2   557  ADP557     -0.5169
      7  O2A       58.0750  -13.2030   61.0940 O.3   557  ADP557     -0.4370
      8  O3A       58.3820  -13.6200   58.6310 O.3   557  ADP557     -0.2261
      9  O5'       56.3320  -12.3510   59.3000 O.3   557  ADP557     -0.3111
     10  C5'       56.6950  -10.9370   59.1530 C.3   557  ADP557      0.1813
     11  C4'       55.4480  -10.0290   59.2430 C.3   557  ADP557      0.1821
     12  O4'       55.0670   -9.7460   60.6250 O.3   557  ADP557     -0.3135
     13  C3'       55.5080   -8.6250   58.6070 C.3   557  ADP557      0.2184
     14  O3'       54.1680   -8.3190   58.1200 O.3   557  ADP557     -0.2174
     15  C2'       56.0040   -7.7570   59.7730 C.3   557  ADP557      0.2570
     16  O2'       55.6320   -6.3730   59.6490 O.3   557  ADP557     -0.2130
     17  C1'       55.3300   -8.3920   61.0040 C.3   557  ADP557      0.3186
     18  N9        56.1660   -8.3430   62.2840 N.pl3 557  ADP557     -0.1439
     19  C8        57.5100   -8.4170   62.4110 C.3   557  ADP557      0.3377
     20  N7        57.9270   -8.3420   63.6870 N.2   557  ADP557     -0.2095
     21  C5        56.7800   -8.2140   64.4050 C.2   557  ADP557      0.2526
     22  C6        56.5480   -8.0830   65.8440 C.2   557  ADP557      0.4393
     23  N6        57.4490   -8.0650   66.7640 N.pl3 557  ADP557      0.2180
     24  N1        55.2070   -7.9730   66.1900 N.2   557  ADP557      0.0021
     25  C2        54.1780   -7.9840   65.2540 C.3   557  ADP557      0.5254
     26  N3        54.3810   -8.1000   63.9390 N.2   557  ADP557     -0.0055
     27  C4        55.6770   -8.2110   63.5610 C.2   557  ADP557      0.3518
@<TRIPOS>BOND
     1     3     1    2
     2    14    13    1
     3     2     1    1
     4     1     8    1
     5     1     4    1
     6    13    11    1
     7    13    15    1
     8     8     5    1
     9    10    11    1
    10    10     9    1
    11    11    12    1
    12     9     5    1
    13    16    15    1
    14    15    17    1
    15     6     5    2
    16     5     7    1
    17    12    17    1
    18    17    18    1
    19    18    19    1
    20    18    27    1
    21    19    20    1
    22    27    26    2
    23    27    21    1
    24    20    21    2
    25    26    25    1
    26    21    22    1
    27    25    24    1
    28    22    24    2
    29    22    23    1
