@<TRIPOS>MOLECULE
1yp6_PRZ_A_1.pdb
 12 12 0 0 0
SMALL
GASTEIGER

@<TRIPOS>ATOM
      1  N1        49.7610   25.4430   39.8930 N.ar  203  PRZ203     -0.2418
      2  C2        48.5420   24.9470   40.1500 C.ar  203  PRZ203      0.1119
      3  C3        48.4350   23.6210   40.5600 C.ar  203  PRZ203      0.2389
      4  N4        49.5480   22.8810   40.7010 N.ar  203  PRZ203     -0.2075
      5  C5        50.7400   23.3890   40.4430 C.ar  203  PRZ203      0.1227
      6  C6        50.8540   24.7110   40.0210 C.ar  203  PRZ203      0.1193
      7  C21       47.3510   25.8910   39.9800 C.3   203  PRZ203      0.0506
      8  C22       46.7770   26.3680   41.3180 C.3   203  PRZ203      0.0061
      9  C23       45.6770   27.3950   41.0430 C.3   203  PRZ203      0.0004
     10  C24       47.8510   26.9440   42.2480 C.3   203  PRZ203      0.0004
     11  O31       47.2010   23.0850   40.7510 O.3   203  PRZ203     -0.4553
     12  C31       47.1460   21.6640   40.5930 C.3   203  PRZ203      0.2543
@<TRIPOS>BOND
     1     1     6   ar
     2     1     2   ar
     3     7     2    1
     4     7     8    1
     5     6     5   ar
     6     2     3   ar
     7     5     4   ar
     8     3     4   ar
     9     3    11    1
    10    12    11    1
    11     9     8    1
    12     8    10    1
