@<TRIPOS>MOLECULE
1yp9_UIZ_A_1.pdb
 31 36 0 0 0
SMALL
GASTEIGER

@<TRIPOS>ATOM
      1  N1        10.2660   67.3520    7.0210 N.pl3 2222  UIZ2222     0.2047
      2  C3        11.5340   67.0880    7.3440 C.2   2222  UIZ2222     0.4766
      3  N2        12.2450   66.3720    6.4320 N.pl3 2222  UIZ2222     0.2047
      4  C4        12.1500   67.5160    8.5580 C.ar  2222  UIZ2222     0.0975
      5  C5        13.4910   67.1870    8.8330 C.ar  2222  UIZ2222     0.0077
      6  C6        14.0840   67.5970   10.0220 C.ar  2222  UIZ2222    -0.0027
      7  C7        13.3420   68.3480   10.9540 C.ar  2222  UIZ2222    -0.0073
      8  C10       13.9750   68.8110   12.2350 C.3   2222  UIZ2222     0.0888
      9  C22       14.5120   70.2480   12.2890 C.3   2222  UIZ2222     0.0984
     10  C20       13.4690   71.3620   12.0890 C.2   2222  UIZ2222     0.2272
     11  O21       12.4110   71.3280   11.4200 O.2   2222  UIZ2222    -0.2748
     12  N19       13.8060   72.3910   12.9460 N.am  2222  UIZ2222    -0.2753
     13  C23       12.8550   73.5570   13.0540 C.3   2222  UIZ2222     0.1202
     14  C24       12.9640   74.6170   11.9690 C.ar  2222  UIZ2222     0.0009
     15  C32       11.8090   75.0460   11.2380 C.ar  2222  UIZ2222     0.0007
     16  C31       11.8990   76.0360   10.2370 C.ar  2222  UIZ2222     0.0399
     17  C30       13.1670   76.5720    9.9760 C.ar  2222  UIZ2222     0.1764
     18  O29       13.5140   77.5350    9.0580 O.3   2222  UIZ2222    -0.4346
     19  C28       14.9590   77.7100    9.2040 C.3   2222  UIZ2222     0.4294
     20  O27       15.4590   76.8310   10.2460 O.3   2222  UIZ2222    -0.4346
     21  C26       14.3110   76.1590   10.6770 C.ar  2222  UIZ2222     0.1762
     22  C25       14.2180   75.1770   11.6820 C.ar  2222  UIZ2222     0.0376
     23  C17       14.6940   71.9390   14.0070 C.3   2222  UIZ2222     0.0955
     24  C16       14.8060   70.3970   13.8090 C.3   2222  UIZ2222     0.0448
     25  C15       13.6540   69.5850   14.4710 C.3   2222  UIZ2222     0.0599
     26  C14       14.2710   68.6490   15.5370 C.3   2222  UIZ2222     0.0175
     27  C13       13.3140   67.4730   15.5160 C.3   2222  UIZ2222     0.0187
     28  C12       13.0060   67.2820   14.0030 C.3   2222  UIZ2222     0.0723
     29  N11       13.0800   68.6520   13.4240 N.3   2222  UIZ2222    -0.2712
     30  C8        12.0070   68.6620   10.6850 C.ar  2222  UIZ2222    -0.0027
     31  C9        11.4080   68.2550    9.4850 C.ar  2222  UIZ2222     0.0077
@<TRIPOS>BOND
     1     3     2    2
     2     1     2    1
     3     2     4    1
     4     4     5   ar
     5     4    31   ar
     6     5     6   ar
     7    18    19    1
     8    18    17    1
     9    19    20    1
    10    31    30   ar
    11    17    16   ar
    12    17    21   ar
    13     6     7   ar
    14    16    15   ar
    15    20    21    1
    16    21    22   ar
    17    30     7   ar
    18     7     8    1
    19    15    14   ar
    20    11    10    2
    21    22    14   ar
    22    14    13    1
    23    10     9    1
    24    10    12   am
    25     8     9    1
    26     8    29    1
    27     9    24    1
    28    12    13    1
    29    12    23    1
    30    29    28    1
    31    29    25    1
    32    24    23    1
    33    24    25    1
    34    28    27    1
    35    25    26    1
    36    27    26    1
