@<TRIPOS>MOLECULE
1ype_UIP_H_1.pdb
 33 38 0 0 0
SMALL
GASTEIGER

@<TRIPOS>ATOM
      1  N1        10.4780  -11.8790   24.1020 N.pl3 5555  UIP5555     0.2047
      2  C3        11.2010  -10.8070   23.7380 C.2   5555  UIP5555     0.4766
      3  N2        10.8160   -9.6400   24.3190 N.pl3 5555  UIP5555     0.2047
      4  C4        12.2760  -10.9070   22.8150 C.ar  5555  UIP5555     0.0975
      5  C9        12.5950  -12.1660   22.2840 C.ar  5555  UIP5555     0.0077
      6  C8        13.6580  -12.3050   21.3750 C.ar  5555  UIP5555    -0.0027
      7  C7        14.4080  -11.1940   20.9800 C.ar  5555  UIP5555    -0.0073
      8  C6        14.0640   -9.9390   21.5120 C.ar  5555  UIP5555    -0.0027
      9  C5        13.0340   -9.7900   22.4220 C.ar  5555  UIP5555     0.0077
     10  C10       15.5400  -11.3240   19.9990 C.3   5555  UIP5555     0.0888
     11  N11       15.3840  -12.5390   19.1310 N.3   5555  UIP5555    -0.2712
     12  C12       14.3780  -12.4050   18.0400 C.3   5555  UIP5555     0.0723
     13  C13       15.1810  -12.4830   16.7170 C.3   5555  UIP5555     0.0187
     14  C14       16.5850  -12.0440   17.0900 C.3   5555  UIP5555     0.0175
     15  C15       16.7410  -12.7050   18.4770 C.3   5555  UIP5555     0.0599
     16  C16       17.7720  -11.8600   19.2980 C.3   5555  UIP5555     0.0431
     17  C17       18.8750  -12.8050   19.8750 C.3   5555  UIP5555     0.0774
     18  N19       18.3590  -13.2410   21.1420 N.am  5555  UIP5555    -0.2770
     19  C20       17.1700  -12.6420   21.4890 C.2   5555  UIP5555     0.2271
     20  O21       16.6000  -12.7760   22.6030 O.2   5555  UIP5555    -0.2748
     21  C22       16.9660  -11.4190   20.5600 C.3   5555  UIP5555     0.0983
     22  C23       18.8590  -14.4250   21.9280 C.3   5555  UIP5555     0.1202
     23  C24       19.8900  -14.1260   22.9970 C.ar  5555  UIP5555     0.0009
     24  C32       19.4920  -13.6940   24.3040 C.ar  5555  UIP5555     0.0007
     25  C31       20.3820  -13.3700   25.3500 C.ar  5555  UIP5555     0.0399
     26  C30       21.7340  -13.4580   25.0110 C.ar  5555  UIP5555     0.1764
     27  O29       22.8270  -13.0620   25.7580 O.3   5555  UIP5555    -0.4346
     28  C28       23.9540  -13.7110   25.0730 C.3   5555  UIP5555     0.4294
     29  O27       23.5520  -14.1020   23.7340 O.3   5555  UIP5555    -0.4346
     30  C26       22.1660  -13.8890   23.7400 C.ar  5555  UIP5555     0.1762
     31  C25       21.2620  -14.2250   22.7050 C.ar  5555  UIP5555     0.0376
     32  C18       20.2760  -12.1470   19.9730 C.3   5555  UIP5555     0.0199
     33  C42       20.9020  -12.0300   18.5770 C.3   5555  UIP5555     0.0018
@<TRIPOS>BOND
     1    13    14    1
     2    13    12    1
     3    14    15    1
     4    12    11    1
     5    15    11    1
     6    15    16    1
     7    33    32    1
     8    11    10    1
     9    16    17    1
    10    16    21    1
    11    17    32    1
    12    17    18    1
    13    10    21    1
    14    10     7    1
    15    21    19    1
    16     7     6   ar
    17     7     8   ar
    18    18    19   am
    19    18    22    1
    20     6     5   ar
    21    19    20    2
    22     8     9   ar
    23    22    23    1
    24     5     4   ar
    25     9     4   ar
    26    31    23   ar
    27    31    30   ar
    28     4     2    1
    29    23    24   ar
    30    29    30    1
    31    29    28    1
    32     2     1    2
    33     2     3    1
    34    30    26   ar
    35    24    25   ar
    36    26    25   ar
    37    26    27    1
    38    28    27    1
