@<TRIPOS>MOLECULE
1ypg_UIR_H_1.pdb
 34 39 0 0 0
SMALL
GASTEIGER

@<TRIPOS>ATOM
      1  N1        10.3920  -11.8420   24.2390 N.pl3 5555  UIR5555     0.2047
      2  C3        11.1550  -10.8420   23.7920 C.2   5555  UIR5555     0.4766
      3  C4        12.2240  -10.9460   22.8520 C.ar  5555  UIR5555     0.0975
      4  C9        12.5480  -12.1990   22.3090 C.ar  5555  UIR5555     0.0077
      5  C8        13.5860  -12.3050   21.3830 C.ar  5555  UIR5555    -0.0027
      6  C7        14.3110  -11.1800   20.9780 C.ar  5555  UIR5555    -0.0073
      7  C10       15.4670  -11.3170   20.0350 C.3   5555  UIR5555     0.0888
      8  N11       15.3400  -12.5240   19.1570 N.3   5555  UIR5555    -0.2712
      9  C12       14.3840  -12.3600   18.0190 C.3   5555  UIR5555     0.0723
     10  C13       15.2470  -12.4590   16.7320 C.3   5555  UIR5555     0.0187
     11  C14       16.6180  -11.9890   17.1840 C.3   5555  UIR5555     0.0175
     12  C15       16.7240  -12.6920   18.5650 C.3   5555  UIR5555     0.0599
     13  C16       17.7200  -11.8570   19.4210 C.3   5555  UIR5555     0.0431
     14  C18       20.3410  -12.8900   19.8910 C.3   5555  UIR5555     0.0183
     15  C17       18.8290  -12.7630   20.0550 C.3   5555  UIR5555     0.0774
     16  C42       21.1640  -12.3390   20.3800 C.3   5555  UIR5555     0.0017
     17  C41       20.8360  -12.0190   18.7640 C.3   5555  UIR5555     0.0017
     18  N19       18.2280  -13.2680   21.2590 N.am  5555  UIR5555    -0.2770
     19  C20       17.0320  -12.6620   21.5760 C.2   5555  UIR5555     0.2271
     20  O21       16.4330  -12.7950   22.6740 O.2   5555  UIR5555    -0.2748
     21  C22       16.8800  -11.4280   20.6600 C.3   5555  UIR5555     0.0983
     22  C23       18.7190  -14.4170   22.0850 C.3   5555  UIR5555     0.1202
     23  C24       19.6590  -14.0670   23.2310 C.ar  5555  UIR5555     0.0009
     24  C25       21.0380  -14.2840   23.0270 C.ar  5555  UIR5555     0.0376
     25  C26       21.9160  -13.9620   24.0820 C.ar  5555  UIR5555     0.1762
     26  O27       23.3120  -14.1140   24.0690 O.3   5555  UIR5555    -0.4346
     27  C28       23.6860  -13.6450   25.3880 C.3   5555  UIR5555     0.4294
     28  O29       22.5010  -13.2210   26.1480 O.3   5555  UIR5555    -0.4346
     29  C30       21.4410  -13.4380   25.3020 C.ar  5555  UIR5555     0.1764
     30  C31       20.0810  -13.2230   25.5570 C.ar  5555  UIR5555     0.0399
     31  C32       19.2140  -13.5370   24.4830 C.ar  5555  UIR5555     0.0007
     32  C6        13.9800   -9.9340   21.5300 C.ar  5555  UIR5555    -0.0027
     33  C5        12.9500   -9.8170   22.4480 C.ar  5555  UIR5555     0.0077
     34  N2        10.8240   -9.6400   24.3340 N.pl3 5555  UIR5555     0.2047
@<TRIPOS>BOND
     1    10    11    1
     2    10     9    1
     3    11    12    1
     4     9     8    1
     5    12     8    1
     6    12    13    1
     7    17    14    1
     8     8     7    1
     9    13    15    1
    10    13    21    1
    11    14    15    1
    12    14    16    1
    13     7    21    1
    14     7     6    1
    15    15    18    1
    16    21    19    1
    17     6     5   ar
    18     6    32   ar
    19    18    19   am
    20    18    22    1
    21     5     4   ar
    22    32    33   ar
    23    19    20    2
    24    22    23    1
    25     4     3   ar
    26    33     3   ar
    27     3     2    1
    28    24    23   ar
    29    24    25   ar
    30    23    31   ar
    31     2     1    2
    32     2    34    1
    33    26    25    1
    34    26    27    1
    35    25    29   ar
    36    31    30   ar
    37    29    30   ar
    38    29    28    1
    39    27    28    1
