@<TRIPOS>MOLECULE
1ypj_UIB_H_1.pdb
 33 37 0 0 0
SMALL
GASTEIGER

@<TRIPOS>ATOM
      1  N1        10.7290  -11.8010   24.3240 N.pl3 5555  UIB5555     0.2047
      2  C3        11.4620  -10.7700   23.8820 C.2   5555  UIB5555     0.4766
      3  N2        11.0720   -9.5970   24.4620 N.pl3 5555  UIB5555     0.2047
      4  C4        12.5100  -10.9090   22.9150 C.ar  5555  UIB5555     0.0975
      5  C5        13.2720   -9.8170   22.4530 C.ar  5555  UIB5555     0.0077
      6  C6        14.2890   -9.9680   21.5290 C.ar  5555  UIB5555    -0.0027
      7  C7        14.6190  -11.2340   20.9920 C.ar  5555  UIB5555    -0.0073
      8  C10       15.6990  -11.3800   19.9560 C.3   5555  UIB5555     0.0888
      9  C22       17.1830  -11.5280   20.3580 C.3   5555  UIB5555     0.0983
     10  C16       17.8840  -12.0380   19.0830 C.3   5555  UIB5555     0.0419
     11  C15       16.7300  -12.6320   18.2390 C.3   5555  UIB5555     0.0478
     12  C13       16.9380  -14.1140   17.8350 C.3   5555  UIB5555     0.0161
     13  C14       16.7210  -11.7930   16.9430 C.3   5555  UIB5555     0.0161
     14  N11       15.4930  -12.4940   19.0230 N.3   5555  UIB5555    -0.2712
     15  C12       14.2700  -12.3660   18.2020 C.3   5555  UIB5555     0.0898
     16  C17       18.9360  -13.0570   19.5920 C.3   5555  UIB5555     0.0774
     17  N19       18.5190  -13.3720   20.9510 N.am  5555  UIB5555    -0.2770
     18  C23       19.0410  -14.5060   21.7870 C.3   5555  UIB5555     0.1202
     19  C24       20.0430  -14.0770   22.8530 C.ar  5555  UIB5555     0.0009
     20  C32       19.5990  -13.6360   24.1380 C.ar  5555  UIB5555     0.0007
     21  C31       20.4930  -13.3270   25.1870 C.ar  5555  UIB5555     0.0399
     22  C30       21.8550  -13.4770   24.8710 C.ar  5555  UIB5555     0.1764
     23  C26       22.3080  -13.9030   23.6100 C.ar  5555  UIB5555     0.1762
     24  C25       21.4120  -14.2160   22.5680 C.ar  5555  UIB5555     0.0376
     25  O27       23.7000  -13.9730   23.5350 O.3   5555  UIB5555    -0.4346
     26  C28       24.1030  -13.5500   24.8690 C.3   5555  UIB5555     0.4294
     27  O29       22.9300  -13.2350   25.6950 O.3   5555  UIB5555    -0.4346
     28  C20       17.4350  -12.6540   21.3730 C.2   5555  UIB5555     0.2271
     29  O21       16.8700  -12.7620   22.4930 O.2   5555  UIB5555    -0.2748
     30  C18       20.3330  -12.4110   19.6630 C.3   5555  UIB5555     0.0199
     31  C41       20.8750  -12.2520   18.2290 C.3   5555  UIB5555     0.0018
     32  C8        13.8890  -12.3290   21.4710 C.ar  5555  UIB5555    -0.0027
     33  C9        12.8400  -12.1640   22.3880 C.ar  5555  UIB5555     0.0077
@<TRIPOS>BOND
     1    13    11    1
     2    12    11    1
     3    15    14    1
     4    31    30    1
     5    11    14    1
     6    11    10    1
     7    14     8    1
     8    10    16    1
     9    10     9    1
    10    16    30    1
    11    16    17    1
    12     8     9    1
    13     8     7    1
    14     9    28    1
    15    17    28   am
    16    17    18    1
    17     7    32   ar
    18     7     6   ar
    19    28    29    2
    20    32    33   ar
    21     6     5   ar
    22    18    19    1
    23    33     4   ar
    24     5     4   ar
    25    24    19   ar
    26    24    23   ar
    27    19    20   ar
    28     4     2    1
    29    25    23    1
    30    25    26    1
    31    23    22   ar
    32     2     1    2
    33     2     3    1
    34    20    21   ar
    35    26    27    1
    36    22    21   ar
    37    22    27    1
