@<TRIPOS>MOLECULE
1ypk_CCR_H_1.pdb
 42 44 0 0 0
SMALL
GASTEIGER

@<TRIPOS>ATOM
      1  S20       18.0000  -16.4150   23.1520 S.O2  5555  CCR5555     0.0766
      2  O21       18.0260  -17.0930   21.8780 O.2   5555  CCR5555    -0.1516
      3  O22       17.7620  -17.1910   24.3370 O.2   5555  CCR5555    -0.1516
      4  C11       19.4140  -15.4450   23.4620 C.ar  5555  CCR5555     0.1155
      5  C12       19.4340  -14.5840   24.6170 C.ar  5555  CCR5555    -0.0046
      6  C13       20.6120  -13.9010   25.0010 C.ar  5555  CCR5555     0.0094
      7  C14       21.7730  -14.0650   24.2510 C.ar  5555  CCR5555     0.1342
      8  C15       21.7720  -14.9060   23.1130 C.ar  5555  CCR5555     0.0336
      9  C16       20.6100  -15.5960   22.7230 C.ar  5555  CCR5555    -0.0005
     10  C17       18.1920  -14.3800   25.4930 C.3   5555  CCR5555     0.0322
     11  C18       20.6750  -12.8300   26.1400 C.3   5555  CCR5555     0.0339
     12  C10       20.8930  -16.6140   21.5850 C.3   5555  CCR5555     0.0325
     13  O11       22.9210  -13.3070   24.6130 O.3   5555  CCR5555    -0.4718
     14  C19       24.1050  -13.5560   23.8060 C.3   5555  CCR5555     0.2525
     15  N23       16.7090  -15.4230   23.0390 N.3   5555  CCR5555    -0.0693
     16  C30       16.2510  -14.9730   21.7550 C.3   5555  CCR5555     0.1864
     17  C35       16.3260  -13.4680   21.5930 C.2   5555  CCR5555     0.2601
     18  O36       16.3580  -12.7580   22.5990 O.2   5555  CCR5555    -0.2717
     19  C31       14.7880  -15.4280   21.6480 C.3   5555  CCR5555     0.1427
     20  C32       14.6920  -16.9360   21.8010 C.2   5555  CCR5555     0.3669
     21  O33       15.1570  -17.6200   20.8830 O.co2 5555  CCR5555    -0.2456
     22  O34       13.9480  -17.4370   22.6910 O.co2 5555  CCR5555    -0.2456
     23  N40       16.1940  -13.0620   20.2910 N.am  5555  CCR5555    -0.1963
     24  C41       16.3000  -11.6300   19.9860 C.3   5555  CCR5555     0.1756
     25  C42       17.3350  -11.5850   18.8700 C.2   5555  CCR5555     0.2458
     26  O43       16.8900  -11.4380   17.7330 O.2   5555  CCR5555    -0.2730
     27  C44       14.9330  -11.1240   19.4730 C.3   5555  CCR5555     0.0574
     28  C51       13.9630  -11.0940   20.6370 C.ar  5555  CCR5555    -0.0200
     29  C52       13.0470  -12.1410   20.8570 C.ar  5555  CCR5555    -0.0039
     30  C56       13.9250   -9.9700   21.4760 C.ar  5555  CCR5555    -0.0039
     31  C53       12.1010  -12.0470   21.8880 C.ar  5555  CCR5555     0.0077
     32  C55       12.9850   -9.8880   22.5070 C.ar  5555  CCR5555     0.0077
     33  C54       12.0300  -10.9030   22.7340 C.ar  5555  CCR5555     0.0975
     34  C57       11.0010  -10.8220   23.8280 C.2   5555  CCR5555     0.4766
     35  N59       10.8590   -9.7830   24.6370 N.pl3 5555  CCR5555     0.2047
     36  N58       10.1820  -11.8240   24.0690 N.pl3 5555  CCR5555     0.2047
     37  N60       18.6380  -11.7780   19.1450 N.am  5555  CCR5555    -0.2782
     38  C61       19.6720  -11.8640   18.1020 C.3   5555  CCR5555     0.0934
     39  C62       20.3590  -13.2250   18.3180 C.3   5555  CCR5555     0.0216
     40  C63       21.0090  -13.1930   19.7230 C.3   5555  CCR5555     0.0035
     41  C64       19.9090  -13.0180   20.7900 C.3   5555  CCR5555     0.0216
     42  C65       19.1670  -11.6930   20.5280 C.3   5555  CCR5555     0.0934
@<TRIPOS>BOND
     1    26    25    2
     2    38    39    1
     3    38    37    1
     4    39    40    1
     5    25    37   am
     6    25    24    1
     7    37    42    1
     8    27    24    1
     9    27    28    1
    10    40    41    1
    11    24    23    1
    12    23    17   am
    13    42    41    1
    14    28    29   ar
    15    28    30   ar
    16    29    31   ar
    17    21    20   ar
    18    30    32   ar
    19    12     9    1
    20    17    16    1
    21    17    18    2
    22    19    16    1
    23    19    20    1
    24    16    15    1
    25    20    22   ar
    26     2     1    2
    27    31    33   ar
    28    32    33   ar
    29     9     8   ar
    30     9     4   ar
    31    33    34    1
    32    15     1    1
    33     8     7   ar
    34     1     4    1
    35     1     3    2
    36     4     5   ar
    37    14    13    1
    38    34    36    2
    39    34    35    1
    40     7    13    1
    41     7     6   ar
    42     5     6   ar
    43     5    10    1
    44     6    11    1
