@<TRIPOS>MOLECULE
1ypl_RA8_H_1.pdb
 34 35 0 0 0
SMALL
GASTEIGER

@<TRIPOS>ATOM
      1  C27       18.5930  -15.5680   26.3620 C.3   5555  RA85555     0.1969
      2  S26       17.8540  -16.6820   25.1500 S.O2  5555  RA85555     0.0620
      3  C30       19.8360  -14.8980   25.7950 C.ar  5555  RA85555     0.0030
      4  C31       20.9650  -15.6490   25.4560 C.ar  5555  RA85555    -0.0025
      5  C32       22.0960  -15.0160   24.9340 C.ar  5555  RA85555    -0.0003
      6  C33       22.1000  -13.6280   24.7550 C.ar  5555  RA85555    -0.0000
      7  C34       20.9600  -12.8880   25.0870 C.ar  5555  RA85555    -0.0003
      8  C35       19.8380  -13.5130   25.6210 C.ar  5555  RA85555    -0.0025
      9  O15       16.7120  -17.2620   25.8250 O.2   5555  RA85555    -0.1558
     10  O29       18.8900  -17.5160   24.5860 O.2   5555  RA85555    -0.1558
     11  N25       17.3870  -15.7090   24.0980 N.3   5555  RA85555    -0.0739
     12  C19       17.8900  -15.3410   22.8230 C.3   5555  RA85555     0.1733
     13  C18       17.8730  -13.9600   22.7300 C.2   5555  RA85555     0.2437
     14  O24       16.8110  -13.4010   22.9660 O.2   5555  RA85555    -0.2733
     15  C20       17.3830  -16.1750   21.6410 C.3   5555  RA85555     0.0287
     16  C21       17.5400  -17.6880   21.8800 C.3   5555  RA85555     0.0019
     17  C22       17.5160  -18.4200   20.5320 C.3   5555  RA85555     0.0001
     18  C23       16.3640  -18.1860   22.7530 C.3   5555  RA85555     0.0001
     19  N16       18.6310  -13.4270   21.7400 N.am  5555  RA85555    -0.2718
     20  C11       18.4070  -12.0600   21.2950 C.3   5555  RA85555     0.1535
     21  C5        17.0850  -11.9830   20.5700 C.2   5555  RA85555     0.2595
     22  O12       16.7450  -12.9060   19.8380 O.2   5555  RA85555    -0.2716
     23  C13       19.6780  -11.8680   20.2650 C.3   5555  RA85555     0.0310
     24  C14       20.7760  -12.9130   20.5840 C.3   5555  RA85555     0.0237
     25  C17       20.1220  -13.9520   21.5360 C.3   5555  RA85555     0.0939
     26  N10       16.4410  -10.6310   20.5150 N.am  5555  RA85555    -0.2040
     27  C9        15.1260  -10.7240   19.8560 C.3   5555  RA85555     0.1153
     28  C8        14.1400   -9.9290   20.7520 C.3   5555  RA85555     0.0271
     29  C7        13.4070  -10.9150   21.6700 C.3   5555  RA85555     0.0487
     30  C6        12.3270  -10.1480   22.4760 C.3   5555  RA85555     0.2205
     31  N4        11.6370  -11.1390   23.2540 N.pl3 5555  RA85555    -0.0865
     32  C2        10.7730  -10.7530   24.0890 C.cat 5555  RA85555     0.5346
     33  N1        10.5950   -9.5710   24.5350 N.pl3 5555  RA85555     0.1354
     34  N3        10.1750  -11.7040   24.7070 N.pl3 5555  RA85555     0.1354
@<TRIPOS>BOND
     1    22    21    2
     2    27    26    1
     3    27    28    1
     4    23    24    1
     5    23    20    1
     6    26    21   am
     7    17    16    1
     8    21    20    1
     9    24    25    1
    10    28    29    1
    11    20    19    1
    12    25    19    1
    13    15    16    1
    14    15    12    1
    15    29    30    1
    16    19    13   am
    17    16    18    1
    18    30    31    1
    19    13    12    1
    20    13    14    2
    21    12    11    1
    22    31    32    2
    23    32    33    1
    24    32    34    1
    25    11     2    1
    26    10     2    2
    27     6     5   ar
    28     6     7   ar
    29     5     4   ar
    30     7     8   ar
    31     2     9    2
    32     2     1    1
    33     4     3   ar
    34     8     3   ar
    35     3     1    1
