@<TRIPOS>MOLECULE
1ypm_RA4_H_1.pdb
 35 36 0 0 0
SMALL
GASTEIGER

@<TRIPOS>ATOM
      1  C26       18.8680  -16.7720   24.1520 C.2   5555  RA45555     0.2652
      2  O25       19.5500  -17.1570   25.0960 O.2   5555  RA45555    -0.2684
      3  C27       17.4640  -17.3180   24.0740 C.ar  5555  RA45555     0.0552
      4  C28       17.0020  -18.0440   25.1790 C.ar  5555  RA45555     0.0063
      5  C29       15.8510  -18.8250   25.0810 C.ar  5555  RA45555     0.0242
      6  C30       15.1370  -18.8960   23.8810 C.ar  5555  RA45555     0.1429
      7  C34       15.6020  -18.1690   22.7830 C.ar  5555  RA45555     0.0242
      8  C35       16.7610  -17.3890   22.8730 C.ar  5555  RA45555     0.0063
      9  N31       14.0240  -19.6640   23.8140 N.pl3 5555  RA45555     0.0577
     10  O32       13.5920  -20.3760   24.9460 O.2   5555  RA45555    -0.1261
     11  O33       13.3790  -19.7570   22.7950 O.2   5555  RA45555    -0.1261
     12  N24       19.2950  -15.8610   23.2690 N.am  5555  RA45555    -0.1941
     13  C23       19.2630  -14.4480   23.5380 C.3   5555  RA45555     0.1715
     14  C18       18.6450  -13.6080   22.4430 C.2   5555  RA45555     0.2458
     15  O17       17.5980  -13.0770   22.8290 O.2   5555  RA45555    -0.2730
     16  C22       20.5960  -13.8860   24.0180 C.3   5555  RA45555     0.0311
     17  C21       20.7810  -13.9070   25.5320 C.3   5555  RA45555     0.0022
     18  C19       21.3350  -12.5700   26.0560 C.3   5555  RA45555     0.0001
     19  C20       19.4910  -14.3100   26.2580 C.3   5555  RA45555     0.0001
     20  N16       19.3030  -13.0460   21.3950 N.am  5555  RA45555    -0.2716
     21  C12       18.8720  -11.8020   20.7750 C.3   5555  RA45555     0.1535
     22  C11       17.4360  -11.8570   20.3190 C.2   5555  RA45555     0.2595
     23  O10       17.0640  -12.8040   19.6320 O.2   5555  RA45555    -0.2716
     24  C13       19.7590  -11.7190   19.5110 C.3   5555  RA45555     0.0310
     25  C14       20.9400  -12.6850   19.7680 C.3   5555  RA45555     0.0237
     26  C15       20.3790  -13.7610   20.7350 C.3   5555  RA45555     0.0939
     27  N9        16.7930  -10.7580   20.4150 N.am  5555  RA45555    -0.2040
     28  C8        15.4320  -10.9080   19.9330 C.3   5555  RA45555     0.1153
     29  C7        14.5560   -9.9490   20.7680 C.3   5555  RA45555     0.0271
     30  C6        13.2930  -10.6930   21.2130 C.3   5555  RA45555     0.0487
     31  C5        12.5840   -9.9020   22.3420 C.3   5555  RA45555     0.2205
     32  N4        11.9980  -10.9160   23.1740 N.pl3 5555  RA45555    -0.0865
     33  C2        11.1720  -10.5770   24.0640 C.cat 5555  RA45555     0.5346
     34  N1        10.8850   -9.3910   24.4190 N.pl3 5555  RA45555     0.1354
     35  N3        10.5860  -11.5620   24.6480 N.pl3 5555  RA45555     0.1354
@<TRIPOS>BOND
     1    24    25    1
     2    24    21    1
     3    23    22    2
     4    25    26    1
     5    28    27    1
     6    28    29    1
     7    22    27   am
     8    22    21    1
     9    26    20    1
    10    29    30    1
    11    21    20    1
    12    30    31    1
    13    20    14   am
    14    31    32    1
    15    14    15    2
    16    14    13    1
    17     7     8   ar
    18     7     6   ar
    19    11     9    2
    20     8     3   ar
    21    32    33    2
    22    12    13    1
    23    12     1   am
    24    13    16    1
    25     9     6    1
    26     9    10    2
    27     6     5   ar
    28    16    17    1
    29    33    34    1
    30    33    35    1
    31     3     1    1
    32     3     4   ar
    33     1     2    2
    34     5     4   ar
    35    17    18    1
    36    17    19    1
