@<TRIPOS>MOLECULE
1ypn_DPM_A_1.pdb
 30 31 0 0 0
SMALL
GASTEIGER

@<TRIPOS>ATOM
      1  C1A       15.9610    0.7850   27.2080 C.2   314  DPM314      0.1053
      2  C2A       16.7060    0.2690   28.2230 C.2   314  DPM314      0.0127
      3  C3A       17.6520    1.2590   28.6060 C.2   314  DPM314      0.0028
      4  C4A       17.4360    2.3460   27.7940 C.2   314  DPM314      0.1100
      5  C5A       16.5360   -1.1220   28.8040 C.3   314  DPM314      0.1423
      6  C6A       17.5950   -2.1250   28.3780 C.2   314  DPM314      0.3693
      7  C7A       18.7780    1.1100   29.6200 C.3   314  DPM314      0.0402
      8  C8A       18.4200    1.5360   31.0480 C.3   314  DPM314      0.1188
      9  C9A       19.5780    1.3520   32.0370 C.2   314  DPM314      0.3652
     10  CHA       14.8350    0.1740   26.3960 C.3   314  DPM314      0.0660
     11  NA        16.3820    2.0630   26.9670 N.2   314  DPM314     -0.4108
     12  O1A       17.3960   -3.3230   28.6550 O.co2 314  DPM314     -0.2453
     13  O2A       18.6230   -1.7210   27.7920 O.co2 314  DPM314     -0.2453
     14  O3A       19.5370    1.9570   33.1240 O.co2 314  DPM314     -0.2456
     15  O4A       20.5310    0.6000   31.7430 O.co2 314  DPM314     -0.2456
     16  C1B       18.9450    3.8650   26.4020 C.2   314  DPM314      0.0478
     17  C2B       20.3020    3.9410   26.1720 C.3   314  DPM314      0.0675
     18  C3B       20.4760    4.0890   24.7590 C.2   314  DPM314     -0.0191
     19  C4B       19.2260    4.0840   24.1950 C.2   314  DPM314      0.0899
     20  C5B       21.3890    3.9340   27.2390 C.3   314  DPM314      0.1237
     21  C6B       22.3620    2.7500   27.1660 C.2   314  DPM314      0.3656
     22  C7B       21.7900    4.1630   24.0020 C.3   314  DPM314      0.0358
     23  C8B       22.2060    2.8360   23.3390 C.3   314  DPM314      0.1184
     24  C9B       21.4350    2.5260   22.0610 C.2   314  DPM314      0.3652
     25  CHB       18.1360    3.6850   27.6790 C.3   314  DPM314      0.1001
     26  NB        18.2990    3.9530   25.1960 N.2   314  DPM314     -0.2523
     27  O1B       21.9210    1.5850   27.1820 O.co2 314  DPM314     -0.2456
     28  O2B       23.5790    2.9880   27.1110 O.co2 314  DPM314     -0.2456
     29  O3B       21.3690    3.4000   21.1750 O.co2 314  DPM314     -0.2456
     30  O4B       20.9240    1.3950   21.9180 O.co2 314  DPM314     -0.2456
@<TRIPOS>BOND
     1    29    24   ar
     2    30    24   ar
     3    24    23    1
     4    23    22    1
     5    22    18    1
     6    19    18    2
     7    19    26    1
     8    18    17    1
     9    26    16    2
    10    17    16    1
    11    17    20    1
    12    10     1    1
    13    16    25    1
    14    11     1    2
    15    11     4    2
    16    28    21   ar
    17    21    27   ar
    18    21    20    1
    19     1     2    1
    20    25     4    1
    21    13     6   ar
    22     4     3    1
    23     2     3    2
    24     2     5    1
    25     6    12   ar
    26     6     5    1
    27     3     7    1
    28     7     8    1
    29     8     9    1
    30    15     9   ar
    31     9    14   ar
