@<TRIPOS>MOLECULE
1ypz_MAN_G_1.pdb
 12 12 0 0 0
SMALL
GASTEIGER

@<TRIPOS>ATOM
      1  C1       134.9590  119.7780   96.4260 C.3   210  MAN210      0.3024
      2  C2       134.1480  120.0870   97.6940 C.3   210  MAN210      0.2434
      3  C3       134.8280  119.5070   98.9420 C.3   210  MAN210      0.2199
      4  C4       136.3560  119.6320   98.8550 C.3   210  MAN210      0.2144
      5  C5       136.9060  118.9900   97.5660 C.3   210  MAN210      0.1836
      6  C6       137.6730  117.7070   97.8250 C.3   210  MAN210      0.2142
      7  O1       135.7570  120.8900   96.1470 O.3   210  MAN210     -0.1869
      8  O2       132.8410  119.5470   97.5760 O.3   210  MAN210     -0.2148
      9  O3       134.4700  118.1400   99.0890 O.3   210  MAN210     -0.2174
     10  O4       136.7260  121.0020   98.8970 O.3   210  MAN210     -0.2176
     11  O5       135.8320  118.6670   96.6530 O.3   210  MAN210     -0.3236
     12  O6       138.7470  117.5550   96.9070 O.3   210  MAN210     -0.2176
@<TRIPOS>BOND
     1     7     1    1
     2     1    11    1
     3     1     2    1
     4    11     5    1
     5    12     6    1
     6     5     6    1
     7     5     4    1
     8     8     2    1
     9     2     3    1
    10     4    10    1
    11     4     3    1
    12     3     9    1
