@<TRIPOS>MOLECULE
1yq3_HEM_C_1.pdb
 41 48 0 0 0
SMALL
GASTEIGER

@<TRIPOS>ATOM
      1  CHA        2.7740   32.0070   81.1380 C.2   143  HEM143      0.0000
      2  CHB        1.9840   34.0240   76.6440 C.2   143  HEM143      0.0000
      3  CHC       -1.6950   30.8150   76.2130 C.2   143  HEM143      0.0000
      4  CHD       -1.1770   29.2060   80.5560 C.2   143  HEM143      0.0000
      5  C1A        2.7820   32.8660   80.0020 C.ar  143  HEM143      0.0000
      6  C2A        3.8650   33.6690   79.7030 C.ar  143  HEM143      0.0000
      7  C3A        3.6200   34.2860   78.5730 C.ar  143  HEM143      0.0000
      8  C4A        2.4020   33.7910   78.0040 C.ar  143  HEM143      0.0000
      9  CMA        4.5300   35.3900   77.9760 C.3   143  HEM143      0.0000
     10  CAA        4.9700   33.9870   80.7990 C.3   143  HEM143      0.0000
     11  CBA        5.9290   32.8510   80.8190 C.3   143  HEM143      0.0000
     12  CGA        6.4930   32.6430   82.1970 C.2   143  HEM143      0.0000
     13  O1A        7.4640   31.9060   82.3530 O.co2 143  HEM143      0.0000
     14  O2A        5.9610   33.2450   83.1320 O.co2 143  HEM143      0.0000
     15  C1B        0.8500   33.2860   76.1570 C.2   143  HEM143      0.0000
     16  C2B        0.2500   33.6320   74.9030 C.2   143  HEM143      0.0000
     17  C3B       -0.6220   32.6260   74.6850 C.2   143  HEM143      0.0000
     18  C4B       -0.7000   31.7460   75.9480 C.2   143  HEM143      0.0000
     19  CMB        0.5400   34.8270   73.7850 C.3   143  HEM143      0.0000
     20  CAB       -1.2640   32.5410   73.3600 C.3   143  HEM143      0.0000
     21  C1C       -2.0000   30.0990   77.3040 C.ar  143  HEM143      0.0000
     22  C2C       -3.1270   29.0780   77.4220 C.ar  143  HEM143      0.0000
     23  C3C       -2.9440   28.6700   78.7380 C.ar  143  HEM143      0.0000
     24  C4C       -1.6880   29.3660   79.2160 C.ar  143  HEM143      0.0000
     25  CMC       -4.3620   28.7180   76.3350 C.3   143  HEM143      0.0000
     26  CAC       -3.7870   27.7950   79.6140 C.3   143  HEM143      0.0000
     27  C1D       -0.0770   29.8540   81.1560 C.2   143  HEM143      0.0000
     28  C2D        0.2130   29.7730   82.5300 C.2   143  HEM143      0.0000
     29  C3D        1.3790   30.3800   82.6900 C.2   143  HEM143      0.0000
     30  C4D        1.7140   30.9800   81.3790 C.2   143  HEM143      0.0000
     31  CMD       -0.4000   28.8320   83.5070 C.3   143  HEM143      0.0000
     32  CAD        2.0050   30.6460   84.1210 C.3   143  HEM143      0.0000
     33  CBD        3.2710   29.8670   84.1590 C.3   143  HEM143      0.0000
     34  CGD        3.9630   29.8400   85.5510 C.2   143  HEM143      0.0000
     35  O1D        3.2840   29.8520   86.5840 O.co2 143  HEM143      0.0000
     36  O2D        5.2190   29.7900   85.5860 O.co2 143  HEM143      0.0000
     37  NA         2.0060   32.7460   78.8840 N.ar  143  HEM143      0.0000
     38  NB         0.3680   32.0060   76.8730 N.2   143  HEM143      0.0000
     39  NC        -1.3000   30.4030   78.3990 N.ar  143  HEM143      0.0000
     40  ND         0.6070   30.9990   80.4950 N.2   143  HEM143      0.0000
     41 FE          0.4060   31.5170   78.6530 Fe    143  HEM143      0.0000
@<TRIPOS>BOND
     1    20    17    1
     2    19    16    1
     3    17    16    2
     4    17    18    1
     5    16    15    1
     6    18     3    2
     7    18    38    1
     8    15     2    1
     9    15    38    2
    10     3    21    1
    11    25    22    1
    12     2     8    2
    13    38    41    1
    14    21    22   ar
    15    21    39   ar
    16    22    23   ar
    17     9     7    1
    18     8     7   ar
    19     8    37   ar
    20    39    41    1
    21    39    24   ar
    22     7     6   ar
    23    41    37    1
    24    41    40    1
    25    23    24   ar
    26    23    26    1
    27    37     5   ar
    28    24     4    1
    29     6     5   ar
    30     6    10    1
    31     5     1    2
    32    40    27    1
    33    40    30    2
    34     4    27    2
    35    10    11    1
    36    11    12    1
    37     1    30    1
    38    27    28    1
    39    30    29    1
    40    12    13   ar
    41    12    14   ar
    42    28    29    2
    43    28    31    1
    44    29    32    1
    45    32    33    1
    46    33    34    1
    47    34    36   ar
    48    34    35   ar
