@<TRIPOS>MOLECULE
1yq3_UQ_B_1.pdb
 14 14 0 0 0
SMALL
GASTEIGER

@<TRIPOS>ATOM
      1  C1        14.7210   29.7690   85.1090 C.2   1005  UQ1005      0.2237
      2  C2        13.3580   29.0190   85.0740 C.2   1005  UQ1005      0.1889
      3  C3        13.2640   27.6890   84.7110 C.3   1005  UQ1005      0.2356
      4  C4        14.5420   26.8670   84.3330 C.2   1005  UQ1005      0.2033
      5  C5        15.8680   27.5220   84.3180 C.2   1005  UQ1005      0.0149
      6  C6        16.0060   28.8670   84.6610 C.2   1005  UQ1005      0.0188
      7  CM5       17.0930   26.6670   83.9210 C.3   1005  UQ1005      0.0339
      8  CM3       10.8990   27.7160   84.0170 C.3   1005  UQ1005      0.1752
      9  CM2       11.7820   30.6940   84.4640 C.3   1005  UQ1005      0.2523
     10  C7        17.4400   29.4880   84.6200 C.3   1005  UQ1005      0.0342
     11  O2        12.1890   29.7240   85.4360 O.2   1005  UQ1005     -0.4696
     12  O3        11.9810   27.0790   84.7080 O.3   1005  UQ1005     -0.3387
     13  O4        14.5000   25.6750   84.0360 O.2   1005  UQ1005     -0.2886
     14  O1        14.7610   31.0180   85.4780 O.2   1005  UQ1005     -0.2839
@<TRIPOS>BOND
     1     7     5    1
     2     8    12    1
     3    13     4    2
     4     5     4    1
     5     5     6    2
     6     4     3    1
     7     9    11    1
     8    10     6    1
     9     6     1    1
    10    12     3    1
    11     3     2    1
    12     2     1    2
    13     2    11    1
    14     1    14    1
