@<TRIPOS>MOLECULE
1yq4_HEM_C_1.pdb
 41 48 0 0 0
SMALL
GASTEIGER

@<TRIPOS>ATOM
      1  CHA        2.4180   31.2640   80.8860 C.2   143  HEM143      0.0000
      2  CHB        1.9280   33.1340   76.4960 C.2   143  HEM143      0.0000
      3  CHC       -1.7960   30.2130   75.8930 C.2   143  HEM143      0.0000
      4  CHD       -1.3000   28.3940   80.1770 C.2   143  HEM143      0.0000
      5  C1A        2.6060   32.0120   79.7400 C.ar  143  HEM143      0.0000
      6  C2A        3.7430   32.7970   79.5370 C.ar  143  HEM143      0.0000
      7  C3A        3.6480   33.3380   78.2980 C.ar  143  HEM143      0.0000
      8  C4A        2.4380   32.8190   77.7430 C.ar  143  HEM143      0.0000
      9  CMA        4.6030   34.3790   77.7740 C.3   143  HEM143      0.0000
     10  CAA        4.8260   32.9670   80.5730 C.3   143  HEM143      0.0000
     11  CBA        5.8590   31.8580   80.5990 C.3   143  HEM143      0.0000
     12  CGA        6.4490   31.6690   81.9760 C.2   143  HEM143      0.0000
     13  O1A        7.3760   30.8470   82.1310 O.co2 143  HEM143      0.0000
     14  O2A        5.9750   32.3400   82.9120 O.co2 143  HEM143      0.0000
     15  C1B        0.9070   32.4340   75.8910 C.2   143  HEM143      0.0000
     16  C2B        0.3610   32.7570   74.5640 C.2   143  HEM143      0.0000
     17  C3B       -0.5680   31.7810   74.3120 C.2   143  HEM143      0.0000
     18  C4B       -0.7400   31.0330   75.5930 C.2   143  HEM143      0.0000
     19  CMB        0.7860   33.8230   73.5610 C.3   143  HEM143      0.0000
     20  CAB       -1.0740   31.5320   73.0300 C.3   143  HEM143      0.0000
     21  C1C       -2.0350   29.4010   76.9840 C.ar  143  HEM143      0.0000
     22  C2C       -3.1410   28.4520   77.1560 C.ar  143  HEM143      0.0000
     23  C3C       -3.0050   27.9930   78.4090 C.ar  143  HEM143      0.0000
     24  C4C       -1.7620   28.5600   78.8990 C.ar  143  HEM143      0.0000
     25  CMC       -4.2770   27.9450   76.1930 C.3   143  HEM143      0.0000
     26  CAC       -3.8820   27.0960   79.0760 C.3   143  HEM143      0.0000
     27  C1D       -0.2310   29.0360   80.7870 C.2   143  HEM143      0.0000
     28  C2D        0.1970   28.8420   82.1640 C.2   143  HEM143      0.0000
     29  C3D        1.3300   29.5640   82.3770 C.2   143  HEM143      0.0000
     30  C4D        1.4970   30.2600   81.1010 C.2   143  HEM143      0.0000
     31  CMD       -0.4340   27.9920   83.2270 C.3   143  HEM143      0.0000
     32  CAD        2.1020   29.7440   83.7490 C.3   143  HEM143      0.0000
     33  CBD        3.2410   28.7480   83.9190 C.3   143  HEM143      0.0000
     34  CGD        4.0950   29.0000   85.1660 C.2   143  HEM143      0.0000
     35  O1D        3.5540   28.9460   86.2860 O.co2 143  HEM143      0.0000
     36  O2D        5.3100   29.2450   85.0140 O.co2 143  HEM143      0.0000
     37  NA         1.9080   31.8570   78.5870 N.ar  143  HEM143      0.0000
     38  NB         0.3270   31.2670   76.4650 N.2   143  HEM143      0.0000
     39  NC        -1.1810   29.4000   78.0080 N.ar  143  HEM143      0.0000
     40  ND         0.5570   29.9560   80.1410 N.2   143  HEM143      0.0000
     41 FE          0.4360   30.6480   78.3700 Fe    143  HEM143      0.0000
@<TRIPOS>BOND
     1    20    17    1
     2    19    16    1
     3    17    16    2
     4    17    18    1
     5    16    15    1
     6    18     3    2
     7    18    38    1
     8    15    38    2
     9    15     2    1
    10     3    21    1
    11    25    22    1
    12    38    41    1
    13     2     8    2
    14    21    22   ar
    15    21    39   ar
    16    22    23   ar
    17     8     7   ar
    18     8    37   ar
    19     9     7    1
    20    39    41    1
    21    39    24   ar
    22     7     6   ar
    23    41    37    1
    24    41    40    1
    25    23    24   ar
    26    23    26    1
    27    37     5   ar
    28    24     4    1
    29     6     5   ar
    30     6    10    1
    31     5     1    2
    32    40    27    1
    33    40    30    2
    34     4    27    2
    35    10    11    1
    36    11    12    1
    37    27    28    1
    38     1    30    1
    39    30    29    1
    40    12    13   ar
    41    12    14   ar
    42    28    29    2
    43    28    31    1
    44    29    32    1
    45    32    33    1
    46    33    34    1
    47    36    34   ar
    48    34    35   ar
