@<TRIPOS>MOLECULE
1yq4_UQ_C_1.pdb
 14 14 0 0 0
SMALL
GASTEIGER

@<TRIPOS>ATOM
      1  C1        14.8450   28.6960   84.5970 C.2   144  UQ144       0.2282
      2  C2        13.4250   28.1050   84.7790 C.2   144  UQ144       0.2140
      3  C3        13.1650   26.7460   84.5410 C.2   144  UQ144       0.2140
      4  C4        14.3100   25.7930   84.0960 C.2   144  UQ144       0.2282
      5  C5        15.7280   26.3690   83.9130 C.2   144  UQ144       0.0195
      6  C6        15.9900   27.7330   84.1410 C.2   144  UQ144       0.0195
      7  CM5       16.8480   25.3930   83.4700 C.3   144  UQ144       0.0343
      8  CM3       10.7880   26.7370   83.8640 C.3   144  UQ144       0.2528
      9  CM2       11.8450   29.7870   84.1490 C.3   144  UQ144       0.2528
     10  C7        17.4250   28.3270   83.9490 C.3   144  UQ144       0.0343
     11  O2        12.4010   28.9830   85.1970 O.2   144  UQ144      -0.4652
     12  O3        11.8540   26.2080   84.7090 O.2   144  UQ144      -0.4652
     13  O4        14.0910   24.5800   83.8900 O.2   144  UQ144      -0.2836
     14  O1        15.0460   29.9260   84.8170 O.2   144  UQ144      -0.2836
@<TRIPOS>BOND
     1     7     5    1
     2     8    12    1
     3    13     4    2
     4     5     4    1
     5     5     6    2
     6    10     6    1
     7     4     3    1
     8     6     1    1
     9     9    11    1
    10     3    12    1
    11     3     2    2
    12     1     2    1
    13     1    14    2
    14     2    11    1
