@<TRIPOS>MOLECULE
1yq7_RIS_A_1.pdb
 17 17 0 0 0
SMALL
GASTEIGER

@<TRIPOS>ATOM
      1  O12       17.1130   35.6480   -7.1730 O.3   901  RIS901     -0.3553
      2  P9        15.6220   35.7510   -7.5440 P.3   901  RIS901      0.1514
      3  O11       15.2410   36.8680   -8.4700 O.2   901  RIS901     -0.4572
      4  O10       14.6530   35.7080   -6.4380 O.3   901  RIS901     -0.3553
      5  C8        15.2300   34.2510   -8.5000 C.3   901  RIS901      0.2200
      6  O13       13.9550   34.4130   -9.0880 O.3   901  RIS901     -0.2105
      7  P14       16.4390   34.0860   -9.8350 P.3   901  RIS901      0.1514
      8  O16       16.5730   35.4550  -10.3770 O.3   901  RIS901     -0.3553
      9  O15       17.6320   33.7370   -9.0970 O.3   901  RIS901     -0.3553
     10  O17       16.2430   33.1400  -11.0180 O.2   901  RIS901     -0.4572
     11  C7        15.1780   33.1050   -7.4750 C.3   901  RIS901      0.0725
     12  C2        15.0330   31.7070   -8.0640 C.ar  901  RIS901      0.0004
     13  C1        15.6350   30.6600   -7.3810 C.ar  901  RIS901     -0.0010
     14  C6        15.5210   29.3720   -7.8830 C.ar  901  RIS901      0.0204
     15  C5        14.7750   29.1440   -8.9990 C.ar  901  RIS901      0.0989
     16  N4        14.1900   30.1470   -9.6420 N.ar  901  RIS901     -0.2426
     17  C3        14.2860   31.4040   -9.1910 C.ar  901  RIS901      0.0947
@<TRIPOS>BOND
     1    10     7    2
     2     8     7    1
     3     7     9    1
     4     7     5    1
     5    16    17   ar
     6    16    15   ar
     7    17    12   ar
     8     6     5    1
     9    15    14   ar
    10     5     2    1
    11     5    11    1
    12     3     2    2
    13    12    11    1
    14    12    13   ar
    15    14    13   ar
    16     2     1    1
    17     2     4    1
