@<TRIPOS>MOLECULE
1yqd_NAP_A_1.pdb
 48 52 0 0 0
SMALL
GASTEIGER

@<TRIPOS>ATOM
      1  PA        48.9480  128.7620   23.6510 P.3   500  NAP500      0.2189
      2  O1A       47.5640  128.6190   23.8490 O.2   500  NAP500     -0.5170
      3  O2A       49.7640  129.9440   24.0700 O.3   500  NAP500     -0.4371
      4  O5B       49.3510  128.6140   22.1060 O.3   500  NAP500     -0.3112
      5  C5B       48.7290  127.5590   21.3730 C.3   500  NAP500      0.1813
      6  C4B       48.8300  128.2180   19.9980 C.3   500  NAP500      0.1820
      7  O4B       48.0960  127.2210   18.9180 O.3   500  NAP500     -0.3136
      8  C3B       47.4730  129.2000   19.7450 C.3   500  NAP500      0.2157
      9  O3B       48.2030  130.5320   19.7220 O.3   500  NAP500     -0.2175
     10  C2B       47.0060  129.1260   18.3630 C.3   500  NAP500      0.2314
     11  O2B       47.9530  129.5700   17.4210 O.3   500  NAP500     -0.2630
     12  C1B       47.1170  127.5330   18.2100 C.3   500  NAP500      0.3158
     13  N9A       45.8030  126.9150   18.4560 N.pl3 500  NAP500     -0.1439
     14  C8A       44.9830  126.9160   19.5870 C.3   500  NAP500      0.3377
     15  N7A       43.8530  126.2270   19.4090 N.2   500  NAP500     -0.2095
     16  C5A       43.9530  125.7510   18.0920 C.2   500  NAP500      0.2526
     17  C6A       43.0470  124.9320   17.2950 C.2   500  NAP500      0.4393
     18  N6A       41.8470  124.4290   17.6760 N.pl3 500  NAP500      0.2180
     19  N1A       43.4470  124.6060   15.9580 N.2   500  NAP500      0.0021
     20  C2A       44.6930  125.0740   15.4320 C.3   500  NAP500      0.5254
     21  N3A       45.5860  125.8730   16.1890 N.2   500  NAP500     -0.0055
     22  C4A       45.1740  126.1840   17.5110 C.2   500  NAP500      0.3518
     23  O3        49.6910  127.5130   24.3110 O.3   500  NAP500     -0.2703
     24  PN        51.2110  127.4140   24.7030 P.3   500  NAP500      0.2189
     25  O1N       52.2190  127.3320   23.6760 O.2   500  NAP500     -0.5170
     26  O2N       51.4530  127.4430   26.1480 O.3   500  NAP500     -0.4371
     27  O5D       51.0750  125.7780   24.7520 O.3   500  NAP500     -0.3112
     28  C5D       50.7920  124.9710   23.5370 C.3   500  NAP500      0.1813
     29  C4D       50.6820  123.4810   23.8350 C.3   500  NAP500      0.1799
     30  O4D       51.9540  122.8720   24.1530 O.3   500  NAP500     -0.3327
     31  C3D       49.7460  123.0320   25.0290 C.3   500  NAP500      0.2158
     32  O3D       48.9540  121.8850   24.6490 O.3   500  NAP500     -0.2175
     33  C2D       50.7290  122.7390   26.1220 C.3   500  NAP500      0.2309
     34  O2D       50.1920  121.9350   27.1520 O.3   500  NAP500     -0.2158
     35  C1D       51.7940  122.1030   25.3630 C.3   500  NAP500      0.2263
     36  N1N       53.1480  122.0280   25.9540 N.pl3 500  NAP500     -0.2787
     37  C2N       53.9150  120.8520   25.7900 C.3   500  NAP500      0.1244
     38  C3N       55.1750  120.7790   26.3570 C.2   500  NAP500      0.0544
     39  C7N       55.9690  119.4960   26.1610 C.2   500  NAP500      0.2818
     40  O7N       57.0580  119.4350   26.6760 O.2   500  NAP500     -0.2670
     41  N7N       55.4780  118.5240   25.4680 N.am  500  NAP500     -0.0839
     42  C4N       55.7310  121.8950   27.1230 C.2   500  NAP500      0.0033
     43  C5N       54.9280  123.0730   27.2620 C.2   500  NAP500      0.0157
     44  C6N       53.6190  123.1660   26.6820 C.2   500  NAP500      0.0633
     45  P2B       47.4290  130.3700   16.0150 P.3   500  NAP500      0.5328
     46  O1X       48.7270  130.7090   15.2940 O.2   500  NAP500     -0.2224
     47  O2X       46.5920  129.3380   15.3300 O.3   500  NAP500     -0.1145
     48  O3X       46.7020  131.6180   16.4860 O.3   500  NAP500     -0.1145
@<TRIPOS>BOND
     1    46    45    2
     2    47    45    1
     3    20    19    1
     4    20    21    1
     5    19    17    2
     6    45    48    1
     7    45    11    1
     8    21    22    2
     9    17    18    1
    10    17    16    1
    11    11    10    1
    12    22    16    1
    13    22    13    1
    14    16    15    2
    15    12    10    1
    16    12    13    1
    17    12     7    1
    18    10     8    1
    19    13    14    1
    20     7     6    1
    21    15    14    1
    22     9     8    1
    23     8     6    1
    24     6     5    1
    25     5     4    1
    26     4     1    1
    27    28    29    1
    28    28    27    1
    29     1     2    2
    30     1     3    1
    31     1    23    1
    32    25    24    2
    33    29    30    1
    34    29    31    1
    35    30    35    1
    36    23    24    1
    37    32    31    1
    38    24    27    1
    39    24    26    1
    40    31    33    1
    41    35    36    1
    42    35    33    1
    43    41    39   am
    44    37    36    1
    45    37    38    1
    46    36    44    1
    47    33    34    1
    48    39    38    1
    49    39    40    2
    50    38    42    2
    51    44    43    2
    52    42    43    1
