@<TRIPOS>MOLECULE
1yqj_6NP_A_1.pdb
 35 40 0 0 0
SMALL
GASTEIGER

@<TRIPOS>ATOM
      1  C1        23.6430   14.9290   32.1010 C.ar  362  6NP362      0.1535
      2  N1        22.4710   15.6330   32.1960 N.ar  362  6NP362     -0.1329
      3  N2        21.3140   14.9480   32.2960 N.ar  362  6NP362     -0.1468
      4  C2        21.1820   13.5710   32.3150 C.ar  362  6NP362      0.1029
      5  C3        22.4790   12.7690   32.2120 C.ar  362  6NP362      0.0223
      6  C5        22.5310   11.2510   32.2180 C.ar  362  6NP362      0.0047
      7  C6        23.2230   10.5610   33.2370 C.ar  362  6NP362      0.0207
      8  C7        23.2490    9.1520   33.2260 C.ar  362  6NP362      0.0989
      9  N3        22.6270    8.4090   32.2650 N.ar  362  6NP362     -0.2423
     10  C8        21.9560    9.0690   31.2750 C.ar  362  6NP362      0.0989
     11  C9        21.8880   10.4730   31.2180 C.ar  362  6NP362      0.0207
     12  C4        23.6570   13.5070   32.1080 C.ar  362  6NP362      0.0377
     13  C10       27.8700   13.9630   30.4080 C.3   362  6NP362      0.0455
     14  C11       26.8240   11.7310   29.7290 C.ar  362  6NP362     -0.0042
     15  C12       26.5550   10.3600   29.9570 C.ar  362  6NP362     -0.0003
     16  C13       27.0480    9.7340   31.1220 C.ar  362  6NP362     -0.0000
     17  C14       27.8140   10.4800   32.0570 C.ar  362  6NP362     -0.0003
     18  C15       28.0830   11.8510   31.8270 C.ar  362  6NP362     -0.0042
     19  C16       27.5910   12.4930   30.6620 C.ar  362  6NP362     -0.0207
     20  C17       19.8100   12.9610   32.4270 C.ar  362  6NP362      0.0194
     21  C18       18.8840   13.1410   31.3700 C.ar  362  6NP362      0.0016
     22  C19       17.5850   12.5410   31.4540 C.ar  362  6NP362      0.0000
     23  C20       17.2100   11.7480   32.6140 C.ar  362  6NP362      0.0000
     24  C21       18.1480   11.5830   33.6660 C.ar  362  6NP362      0.0000
     25  C22       19.4290   12.1850   33.5640 C.ar  362  6NP362      0.0016
     26  C23       16.6480   12.7130   30.3860 C.ar  362  6NP362      0.0000
     27  C24       15.3620   12.1020   30.4710 C.ar  362  6NP362      0.0000
     28  C25       15.0030   11.3250   31.6110 C.ar  362  6NP362      0.0000
     29  C26       15.9170   11.1430   32.6880 C.ar  362  6NP362      0.0000
     30  C27       26.6020   14.8180   30.5590 C.3   362  6NP362      0.0969
     31  C28       26.1720   15.0500   32.0230 C.3   362  6NP362      0.1099
     32  N4        24.8320   15.6810   31.9890 N.pl3 362  6NP362     -0.2889
     33  C29       24.7960   17.0030   31.3040 C.3   362  6NP362      0.1110
     34  C30       25.4250   16.8890   29.8890 C.3   362  6NP362      0.1101
     35  N5        26.7050   16.1300   29.8820 N.3   362  6NP362     -0.2156
@<TRIPOS>BOND
     1    14    15   ar
     2    14    19   ar
     3    35    34    1
     4    35    30    1
     5    34    33    1
     6    15    16   ar
     7    26    27   ar
     8    26    22   ar
     9    13    30    1
    10    13    19    1
    11    27    28   ar
    12    30    31    1
    13    19    18   ar
    14    16    17   ar
    15    11    10   ar
    16    11     6   ar
    17    10     9   ar
    18    33    32    1
    19    21    22   ar
    20    21    20   ar
    21    22    23   ar
    22    28    29   ar
    23    18    17   ar
    24    32    31    1
    25    32     1    1
    26     1    12   ar
    27     1     2   ar
    28    12     5   ar
    29     2     3   ar
    30     5     6    1
    31     5     4   ar
    32     6     7   ar
    33     9     8   ar
    34     3     4   ar
    35     4    20    1
    36    20    25   ar
    37    23    29   ar
    38    23    24   ar
    39     8     7   ar
    40    25    24   ar
