@<TRIPOS>MOLECULE
1yqn_CDP_A_1.pdb
 25 26 0 0 0
SMALL
GASTEIGER

@<TRIPOS>ATOM
      1  O3B       30.7480   -7.5100   56.8440 O.3   200  CDP200     -0.1143
      2  PB        29.2890   -7.3800   57.5160 P.3   200  CDP200      0.5373
      3  O1B       29.1770   -6.0950   58.3270 O.3   200  CDP200     -0.1143
      4  O2B       28.2240   -7.4300   56.4500 O.2   200  CDP200     -0.2221
      5  O3A       29.1840   -8.6770   58.4860 O.3   200  CDP200     -0.2261
      6  PA        28.7040   -8.5780   60.0250 P.3   200  CDP200      0.2231
      7  O1A       27.4000   -9.3090   60.2100 O.2   200  CDP200     -0.5169
      8  O2A       28.6130   -7.1150   60.4560 O.3   200  CDP200     -0.4370
      9  O5'       29.8440   -9.3870   60.7970 O.3   200  CDP200     -0.3111
     10  C5'       31.1770   -9.2780   60.3600 C.3   200  CDP200      0.1813
     11  C4'       32.0290  -10.4340   60.8740 C.3   200  CDP200      0.1799
     12  O4'       31.8260  -10.7310   62.2480 O.3   200  CDP200     -0.3320
     13  C3'       31.7290  -11.7240   60.1430 C.3   200  CDP200      0.2158
     14  O3'       32.3660  -11.7560   58.8870 O.3   200  CDP200     -0.2175
     15  C2'       32.2540  -12.7560   61.1150 C.3   200  CDP200      0.2319
     16  O2'       33.6510  -12.8750   60.9800 O.3   200  CDP200     -0.2157
     17  C1'       31.9780  -12.1230   62.4670 C.3   200  CDP200      0.2400
     18  N1        30.7940  -12.7170   63.1380 N.am  200  CDP200     -0.1778
     19  C2        30.9870  -13.4450   64.3030 C.1   200  CDP200      0.2756
     20  O2        32.1230  -13.7180   64.6890 O.2   200  CDP200     -0.1925
     21  N3        29.9010  -13.8710   65.0540 N.2   200  CDP200     -0.3024
     22  C4        28.6120  -13.5170   64.6980 C.2   200  CDP200      0.2346
     23  N4        27.5770  -13.9610   65.4090 N.pl3 200  CDP200     -0.0921
     24  C5        28.4210  -12.6940   63.5900 C.2   200  CDP200      0.0687
     25  C6        29.5220  -12.2990   62.8290 C.2   200  CDP200      0.0836
@<TRIPOS>BOND
     1     4     2    2
     2     1     2    1
     3     2     3    1
     4     2     5    1
     5     5     6    1
     6    14    13    1
     7     6     7    2
     8     6     8    1
     9     6     9    1
    10    13    11    1
    11    13    15    1
    12    10     9    1
    13    10    11    1
    14    11    12    1
    15    16    15    1
    16    15    17    1
    17    12    17    1
    18    17    18    1
    19    25    18    1
    20    25    24    2
    21    18    19   am
    22    24    22    1
    23    19    20    2
    24    19    21    2
    25    22    21    2
    26    22    23    1
