@<TRIPOS>MOLECULE
1yqn_GPP_A_1.pdb
 19 18 0 0 0
SMALL
GASTEIGER

@<TRIPOS>ATOM
      1  C1        12.5170  -12.4880   57.6850 C.3   300  GPP300      0.1747
      2  O1        12.2300  -11.4750   58.6480 O.3   300  GPP300     -0.3089
      3  C2        13.9370  -12.9550   57.8720 C.2   300  GPP300     -0.0024
      4  C3        14.7240  -13.4030   56.8870 C.2   300  GPP300     -0.0454
      5  C4        14.3250  -13.2960   55.4410 C.3   300  GPP300      0.0261
      6  C5        16.0330  -14.0260   57.3150 C.3   300  GPP300      0.0264
      7  C6        16.8640  -14.4590   56.1190 C.3   300  GPP300      0.0297
      8  C7        17.1020  -15.9470   56.2180 C.2   300  GPP300     -0.0342
      9  C8        17.2020  -16.7470   55.1430 C.2   300  GPP300     -0.0478
     10  C9        17.0860  -16.2220   53.7420 C.3   300  GPP300      0.0260
     11  C10       17.4350  -18.2100   55.3470 C.3   300  GPP300      0.0260
     12  PA        11.5550  -11.7920   60.0780 P.3   300  GPP300      0.2233
     13  O1A       10.6460  -12.9880   59.9550 O.2   300  GPP300     -0.5169
     14  O2A       12.6550  -11.8100   61.1090 O.3   300  GPP300     -0.4370
     15  O3A       10.6420  -10.4700   60.2710 O.3   300  GPP300     -0.2261
     16  PB        10.0040   -9.9530   61.6740 P.3   300  GPP300      0.5373
     17  O1B       10.7610  -10.7190   62.7450 O.3   300  GPP300     -0.1143
     18  O2B       10.2890   -8.4610   61.6640 O.3   300  GPP300     -0.1143
     19  O3B        8.5250  -10.2900   61.5960 O.2   300  GPP300     -0.2221
@<TRIPOS>BOND
     1    10     9    1
     2     9    11    1
     3     9     8    2
     4     5     4    1
     5     7     8    1
     6     7     6    1
     7     4     6    1
     8     4     3    2
     9     1     3    1
    10     1     2    1
    11     2    12    1
    12    13    12    2
    13    12    15    1
    14    12    14    1
    15    15    16    1
    16    19    16    2
    17    18    16    1
    18    16    17    1
