@<TRIPOS>MOLECULE
1yqo_HEM_A_1.pdb
 43 50 0 0 0
SMALL
GASTEIGER

@<TRIPOS>ATOM
      1 FE         25.9790   -1.4690   14.3920 Fe    460  HEM460      0.0000
      2  CHA       28.3190   -3.5510   12.8060 C.2   460  HEM460      0.0000
      3  CHB       23.4320   -3.4300   13.2300 C.2   460  HEM460      0.0000
      4  CHC       23.6870    0.5860   15.9080 C.2   460  HEM460      0.0000
      5  CHD       28.4770    0.7390   15.1680 C.2   460  HEM460      0.0000
      6  NA        25.9150   -3.1480   13.2150 N.ar  460  HEM460      0.0000
      7  C1A       26.9560   -3.8670   12.6710 C.ar  460  HEM460      0.0000
      8  C2A       26.4060   -5.0290   12.0040 C.ar  460  HEM460      0.0000
      9  C3A       25.0710   -4.9950   12.1680 C.ar  460  HEM460      0.0000
     10  C4A       24.7300   -3.8080   12.8940 C.ar  460  HEM460      0.0000
     11  CMA       24.0360   -5.9950   11.5730 C.3   460  HEM460      0.0000
     12  CAA       27.2200   -6.1280   11.2650 C.3   460  HEM460      0.0000
     13  CBA       27.5640   -5.6490    9.8510 C.3   460  HEM460      0.0000
     14  CGA       28.1450   -6.7210    8.9600 C.2   460  HEM460      0.0000
     15  O1A       28.2470   -7.9310    9.3460 O.co2 460  HEM460      0.0000
     16  O2A       28.6120   -6.3320    7.8400 O.co2 460  HEM460      0.0000
     17  NB        23.9540   -1.4070   14.4710 N.2   460  HEM460      0.0000
     18  C1B       23.0800   -2.3760   14.0080 C.2   460  HEM460      0.0000
     19  C2B       21.7100   -2.0420   14.4310 C.2   460  HEM460      0.0000
     20  C3B       21.8290   -0.9000   15.1600 C.2   460  HEM460      0.0000
     21  C4B       23.2250   -0.4980   15.2250 C.2   460  HEM460      0.0000
     22  CMB       20.4360   -2.8760   14.0710 C.3   460  HEM460      0.0000
     23  CAB       20.7670   -0.1050   15.8830 C.2   460  HEM460      0.0000
     24  CBB       19.6980   -0.6920   16.4410 C.2   460  HEM460      0.0000
     25  NC        26.0620    0.3170   15.3280 N.ar  460  HEM460      0.0000
     26  C1C       25.0290    0.9640   15.9820 C.ar  460  HEM460      0.0000
     27  C2C       25.5640    2.0450   16.7890 C.ar  460  HEM460      0.0000
     28  C3C       26.8550    2.1200   16.4940 C.ar  460  HEM460      0.0000
     29  C4C       27.1970    1.0040   15.6170 C.ar  460  HEM460      0.0000
     30  CMC       24.7350    3.1110   17.5830 C.3   460  HEM460      0.0000
     31  CAC       27.9580    3.0620   16.9860 C.2   460  HEM460      0.0000
     32  CBC       27.8630    3.8090   18.0800 C.2   460  HEM460      0.0000
     33  ND        28.0480   -1.4130   14.0350 N.2   460  HEM460      0.0000
     34  C1D       28.8700   -0.4050   14.4790 C.2   460  HEM460      0.0000
     35  C2D       30.2270   -0.7200   14.1170 C.2   460  HEM460      0.0000
     36  C3D       30.1660   -2.0030   13.4100 C.2   460  HEM460      0.0000
     37  C4D       28.7900   -2.3930   13.3650 C.2   460  HEM460      0.0000
     38  CMD       31.4970    0.1570   14.3090 C.3   460  HEM460      0.0000
     39  CAD       31.3590   -2.7850   12.8610 C.3   460  HEM460      0.0000
     40  CBD       31.8640   -3.6390   14.0730 C.3   460  HEM460      0.0000
     41  CGD       33.0260   -4.5060   13.6330 C.2   460  HEM460      0.0000
     42  O1D       34.0880   -4.5300   14.3010 O.co2 460  HEM460      0.0000
     43  O2D       32.8820   -5.1870   12.5730 O.co2 460  HEM460      0.0000
@<TRIPOS>BOND
     1    16    14   ar
     2    14    15   ar
     3    14    13    1
     4    13    12    1
     5    12     8    1
     6    11     9    1
     7     8     9   ar
     8     8     7   ar
     9     9    10   ar
    10    43    41   ar
    11     7     2    2
    12     7     6   ar
    13     2    37    1
    14    39    36    1
    15    39    40    1
    16    10     6   ar
    17    10     3    2
    18     6     1    1
    19     3    18    1
    20    37    36    1
    21    37    33    2
    22    36    35    2
    23    41    40    1
    24    41    42   ar
    25    18    19    1
    26    18    17    2
    27    33     1    1
    28    33    34    1
    29    22    19    1
    30    35    38    1
    31    35    34    1
    32     1    17    1
    33     1    25    1
    34    19    20    2
    35    17    21    1
    36    34     5    2
    37    20    21    1
    38    20    23    1
    39     5    29    1
    40    21     4    2
    41    25    29   ar
    42    25    26   ar
    43    29    28   ar
    44    23    24    2
    45     4    26    1
    46    26    27   ar
    47    28    27   ar
    48    28    31    1
    49    27    30    1
    50    31    32    2
