@<TRIPOS>MOLECULE
1yqp_HEM_A_1.pdb
 43 50 0 0 0
SMALL
GASTEIGER

@<TRIPOS>ATOM
      1 FE         26.0820   -1.5330   14.4270 Fe    460  HEM460      0.0000
      2  CHA       28.3810   -3.5800   12.7950 C.2   460  HEM460      0.0000
      3  CHB       23.5590   -3.4560   13.2010 C.2   460  HEM460      0.0000
      4  CHC       23.8300    0.5420   15.9340 C.2   460  HEM460      0.0000
      5  CHD       28.6260    0.7370   15.1830 C.2   460  HEM460      0.0000
      6  NA        25.9720   -3.1840   13.1560 N.ar  460  HEM460      0.0000
      7  C1A       27.0430   -3.9200   12.6510 C.ar  460  HEM460      0.0000
      8  C2A       26.5280   -5.1270   12.0260 C.ar  460  HEM460      0.0000
      9  C3A       25.1860   -5.0910   12.1210 C.ar  460  HEM460      0.0000
     10  C4A       24.8280   -3.8730   12.8600 C.ar  460  HEM460      0.0000
     11  CMA       24.1770   -6.1540   11.5480 C.3   460  HEM460      0.0000
     12  CAA       27.3950   -6.1860   11.3160 C.3   460  HEM460      0.0000
     13  CBA       27.6740   -5.6870    9.8780 C.3   460  HEM460      0.0000
     14  CGA       28.3010   -6.7900    9.0160 C.2   460  HEM460      0.0000
     15  O1A       28.3530   -7.9830    9.4110 O.co2 460  HEM460      0.0000
     16  O2A       28.7120   -6.4780    7.8740 O.co2 460  HEM460      0.0000
     17  NB        24.0870   -1.4250   14.4910 N.2   460  HEM460      0.0000
     18  C1B       23.2220   -2.3970   14.0000 C.2   460  HEM460      0.0000
     19  C2B       21.8620   -2.0810   14.4350 C.2   460  HEM460      0.0000
     20  C3B       21.9490   -0.9500   15.2010 C.2   460  HEM460      0.0000
     21  C4B       23.3470   -0.5280   15.2480 C.2   460  HEM460      0.0000
     22  CMB       20.6070   -2.9350   14.0860 C.3   460  HEM460      0.0000
     23  CAB       20.8550   -0.1780   15.9080 C.2   460  HEM460      0.0000
     24  CBB       19.6850   -0.7350   16.3190 C.2   460  HEM460      0.0000
     25  NC        26.2180    0.3230   15.3510 N.ar  460  HEM460      0.0000
     26  C1C       25.1670    0.9260   16.0180 C.ar  460  HEM460      0.0000
     27  C2C       25.6570    2.0830   16.7280 C.ar  460  HEM460      0.0000
     28  C3C       26.9890    2.1010   16.5800 C.ar  460  HEM460      0.0000
     29  C4C       27.3570    1.0110   15.6790 C.ar  460  HEM460      0.0000
     30  CMC       24.7910    2.9720   17.6570 C.3   460  HEM460      0.0000
     31  CAC       28.0530    3.0440   17.1080 C.2   460  HEM460      0.0000
     32  CBC       27.8560    3.8560   18.1370 C.2   460  HEM460      0.0000
     33  ND        28.1730   -1.4230   14.0130 N.2   460  HEM460      0.0000
     34  C1D       29.0060   -0.3980   14.4610 C.2   460  HEM460      0.0000
     35  C2D       30.3650   -0.7550   14.1490 C.2   460  HEM460      0.0000
     36  C3D       30.2770   -2.0880   13.4540 C.2   460  HEM460      0.0000
     37  C4D       28.8820   -2.4330   13.3780 C.2   460  HEM460      0.0000
     38  CMD       31.6630    0.0430   14.3780 C.3   460  HEM460      0.0000
     39  CAD       31.4800   -2.8850   12.9490 C.3   460  HEM460      0.0000
     40  CBD       31.9950   -3.7540   14.1210 C.3   460  HEM460      0.0000
     41  CGD       33.1880   -4.5910   13.6900 C.2   460  HEM460      0.0000
     42  O1D       34.2480   -4.5380   14.3880 O.co2 460  HEM460      0.0000
     43  O2D       33.0770   -5.2600   12.6260 O.co2 460  HEM460      0.0000
@<TRIPOS>BOND
     1    16    14   ar
     2    14    15   ar
     3    14    13    1
     4    13    12    1
     5    12     8    1
     6    11     9    1
     7     8     9   ar
     8     8     7   ar
     9     9    10   ar
    10    43    41   ar
    11     7     2    2
    12     7     6   ar
    13     2    37    1
    14    10     6   ar
    15    10     3    2
    16    39    36    1
    17    39    40    1
    18     6     1    1
    19     3    18    1
    20    37    36    1
    21    37    33    2
    22    36    35    2
    23    41    40    1
    24    41    42   ar
    25    18    19    1
    26    18    17    2
    27    33     1    1
    28    33    34    1
    29    22    19    1
    30    35    38    1
    31    35    34    1
    32     1    17    1
    33     1    25    1
    34    19    20    2
    35    34     5    2
    36    17    21    1
    37     5    29    1
    38    20    21    1
    39    20    23    1
    40    21     4    2
    41    25    29   ar
    42    25    26   ar
    43    29    28   ar
    44    23    24    2
    45     4    26    1
    46    26    27   ar
    47    28    27   ar
    48    28    31    1
    49    27    30    1
    50    31    32    2
