@<TRIPOS>MOLECULE
1yqq_GUN_A_1.pdb
 11 12 0 0 0
SMALL
GASTEIGER

@<TRIPOS>ATOM
      1  N9        44.7690   28.1090   -2.0840 N.2   400  GUN400     -0.1802
      2  C8        44.9950   26.8510   -2.5250 C.3   400  GUN400      0.2633
      3  N7        44.5780   25.8970   -1.7370 N.2   400  GUN400     -0.2212
      4  C5        44.0320   26.6060   -0.6710 C.2   400  GUN400      0.2482
      5  C6        43.3980   26.1450    0.5410 C.1   400  GUN400      0.2442
      6  O6        43.2030   24.9940    0.9270 O.2   400  GUN400     -0.2063
      7  N1        42.9900   27.2290    1.3410 N.2   400  GUN400     -0.2474
      8  C2        43.1440   28.5650    1.0450 C.1   400  GUN400      0.2608
      9  N2        42.6890   29.4700    1.9220 N.pl3 400  GUN400     -0.0220
     10  N3        43.7280   28.9900   -0.0740 N.2   400  GUN400     -0.2682
     11  C4        44.1450   27.9620   -0.8920 C.1   400  GUN400      0.1289
@<TRIPOS>BOND
     1     2     1    1
     2     2     3    1
     3     1    11    2
     4     3     4    2
     5    11     4    1
     6    11    10    2
     7     4     5    1
     8    10     8    2
     9     5     6    2
    10     5     7    2
    11     8     7    2
    12     8     9    1
