@<TRIPOS>MOLECULE
1yqs_BSA_A_1.pdb
 14 14 0 0 0
SMALL
GASTEIGER

@<TRIPOS>ATOM
      1  C1        21.0140   -7.1170   42.2430 C.ar  400  BSA400      0.0550
      2  C2        21.7990   -7.7360   43.2680 C.ar  400  BSA400      0.0046
      3  C3        22.9750   -7.0820   43.6640 C.ar  400  BSA400      0.0001
      4  C4        23.3900   -5.8600   43.0800 C.ar  400  BSA400      0.0000
      5  C5        22.6130   -5.1980   42.1210 C.ar  400  BSA400      0.0001
      6  C6        21.4910   -5.9270   41.6660 C.ar  400  BSA400      0.0046
      7  C7        17.5530   -9.7280   40.2230 C.3   400  BSA400      0.1712
      8  S8        17.0330   -8.2200   39.5520 S.3   400  BSA400     -0.0165
      9  N9        19.3550   -8.9300   41.7970 N.am  400  BSA400     -0.1998
     10  C10       18.1400   -9.6500   41.6370 C.3   400  BSA400      0.1405
     11  O11       18.1900   -7.5070   39.1760 O.3   400  BSA400     -0.0781
     12  O12       16.1110   -7.6280   40.4800 O.3   400  BSA400     -0.0781
     13  C13       19.6390   -7.5930   42.0010 C.2   400  BSA400      0.2648
     14  O14       18.7320   -6.8170   42.0640 O.2   400  BSA400     -0.2684
@<TRIPOS>BOND
     1    11     8    1
     2     8     7    1
     3     8    12    1
     4     7    10    1
     5    10     9    1
     6     6     5   ar
     7     6     1   ar
     8     9    13   am
     9    13    14    2
    10    13     1    1
    11     5     4   ar
    12     1     2   ar
    13     4     3   ar
    14     2     3   ar
