@<TRIPOS>MOLECULE
1yqt_ADP_A_1.pdb
 27 29 0 0 0
SMALL
GASTEIGER

@<TRIPOS>ATOM
      1  PB        21.3440   16.4680   15.6130 P.3   593  ADP593      0.5373
      2  O1B       20.2100   16.3980   14.6270 O.2   593  ADP593     -0.2221
      3  O2B       20.9900   16.3600   17.0870 O.3   593  ADP593     -0.1143
      4  O3B       22.1350   17.7750   15.3200 O.3   593  ADP593     -0.1143
      5  PA        22.4490   14.2420   14.0570 P.3   593  ADP593      0.2231
      6  O1A       21.5470   13.1340   14.3950 O.3   593  ADP593     -0.4370
      7  O2A       22.3280   14.8990   12.7380 O.2   593  ADP593     -0.5169
      8  O3A       22.3960   15.3750   15.1610 O.3   593  ADP593     -0.2261
      9  O5'       23.9290   13.7250   14.2150 O.3   593  ADP593     -0.3111
     10  C5'       24.4300   12.9630   15.3190 C.3   593  ADP593      0.1813
     11  C4'       25.9150   12.7150   15.0810 C.3   593  ADP593      0.1821
     12  O4'       25.9700   11.6510   14.1110 O.3   593  ADP593     -0.3135
     13  C3'       26.7100   13.8850   14.4870 C.3   593  ADP593      0.2184
     14  O3'       27.9970   13.8820   15.1130 O.3   593  ADP593     -0.2174
     15  C2'       26.7870   13.5330   13.0110 C.3   593  ADP593      0.2570
     16  O2'       27.9870   14.0270   12.4070 O.3   593  ADP593     -0.2130
     17  C1'       26.7970   12.0070   12.9730 C.3   593  ADP593      0.3186
     18  N9        26.1440   11.3990   11.7790 N.pl3 593  ADP593     -0.1439
     19  C8        24.8530   11.5470   11.3330 C.3   593  ADP593      0.3377
     20  N7        24.5640   10.8640   10.2450 N.2   593  ADP593     -0.2095
     21  C5        25.7510   10.2180    9.9670 C.2   593  ADP593      0.2526
     22  C6        26.1170    9.3260    8.9400 C.2   593  ADP593      0.4393
     23  N6        25.2300    8.9600    8.0190 N.pl3 593  ADP593      0.2180
     24  N1        27.3720    8.8390    8.9190 N.2   593  ADP593      0.0021
     25  C2        28.2470    9.2220    9.8630 C.3   593  ADP593      0.5254
     26  N3        28.0300   10.0670   10.8950 N.2   593  ADP593     -0.0055
     27  C4        26.7320   10.5340   10.8770 C.2   593  ADP593      0.3518
@<TRIPOS>BOND
     1    23    22    1
     2    24    22    2
     3    24    25    1
     4    22    21    1
     5    25    26    1
     6    21    20    2
     7    21    27    1
     8    20    19    1
     9    27    26    2
    10    27    18    1
    11    19    18    1
    12    18    17    1
    13    16    15    1
    14     7     5    2
    15    17    15    1
    16    17    12    1
    17    15    13    1
    18     5     9    1
    19     5     6    1
    20     5     8    1
    21    12    11    1
    22     9    10    1
    23    13    11    1
    24    13    14    1
    25     2     1    2
    26    11    10    1
    27     8     1    1
    28     4     1    1
    29     1     3    1
