@<TRIPOS>MOLECULE
1yqu_GUN_A_1.pdb
 11 12 0 0 0
SMALL
GASTEIGER

@<TRIPOS>ATOM
      1  N9       -14.8840   25.6210  116.8850 N.2   400  GUN400     -0.1802
      2  C8       -14.1490   24.8850  117.7610 C.3   400  GUN400      0.2633
      3  N7       -13.3930   25.5960  118.5800 N.2   400  GUN400     -0.2212
      4  C5       -13.6230   26.9280  118.2360 C.2   400  GUN400      0.2482
      5  C6       -13.0530   28.1900  118.8050 C.1   400  GUN400      0.2442
      6  O6       -12.1960   28.3680  119.7670 O.2   400  GUN400     -0.2063
      7  N1       -13.5960   29.3300  118.1170 N.2   400  GUN400     -0.2474
      8  C2       -14.5530   29.2790  117.0440 C.1   400  GUN400      0.2608
      9  N2       -14.9730   30.4510  116.5090 N.pl3 400  GUN400     -0.0220
     10  N3       -15.0610   28.0980  116.5480 N.2   400  GUN400     -0.2682
     11  C4       -14.5560   26.9680  117.1790 C.1   400  GUN400      0.1289
@<TRIPOS>BOND
     1     9     8    1
     2    10     8    2
     3    10    11    2
     4     1    11    2
     5     1     2    1
     6     8     7    2
     7    11     4    1
     8     2     3    1
     9     7     5    2
    10     4     3    2
    11     4     5    1
    12     5     6    2
