@<TRIPOS>MOLECULE
1yqx_NAP_A_1.pdb
 48 52 0 0 0
SMALL
GASTEIGER

@<TRIPOS>ATOM
      1  PA        48.9940  129.3700   23.2730 P.3   500  NAP500      0.2189
      2  O1A       47.6320  129.2420   23.4480 O.2   500  NAP500     -0.5170
      3  O2A       49.8110  130.5370   23.7070 O.3   500  NAP500     -0.4371
      4  O5B       49.4130  129.1900   21.7380 O.3   500  NAP500     -0.3112
      5  C5B       48.7700  128.1340   21.0090 C.3   500  NAP500      0.1813
      6  C4B       48.9010  128.7610   19.6150 C.3   500  NAP500      0.1820
      7  O4B       48.1520  127.7560   18.5470 O.3   500  NAP500     -0.3136
      8  C3B       47.5660  129.7690   19.3250 C.3   500  NAP500      0.2157
      9  O3B       48.3290  131.0830   19.2730 O.3   500  NAP500     -0.2175
     10  C2B       47.1140  129.6740   17.9380 C.3   500  NAP500      0.2314
     11  O2B       48.0790  130.0680   16.9930 O.3   500  NAP500     -0.2630
     12  C1B       47.1860  128.0740   17.8240 C.3   500  NAP500      0.3158
     13  N9A       45.8550  127.4920   18.0720 N.pl3 500  NAP500     -0.1439
     14  C8A       45.0310  127.5300   19.1920 C.3   500  NAP500      0.3377
     15  N7A       43.8830  126.8650   19.0200 N.2   500  NAP500     -0.2095
     16  C5A       43.9780  126.3690   17.7110 C.2   500  NAP500      0.2526
     17  C6A       43.0440  125.5570   16.9200 C.2   500  NAP500      0.4393
     18  N6A       41.8260  125.0920   17.3040 N.pl3 500  NAP500      0.2180
     19  N1A       43.4430  125.2020   15.5850 N.2   500  NAP500      0.0021
     20  C2A       44.7060  125.6370   15.0690 C.3   500  NAP500      0.5254
     21  N3A       45.6190  126.4250   15.8180 N.2   500  NAP500     -0.0055
     22  C4A       45.2150  126.7650   17.1310 C.2   500  NAP500      0.3518
     23  O3        49.7230  128.1310   23.9400 O.3   500  NAP500     -0.2703
     24  PN        51.2400  128.0180   24.3520 P.3   500  NAP500      0.2189
     25  O1N       52.2720  127.8120   23.3620 O.2   500  NAP500     -0.5170
     26  O2N       51.4670  128.0640   25.7780 O.3   500  NAP500     -0.4371
     27  O5D       51.0630  126.3920   24.4650 O.3   500  NAP500     -0.3112
     28  C5D       50.7640  125.5280   23.2790 C.3   500  NAP500      0.1813
     29  C4D       50.6590  124.0170   23.5690 C.3   500  NAP500      0.1799
     30  O4D       51.9490  123.3900   23.8620 O.3   500  NAP500     -0.3327
     31  C3D       49.7390  123.4920   24.7670 C.3   500  NAP500      0.2158
     32  O3D       48.9780  122.3090   24.3510 O.3   500  NAP500     -0.2175
     33  C2D       50.7290  123.1540   25.8450 C.3   500  NAP500      0.2309
     34  O2D       50.1710  122.2780   26.8200 O.3   500  NAP500     -0.2158
     35  C1D       51.7950  122.5500   25.0570 C.3   500  NAP500      0.2263
     36  N1N       53.1510  122.4800   25.6230 N.pl3 500  NAP500     -0.2787
     37  C2N       53.9260  121.2900   25.4990 C.3   500  NAP500      0.1244
     38  C3N       55.2220  121.2610   26.0460 C.2   500  NAP500      0.0544
     39  C7N       56.0320  119.9780   25.9010 C.2   500  NAP500      0.2818
     40  O7N       57.1440  119.9660   26.3840 O.2   500  NAP500     -0.2670
     41  N7N       55.5280  118.9510   25.2810 N.am  500  NAP500     -0.0839
     42  C4N       55.7990  122.4270   26.7450 C.2   500  NAP500      0.0033
     43  C5N       54.9810  123.6020   26.8420 C.2   500  NAP500      0.0157
     44  C6N       53.6400  123.6580   26.2850 C.2   500  NAP500      0.0633
     45  P2B       47.5920  130.8450   15.5570 P.3   500  NAP500      0.5328
     46  O1X       48.9090  131.1300   14.8330 O.2   500  NAP500     -0.2224
     47  O2X       46.7330  129.8110   14.8770 O.3   500  NAP500     -0.1145
     48  O3X       46.9070  132.1170   15.9760 O.3   500  NAP500     -0.1145
@<TRIPOS>BOND
     1    46    45    2
     2    47    45    1
     3    20    19    1
     4    20    21    1
     5    45    48    1
     6    45    11    1
     7    19    17    2
     8    21    22    2
     9    17    18    1
    10    17    16    1
    11    11    10    1
    12    22    16    1
    13    22    13    1
    14    16    15    2
    15    12    10    1
    16    12    13    1
    17    12     7    1
    18    10     8    1
    19    13    14    1
    20     7     6    1
    21    15    14    1
    22     9     8    1
    23     8     6    1
    24     6     5    1
    25     5     4    1
    26     4     1    1
    27     1     2    2
    28     1     3    1
    29     1    23    1
    30    28    29    1
    31    28    27    1
    32    25    24    2
    33    29    30    1
    34    29    31    1
    35    30    35    1
    36    23    24    1
    37    32    31    1
    38    24    27    1
    39    24    26    1
    40    31    33    1
    41    35    36    1
    42    35    33    1
    43    41    39   am
    44    37    36    1
    45    37    38    1
    46    36    44    1
    47    33    34    1
    48    39    38    1
    49    39    40    2
    50    38    42    2
    51    44    43    2
    52    42    43    1
