@<TRIPOS>MOLECULE
1yqy_915_A_1.pdb
 23 24 0 0 0
SMALL
GASTEIGER

@<TRIPOS>ATOM
      1  C1         9.2270   20.0170   27.7680 C.ar  782  915782      0.1234
      2  C2         8.2930   19.4750   28.7070 C.ar  782  915782      0.0179
      3  C3         8.0500   20.1670   29.9210 C.ar  782  915782      0.0069
      4  C4         8.7620   21.3710   30.1500 C.ar  782  915782      0.1362
      5  C5         9.7370   21.8950   29.2310 C.ar  782  915782      0.0307
      6  C6         9.9470   21.2150   28.0390 C.ar  782  915782      0.0222
      7  F10        8.5230   22.0660   31.2740 F     782  915782     -0.2045
      8  C11        7.0320   19.6580   30.9070 C.3   782  915782      0.0334
      9  S15        9.4700   19.1960   26.2210 S.O2  782  915782      0.0771
     10  N16       10.4390   17.7900   26.5140 N.3   782  915782     -0.0728
     11  C17       11.8990   17.9240   26.5070 C.3   782  915782      0.1425
     12  C18       12.4690   18.4380   27.8460 C.2   782  915782      0.1045
     13  N19       13.3900   19.4380   27.7230 N.am  782  915782     -0.2015
     14  O20       13.9690   19.9520   28.8730 O.3   782  915782     -0.4026
     15  O21       12.1600   17.9990   28.9170 O.2   782  915782     -0.5381
     16  O22       10.3620   19.9620   25.4200 O.2   782  915782     -0.1516
     17  O23        8.1790   18.7420   25.7310 O.2   782  915782     -0.1516
     18  C27       12.6710   16.6260   26.2000 C.3   782  915782      0.0290
     19  C29       12.3710   15.9420   24.8220 C.3   782  915782      0.0340
     20  C30       13.1600   14.6640   24.5620 C.3   782  915782      0.1422
     21  O31       14.5420   14.9270   24.7000 O.3   782  915782     -0.3538
     22  C32       14.9420   15.4300   25.9930 C.3   782  915782      0.1422
     23  C33       14.2100   16.7480   26.3050 C.3   782  915782      0.0340
@<TRIPOS>BOND
     1    20    21    1
     2    20    19    1
     3    21    22    1
     4    19    18    1
     5    16     9    2
     6    17     9    2
     7    22    23    1
     8    18    23    1
     9    18    11    1
    10     9    10    1
    11     9     1    1
    12    11    10    1
    13    11    12    1
    14    13    12   am
    15    13    14    1
    16     1     6   ar
    17     1     2   ar
    18    12    15    2
    19     6     5   ar
    20     2     3   ar
    21     5     4   ar
    22     3     4   ar
    23     3     8    1
    24     4     7    1
