@<TRIPOS>MOLECULE
1yqz_COA_A_1.pdb
 48 50 0 0 0
SMALL
GASTEIGER

@<TRIPOS>ATOM
      1  N1A       26.1370   -6.3770    1.8590 N.2   441  COA441      0.0021
      2  C2A       27.1020   -6.0950    2.8700 C.3   441  COA441      0.5254
      3  N3A       28.0370   -5.0740    2.7920 N.2   441  COA441     -0.0055
      4  C4A       27.9800   -4.3260    1.6470 C.2   441  COA441      0.3518
      5  C5A       27.0640   -4.4780    0.5230 C.2   441  COA441      0.2526
      6  C6A       26.0700   -5.6050    0.6630 C.2   441  COA441      0.4393
      7  N6A       25.1830   -5.8750   -0.2550 N.pl3 441  COA441      0.2180
      8  N7A       27.2860   -3.5660   -0.4430 N.2   441  COA441     -0.2095
      9  C8A       28.2970   -2.8370    0.0050 C.3   441  COA441      0.3377
     10  N9A       28.7680   -3.2480    1.2720 N.pl3 441  COA441     -0.1439
     11  C1B       29.9070   -2.7870    2.2860 C.3   441  COA441      0.3185
     12  C2B       31.1630   -3.3460    1.7760 C.3   441  COA441      0.2543
     13  O2B       31.5120   -4.6420    2.1910 O.3   441  COA441     -0.2131
     14  C3B       32.0970   -2.2910    2.1920 C.3   441  COA441      0.1928
     15  O3B       32.4010   -2.1180    3.7010 O.3   441  COA441     -0.2673
     16  P3B       33.9560   -1.7530    4.0730 P.3   441  COA441      0.5327
     17  O7A       34.3260   -2.3240    5.4970 O.3   441  COA441     -0.1145
     18  O8A       34.0220   -0.1810    4.0670 O.3   441  COA441     -0.1145
     19  O9A       34.8480   -2.3850    2.9120 O.2   441  COA441     -0.2224
     20  C4B       31.3210   -0.9130    1.7930 C.3   441  COA441      0.1795
     21  O4B       29.8790   -1.3670    2.0210 O.3   441  COA441     -0.3136
     22  C5B       31.7830   -0.3050    0.4990 C.3   441  COA441      0.1812
     23  O5B       31.3780   -1.3940   -0.4390 O.3   441  COA441     -0.3112
     24  P1A       31.4320   -1.0390   -2.0480 P.3   441  COA441      0.2189
     25  O1A       32.4330    0.0150   -2.3350 O.3   441  COA441     -0.4371
     26  O2A       31.6150   -2.3010   -2.7650 O.2   441  COA441     -0.5170
     27  O3A       30.0820   -0.3670   -2.2960 O.3   441  COA441     -0.2703
     28  P2A       28.9430   -0.2490   -3.4560 P.3   441  COA441      0.2188
     29  O4A       27.7700    0.3760   -2.8510 O.3   441  COA441     -0.4371
     30  O5A       28.6430   -1.5900   -4.0330 O.2   441  COA441     -0.5170
     31  O6A       29.6660    0.6370   -4.5520 O.3   441  COA441     -0.3138
     32  CBP       30.7200    2.6830   -5.3940 C.3   441  COA441      0.0645
     33  CCP       30.3900    1.7810   -4.1660 C.3   441  COA441      0.1519
     34  CDP       31.4890    3.9620   -4.8750 C.3   441  COA441      0.0056
     35  CEP       31.5870    1.9170   -6.3900 C.3   441  COA441      0.0056
     36  CAP       29.3140    3.1180   -6.1260 C.3   441  COA441      0.2312
     37  OAP       28.2400    3.3270   -5.1470 O.3   441  COA441     -0.2131
     38  C9P       29.4550    4.4130   -6.9670 C.2   441  COA441      0.2719
     39  O9P       30.2960    4.4170   -8.0000 O.2   441  COA441     -0.2706
     40  N8P       28.7480    5.4610   -6.6350 N.am  441  COA441     -0.2028
     41  C7P       28.8000    6.7520   -7.3660 C.3   441  COA441      0.1248
     42  C6P       28.4510    7.9270   -6.4410 C.3   441  COA441      0.1102
     43  C5P       27.1370    7.7480   -5.6780 C.2   441  COA441      0.2432
     44  O5P       26.7810    6.6620   -5.1130 O.2   441  COA441     -0.2733
     45  N4P       26.3820    8.8070   -5.6280 N.am  441  COA441     -0.2044
     46  C3P       25.0410    8.7630   -4.8700 C.3   441  COA441      0.1276
     47  C2P       24.9950   10.0200   -4.0670 C.3   441  COA441      0.0920
     48  S1P       24.8040   11.3770   -5.2650 S.3   441  COA441     -0.0802
@<TRIPOS>BOND
     1    39    38    2
     2    41    40    1
     3    41    42    1
     4    38    40   am
     5    38    36    1
     6    42    43    1
     7    35    32    1
     8    36    32    1
     9    36    37    1
    10    43    45   am
    11    43    44    2
    12    45    46    1
    13    32    34    1
    14    32    33    1
    15    48    47    1
    16    46    47    1
    17    31    33    1
    18    31    28    1
    19    30    28    2
    20    28    29    1
    21    28    27    1
    22    26    24    2
    23    25    24    1
    24    27    24    1
    25    24    23    1
    26     8     9    1
    27     8     5    2
    28    23    22    1
    29     7     6    1
    30     9    10    1
    31    22    20    1
    32     5     6    1
    33     5     4    1
    34     6     1    2
    35    10     4    1
    36    10    11    1
    37     4     3    2
    38    12    13    1
    39    12    14    1
    40    12    11    1
    41    20    21    1
    42    20    14    1
    43     1     2    1
    44    21    11    1
    45    14    15    1
    46     3     2    1
    47    19    16    2
    48    15    16    1
    49    18    16    1
    50    16    17    1
