@<TRIPOS>MOLECULE
1yr3_XAN_A_1.pdb
 11 12 0 0 0
SMALL
GASTEIGER

@<TRIPOS>ATOM
      1  N9        32.9840   46.5940   28.7820 N.2   400  XAN400     -0.1801
      2  C4        34.2590   46.7620   28.2970 C.1   400  XAN400      0.1305
      3  N3        34.8990   45.8910   27.4670 N.2   400  XAN400     -0.2508
      4  C2        36.1780   46.2790   27.1160 C.1   400  XAN400      0.3744
      5  O2        36.8620   45.5730   26.3670 O.2   400  XAN400     -0.1738
      6  N1        36.7040   47.4880   27.6150 N.2   400  XAN400     -0.2300
      7  C6        36.0680   48.3960   28.4660 C.1   400  XAN400      0.2457
      8  O6        36.6580   49.4140   28.8200 O.2   400  XAN400     -0.2062
      9  C5        34.7320   47.9520   28.8100 C.2   400  XAN400      0.2483
     10  N7        33.7620   48.5250   29.6110 N.2   400  XAN400     -0.2212
     11  C8        32.7590   47.6870   29.5580 C.3   400  XAN400      0.2633
@<TRIPOS>BOND
     1     5     4    2
     2     4     3    2
     3     4     6    2
     4     3     2    2
     5     6     7    2
     6     2     1    2
     7     2     9    1
     8     7     9    1
     9     7     8    2
    10     1    11    1
    11     9    10    2
    12    11    10    1
