@<TRIPOS>MOLECULE
1yr7_GSP_A_1.pdb
 32 34 0 0 0
SMALL
GASTEIGER

@<TRIPOS>ATOM
      1  PG        19.6620   17.4150   49.7860 P.3   401  GSP401      0.4340
      2  O3B       20.1620   18.6390   48.8480 O.3   401  GSP401     -0.2405
      3  S1G       21.0030   16.7200   50.4820 S.3   401  GSP401      0.0416
      4  O2G       18.7740   17.8860   50.9730 O.3   401  GSP401     -0.1305
      5  O3G       18.9780   16.3310   48.9250 O.2   401  GSP401     -0.2423
      6  PB        19.1500   19.8140   48.4150 P.3   401  GSP401      0.2262
      7  O1B       17.8180   19.6490   49.0830 O.3   401  GSP401     -0.4369
      8  O2B       19.6750   21.1720   48.7030 O.2   401  GSP401     -0.5168
      9  PA        19.1180   18.4240   45.8790 P.3   401  GSP401      0.2189
     10  O1A       20.5040   18.1160   45.5060 O.2   401  GSP401     -0.5170
     11  O2A       18.3550   17.3190   46.4670 O.3   401  GSP401     -0.4371
     12  O3A       18.9720   19.6980   46.8300 O.3   401  GSP401     -0.2701
     13  O5'       18.4180   18.8840   44.5100 O.3   401  GSP401     -0.3112
     14  C5'       17.0740   19.3780   44.4660 C.3   401  GSP401      0.1813
     15  C4'       16.5480   19.2730   43.0310 C.3   401  GSP401      0.1799
     16  O4'       17.2310   20.1940   42.1950 O.3   401  GSP401     -0.3326
     17  C3'       16.8320   17.9020   42.4340 C.3   401  GSP401      0.2158
     18  O3'       15.7830   17.5410   41.5870 O.3   401  GSP401     -0.2175
     19  C2'       18.0570   18.1140   41.5700 C.3   401  GSP401      0.2310
     20  O2'       18.2250   17.1850   40.5220 O.3   401  GSP401     -0.2158
     21  C1'       17.8440   19.5360   41.0880 C.3   401  GSP401      0.2293
     22  N9        19.1260   20.1780   40.7900 N.pl3 401  GSP401     -0.2354
     23  C8        20.2140   20.2150   41.6450 C.3   401  GSP401      0.2246
     24  N7        21.2120   20.8870   41.0300 N.2   401  GSP401     -0.2322
     25  C5        20.7920   21.2910   39.8030 C.2   401  GSP401      0.2182
     26  C6        21.4040   22.0300   38.7900 C.1   401  GSP401      0.2372
     27  O6        22.5630   22.4600   38.8890 O.2   401  GSP401     -0.2069
     28  N1        20.6950   22.2920   37.6320 N.2   401  GSP401     -0.2485
     29  C2        19.3940   21.8290   37.4940 C.1   401  GSP401      0.2531
     30  N2        18.7320   22.0820   36.3710 N.pl3 401  GSP401     -0.0226
     31  N3        18.7960   21.1140   38.5050 N.2   401  GSP401     -0.3074
     32  C4        19.4750   20.8440   39.6420 C.2   401  GSP401      0.2300
@<TRIPOS>BOND
     1    30    29    1
     2    29    28    2
     3    29    31    2
     4    28    26    2
     5    31    32    2
     6    26    27    2
     7    26    25    1
     8    32    25    1
     9    32    22    1
    10    25    24    2
    11    20    19    1
    12    22    21    1
    13    22    23    1
    14    24    23    1
    15    21    19    1
    16    21    16    1
    17    19    17    1
    18    18    17    1
    19    16    15    1
    20    17    15    1
    21    15    14    1
    22    14    13    1
    23    13     9    1
    24    10     9    2
    25     9    11    1
    26     9    12    1
    27    12     6    1
    28     6     8    2
    29     6     2    1
    30     6     7    1
    31     2     1    1
    32     5     1    2
    33     1     3    1
    34     1     4    1
