@<TRIPOS>MOLECULE
1yr8_GTP_A_1.pdb
 32 34 0 0 0
SMALL
GASTEIGER

@<TRIPOS>ATOM
      1  PG        -8.3460   24.9620   30.5320 P.3   401  GTP401      0.5373
      2  O1G       -7.0200   24.7310   31.2230 O.3   401  GTP401     -0.1143
      3  O2G       -8.9460   26.2770   30.9900 O.3   401  GTP401     -0.1143
      4  O3G       -9.2800   23.8190   30.8550 O.2   401  GTP401     -0.2221
      5  O3B       -8.0920   25.0340   28.9400 O.3   401  GTP401     -0.2258
      6  PB        -7.1780   26.2020   28.2990 P.3   401  GTP401      0.2277
      7  O1B       -7.9070   27.5190   28.4320 O.2   401  GTP401     -0.5168
      8  O2B       -5.8130   26.2880   28.9400 O.3   401  GTP401     -0.4368
      9  O3A       -7.1170   25.7390   26.7590 O.3   401  GTP401     -0.2700
     10  PA        -5.7580   25.6040   25.9100 P.3   401  GTP401      0.2189
     11  O1A       -5.3380   26.9510   25.3800 O.2   401  GTP401     -0.5170
     12  O2A       -4.6420   24.9520   26.6940 O.3   401  GTP401     -0.4371
     13  O5'       -6.2090   24.6610   24.6840 O.3   401  GTP401     -0.3112
     14  C5'       -7.2650   25.0180   23.8120 C.3   401  GTP401      0.1813
     15  C4'       -7.2170   24.1530   22.5540 C.3   401  GTP401      0.1799
     16  O4'       -8.0550   24.7090   21.5590 O.3   401  GTP401     -0.3326
     17  C3'       -5.8090   24.0580   21.9730 C.3   401  GTP401      0.2158
     18  O3'       -5.3390   22.7300   22.0360 O.3   401  GTP401     -0.2175
     19  C2'       -5.9140   24.5210   20.5340 C.3   401  GTP401      0.2310
     20  O2'       -5.6930   23.4440   19.6500 O.3   401  GTP401     -0.2158
     21  C1'       -7.3390   25.0240   20.3820 C.3   401  GTP401      0.2293
     22  N9        -7.3140   26.4890   20.2570 N.pl3 401  GTP401     -0.2354
     23  C8        -6.8410   27.3600   21.1980 C.3   401  GTP401      0.2246
     24  N7        -6.9830   28.6140   20.7250 N.2   401  GTP401     -0.2322
     25  C5        -7.5470   28.5570   19.4970 C.2   401  GTP401      0.2182
     26  C6        -7.9100   29.5430   18.5890 C.1   401  GTP401      0.2372
     27  O6        -7.7240   30.7220   18.8640 O.2   401  GTP401     -0.2069
     28  N1        -8.4770   29.1910   17.3840 N.2   401  GTP401     -0.2485
     29  C2        -8.6820   27.8550   17.0870 C.1   401  GTP401      0.2531
     30  N2        -9.2280   27.5100   15.9260 N.pl3 401  GTP401     -0.0226
     31  N3        -8.3240   26.8750   17.9950 N.2   401  GTP401     -0.3074
     32  C4        -7.7630   27.2220   19.1870 C.2   401  GTP401      0.2300
@<TRIPOS>BOND
     1    30    29    1
     2    29    28    2
     3    29    31    2
     4    28    26    2
     5    31    32    2
     6    26    27    2
     7    26    25    1
     8    32    25    1
     9    32    22    1
    10    25    24    2
    11    20    19    1
    12    22    21    1
    13    22    23    1
    14    21    19    1
    15    21    16    1
    16    19    17    1
    17    24    23    1
    18    16    15    1
    19    17    18    1
    20    17    15    1
    21    15    14    1
    22    14    13    1
    23    13    10    1
    24    11    10    2
    25    10    12    1
    26    10     9    1
    27     9     6    1
    28     6     7    2
    29     6     8    1
    30     6     5    1
    31     5     1    1
    32     1     4    2
    33     1     3    1
    34     1     2    1
