@<TRIPOS>MOLECULE
1yr9_GDP_A_1.pdb
 28 30 0 0 0
SMALL
GASTEIGER

@<TRIPOS>ATOM
      1  PB        19.1840    4.2070    5.5070 P.3   401  GDP401      0.5373
      2  O1B       20.5210    3.6720    5.0430 O.2   401  GDP401     -0.2221
      3  O2B       19.0110    3.8320    6.9630 O.3   401  GDP401     -0.1143
      4  O3B       19.1890    5.7090    5.3490 O.3   401  GDP401     -0.1143
      5  O3A       17.9840    3.5370    4.6410 O.3   401  GDP401     -0.2261
      6  PA        16.8320    4.4130    3.9220 P.3   401  GDP401      0.2231
      7  O1A       16.2700    5.4720    4.8380 O.3   401  GDP401     -0.4370
      8  O2A       17.3550    5.0350    2.6520 O.2   401  GDP401     -0.5169
      9  O5'       15.6510    3.3810    3.5830 O.3   401  GDP401     -0.3111
     10  C5'       14.3410    3.9250    3.4620 C.3   401  GDP401      0.1813
     11  C4'       13.3500    2.8930    2.9430 C.3   401  GDP401      0.1799
     12  O4'       12.9490    2.0280    4.0120 O.3   401  GDP401     -0.3326
     13  C3'       12.0950    3.5770    2.4130 C.3   401  GDP401      0.2158
     14  O3'       12.0240    3.5200    0.9850 O.3   401  GDP401     -0.2175
     15  C2'       10.9270    2.8560    3.0550 C.3   401  GDP401      0.2310
     16  O2'       10.2970    1.9730    2.1230 O.3   401  GDP401     -0.2158
     17  C1'       11.5310    2.0610    4.2010 C.3   401  GDP401      0.2293
     18  N9        11.1880    2.7350    5.4830 N.pl3 401  GDP401     -0.2354
     19  C8        11.8840    3.7180    6.0850 C.3   401  GDP401      0.2246
     20  N7        11.2890    4.1050    7.2450 N.2   401  GDP401     -0.2322
     21  C5        10.1800    3.3580    7.3960 C.2   401  GDP401      0.2182
     22  C6         9.0890    3.2450    8.3930 C.1   401  GDP401      0.2372
     23  O6         9.0650    3.9700    9.4110 O.2   401  GDP401     -0.2069
     24  N1         8.1290    2.3350    8.1750 N.2   401  GDP401     -0.2485
     25  C2         8.1220    1.5330    7.0900 C.1   401  GDP401      0.2531
     26  N2         7.1140    0.6380    6.9390 N.pl3 401  GDP401     -0.0226
     27  N3         9.0850    1.5880    6.1380 N.2   401  GDP401     -0.3074
     28  C4        10.1170    2.4610    6.2340 C.2   401  GDP401      0.2300
@<TRIPOS>BOND
     1    14    13    1
     2    16    15    1
     3    13    11    1
     4    13    15    1
     5     8     6    2
     6    11    10    1
     7    11    12    1
     8    15    17    1
     9    10     9    1
    10     9     6    1
    11     6     5    1
    12     6     7    1
    13    12    17    1
    14    17    18    1
    15     5     1    1
    16     2     1    2
    17     4     1    1
    18    18    19    1
    19    18    28    1
    20     1     3    1
    21    19    20    1
    22    27    28    2
    23    27    25    2
    24    28    21    1
    25    26    25    1
    26    25    24    2
    27    20    21    2
    28    21    22    1
    29    24    22    2
    30    22    23    2
