@<TRIPOS>MOLECULE
1yra_GDP_A_1.pdb
 28 30 0 0 0
SMALL
GASTEIGER

@<TRIPOS>ATOM
      1  PB         6.6480   -4.7190   24.5920 P.3   401  GDP401      0.5373
      2  O1B        5.8870   -3.4340   24.3400 O.3   401  GDP401     -0.1143
      3  O2B        6.1740   -5.8110   23.6770 O.2   401  GDP401     -0.2221
      4  O3B        8.1030   -4.5150   24.2450 O.3   401  GDP401     -0.1143
      5  O3A        6.6280   -5.1160   26.1590 O.3   401  GDP401     -0.2261
      6  PA         5.4090   -4.7830   27.1570 P.3   401  GDP401      0.2231
      7  O1A        5.5310   -3.4020   27.7450 O.3   401  GDP401     -0.4370
      8  O2A        4.1700   -5.0350   26.3950 O.2   401  GDP401     -0.5169
      9  O5'        5.6050   -5.7490   28.4410 O.3   401  GDP401     -0.3111
     10  C5'        5.5710   -7.1790   28.3440 C.3   401  GDP401      0.1813
     11  C4'        5.1110   -7.7330   29.6910 C.3   401  GDP401      0.1799
     12  O4'        6.1760   -7.5830   30.6210 O.3   401  GDP401     -0.3326
     13  C3'        3.9290   -6.9620   30.2760 C.3   401  GDP401      0.2158
     14  O3'        3.0700   -7.8740   30.9690 O.3   401  GDP401     -0.2175
     15  C2'        4.5510   -6.0370   31.2890 C.3   401  GDP401      0.2310
     16  O2'        3.6480   -5.7650   32.3650 O.3   401  GDP401     -0.2158
     17  C1'        5.7700   -6.8170   31.7570 C.3   401  GDP401      0.2293
     18  N9         6.9030   -5.9400   32.1230 N.pl3 401  GDP401     -0.2354
     19  C8         7.4420   -4.9790   31.3640 C.3   401  GDP401      0.2246
     20  N7         8.4760   -4.3770   32.0120 N.2   401  GDP401     -0.2322
     21  C5         8.5990   -4.9620   33.2090 C.2   401  GDP401      0.2182
     22  C6         9.4930   -4.8120   34.3650 C.1   401  GDP401      0.2372
     23  O6        10.4020   -3.9420   34.3430 O.2   401  GDP401     -0.2069
     24  N1         9.2900   -5.6330   35.4130 N.2   401  GDP401     -0.2485
     25  C2         8.3120   -6.5690   35.4370 C.1   401  GDP401      0.2531
     26  N2         8.1450   -7.3630   36.5390 N.pl3 401  GDP401     -0.0226
     27  N3         7.4670   -6.7530   34.4010 N.2   401  GDP401     -0.3074
     28  C4         7.5680   -5.9950   33.2790 C.2   401  GDP401      0.2300
@<TRIPOS>BOND
     1     3     1    2
     2     4     1    1
     3     2     1    1
     4     1     5    1
     5     5     6    1
     6     8     6    2
     7     6     7    1
     8     6     9    1
     9    10     9    1
    10    10    11    1
    11    11    13    1
    12    11    12    1
    13    13    14    1
    14    13    15    1
    15    12    17    1
    16    15    17    1
    17    15    16    1
    18    19    20    1
    19    19    18    1
    20    17    18    1
    21    20    21    2
    22    18    28    1
    23    21    28    1
    24    21    22    1
    25    28    27    2
    26    23    22    2
    27    22    24    2
    28    27    25    2
    29    24    25    2
    30    25    26    1
