@<TRIPOS>MOLECULE
1yrb_GDP_A_1.pdb
 28 30 0 0 0
SMALL
GASTEIGER

@<TRIPOS>ATOM
      1  PB         6.9580   -5.6230   24.5200 P.3   401  GDP401      0.5373
      2  O1B        6.3420   -4.2450   24.2530 O.3   401  GDP401     -0.1143
      3  O2B        6.3730   -6.6060   23.5390 O.2   401  GDP401     -0.2221
      4  O3B        8.4500   -5.5960   24.4000 O.3   401  GDP401     -0.1143
      5  O3A        6.7220   -6.0870   26.0510 O.3   401  GDP401     -0.2261
      6  PA         5.5670   -5.6020   27.0670 P.3   401  GDP401      0.2231
      7  O1A        5.8870   -4.2770   27.6670 O.3   401  GDP401     -0.4370
      8  O2A        4.2460   -5.7480   26.4130 O.2   401  GDP401     -0.5169
      9  O5'        5.7950   -6.6560   28.2660 O.3   401  GDP401     -0.3111
     10  C5'        5.5460   -8.0350   27.9960 C.3   401  GDP401      0.1813
     11  C4'        5.1750   -8.6730   29.3280 C.3   401  GDP401      0.1799
     12  O4'        6.2710   -8.5290   30.2280 O.3   401  GDP401     -0.3326
     13  C3'        4.0010   -7.9590   29.9870 C.3   401  GDP401      0.2158
     14  O3'        3.2330   -8.9210   30.7290 O.3   401  GDP401     -0.2175
     15  C2'        4.6420   -7.0390   30.9830 C.3   401  GDP401      0.2310
     16  O2'        3.7970   -6.8300   32.1180 O.3   401  GDP401     -0.2158
     17  C1'        5.8670   -7.8330   31.3920 C.3   401  GDP401      0.2293
     18  N9         6.9580   -6.9640   31.8460 N.pl3 401  GDP401     -0.2354
     19  C8         7.4590   -5.8930   31.1940 C.3   401  GDP401      0.2246
     20  N7         8.4610   -5.3420   31.9080 N.2   401  GDP401     -0.2322
     21  C5         8.6060   -6.0660   33.0450 C.2   401  GDP401      0.2182
     22  C6         9.4730   -6.0370   34.2410 C.1   401  GDP401      0.2372
     23  O6        10.3640   -5.1820   34.4020 O.2   401  GDP401     -0.2069
     24  N1         9.2900   -6.9870   35.1890 N.2   401  GDP401     -0.2485
     25  C2         8.3560   -7.9350   35.0640 C.1   401  GDP401      0.2531
     26  N2         8.2320   -8.8540   36.0650 N.pl3 401  GDP401     -0.0226
     27  N3         7.5240   -8.0270   34.0050 N.2   401  GDP401     -0.3074
     28  C4         7.6120   -7.1280   32.9820 C.2   401  GDP401      0.2300
@<TRIPOS>BOND
     1     3     1    2
     2     2     1    1
     3     4     1    1
     4     1     5    1
     5     5     6    1
     6     8     6    2
     7     6     7    1
     8     6     9    1
     9    10     9    1
    10    10    11    1
    11    11    13    1
    12    11    12    1
    13    13    14    1
    14    13    15    1
    15    12    17    1
    16    15    17    1
    17    15    16    1
    18    19    18    1
    19    19    20    1
    20    17    18    1
    21    18    28    1
    22    20    21    2
    23    28    21    1
    24    28    27    2
    25    21    22    1
    26    27    25    2
    27    22    23    2
    28    22    24    2
    29    25    24    2
    30    25    26    1
