@<TRIPOS>MOLECULE
1yrc_CAM_A_1.pdb
 11 12 0 0 0
SMALL
GASTEIGER

@<TRIPOS>ATOM
      1  C1        17.1430   13.1390   40.6940 C.3   420  CAM420      0.0515
      2  C2        16.9990   14.6290   40.1010 C.2   420  CAM420      0.1498
      3  O         17.9150   15.4010   39.9490 O.2   420  CAM420     -0.2961
      4  C3        15.4860   14.7730   39.8210 C.3   420  CAM420      0.0645
      5  C4        14.9990   13.3280   40.2740 C.3   420  CAM420      0.0077
      6  C5        15.3950   12.2730   39.1730 C.3   420  CAM420      0.0009
      7  C6        16.9510   12.1390   39.4510 C.3   420  CAM420      0.0069
      8  C7        15.8340   12.9680   41.5290 C.3   420  CAM420      0.0066
      9  C8        15.6800   13.9030   42.8040 C.3   420  CAM420      0.0004
     10  C9        15.5900   11.5600   42.2010 C.3   420  CAM420      0.0004
     11  C10       18.4840   12.9180   41.4080 C.3   420  CAM420      0.0073
@<TRIPOS>BOND
     1     6     7    1
     2     6     5    1
     3     7     1    1
     4     4     2    1
     5     4     5    1
     6     3     2    2
     7     2     1    1
     8     5     8    1
     9     1    11    1
    10     1     8    1
    11     8    10    1
    12     8     9    1
