@<TRIPOS>MOLECULE
1yrc_HEM_A_1.pdb
 43 50 0 0 0
SMALL
GASTEIGER

@<TRIPOS>ATOM
      1 FE         12.1910    9.9410   38.9360 Fe    417  HEM417      0.0000
      2  CHA       11.5250   13.3510   38.9400 C.2   417  HEM417      0.0000
      3  CHB       11.7530    9.8020   42.3770 C.2   417  HEM417      0.0000
      4  CHC       13.1710    6.6390   38.9230 C.2   417  HEM417      0.0000
      5  CHD       13.0450   10.1770   35.5520 C.2   417  HEM417      0.0000
      6  NA        11.7310   11.2830   40.3810 N.2   417  HEM417      0.0000
      7  C1A       11.4630   12.6160   40.2520 C.2   417  HEM417      0.0000
      8  C2A       11.1270   13.2300   41.6130 C.2   417  HEM417      0.0000
      9  C3A       11.2100   12.2560   42.4930 C.2   417  HEM417      0.0000
     10  C4A       11.5850   11.0150   41.7520 C.2   417  HEM417      0.0000
     11  CMA       10.9850   12.3150   44.0050 C.3   417  HEM417      0.0000
     12  CAA       10.7670   14.7190   41.9060 C.3   417  HEM417      0.0000
     13  CBA       11.9610   15.6610   42.0500 C.3   417  HEM417      0.0000
     14  CGA       11.5100   17.1320   42.3770 C.2   417  HEM417      0.0000
     15  O1A       10.3330   17.3940   42.4940 O.co2 417  HEM417      0.0000
     16  O2A       12.5370   17.8370   42.4720 O.co2 417  HEM417      0.0000
     17  NB        12.4280    8.5120   40.3490 N.ar  417  HEM417      0.0000
     18  C1B       12.1350    8.6380   41.7190 C.ar  417  HEM417      0.0000
     19  C2B       12.2950    7.3290   42.3800 C.ar  417  HEM417      0.0000
     20  C3B       12.6730    6.4540   41.4420 C.ar  417  HEM417      0.0000
     21  C4B       12.7770    7.1820   40.1580 C.ar  417  HEM417      0.0000
     22  CMB       12.0310    7.1510   43.9130 C.3   417  HEM417      0.0000
     23  CAB       13.0000    4.9210   41.4880 C.2   417  HEM417      0.0000
     24  CBB       12.9510    4.1280   42.5540 C.2   417  HEM417      0.0000
     25  NC        12.9530    8.6670   37.5210 N.2   417  HEM417      0.0000
     26  C1C       13.2810    7.3180   37.7170 C.2   417  HEM417      0.0000
     27  C2C       13.7500    6.7330   36.4880 C.2   417  HEM417      0.0000
     28  C3C       13.7240    7.7150   35.5350 C.2   417  HEM417      0.0000
     29  C4C       13.2210    8.9290   36.1920 C.2   417  HEM417      0.0000
     30  CMC       14.2050    5.2490   36.3150 C.3   417  HEM417      0.0000
     31  CAC       14.1260    7.6760   34.0140 C.2   417  HEM417      0.0000
     32  CBC       15.3720    7.3520   33.7310 C.2   417  HEM417      0.0000
     33  ND        12.2510   11.4590   37.5270 N.ar  417  HEM417      0.0000
     34  C1D       12.6040   11.3250   36.1940 C.ar  417  HEM417      0.0000
     35  C2D       12.4490   12.6450   35.5440 C.ar  417  HEM417      0.0000
     36  C3D       12.0230   13.4870   36.4930 C.ar  417  HEM417      0.0000
     37  C4D       11.8960   12.7720   37.7560 C.ar  417  HEM417      0.0000
     38  CMD       12.7560   12.9180   34.0360 C.3   417  HEM417      0.0000
     39  CAD       11.7060   15.0080   36.3830 C.3   417  HEM417      0.0000
     40  CBD       10.2900   15.4710   36.3020 C.3   417  HEM417      0.0000
     41  CGD       10.1760   17.0700   36.2280 C.2   417  HEM417      0.0000
     42  O1D        9.1980   17.4230   35.6250 O.co2 417  HEM417      0.0000
     43  O2D       11.0860   17.6690   36.8090 O.co2 417  HEM417      0.0000
@<TRIPOS>BOND
     1    32    31    2
     2    31    28    1
     3    38    35    1
     4    28    29    1
     5    28    27    2
     6    35    34   ar
     7    35    36   ar
     8     5    29    1
     9     5    34    2
    10    42    41   ar
    11    29    25    2
    12    34    33   ar
    13    41    40    1
    14    41    43   ar
    15    40    39    1
    16    30    27    1
    17    39    36    1
    18    27    26    1
    19    36    37   ar
    20    25    26    1
    21    25     1    1
    22    33    37   ar
    23    33     1    1
    24    26     4    2
    25    37     2    2
    26     4    21    1
    27     1    17    1
    28     1     6    1
    29     2     7    1
    30    21    17   ar
    31    21    20   ar
    32     7     6    2
    33     7     8    1
    34    17    18   ar
    35     6    10    1
    36    20    23    1
    37    20    19   ar
    38    23    24    2
    39     8    12    1
    40     8     9    2
    41    18     3    1
    42    18    19   ar
    43    10     3    2
    44    10     9    1
    45    12    13    1
    46    13    14    1
    47    14    16   ar
    48    14    15   ar
    49    19    22    1
    50     9    11    1
