@<TRIPOS>MOLECULE
1yrd_HEM_A_1.pdb
 43 50 0 0 0
SMALL
GASTEIGER

@<TRIPOS>ATOM
      1 FE         12.6570    9.9180   39.1760 Fe    417  HEM417      0.0000
      2  CHA       11.9300   13.3000   39.1220 C.2   417  HEM417      0.0000
      3  CHB       12.1220    9.7790   42.5860 C.2   417  HEM417      0.0000
      4  CHC       13.6010    6.6060   39.1870 C.2   417  HEM417      0.0000
      5  CHD       13.4740   10.0940   35.7780 C.2   417  HEM417      0.0000
      6  NA        12.1390   11.2550   40.5840 N.2   417  HEM417      0.0000
      7  C1A       11.8580   12.5800   40.4420 C.2   417  HEM417      0.0000
      8  C2A       11.4830   13.1970   41.7970 C.2   417  HEM417      0.0000
      9  C3A       11.5570   12.2250   42.6840 C.2   417  HEM417      0.0000
     10  C4A       11.9630   10.9880   41.9550 C.2   417  HEM417      0.0000
     11  CMA       11.2930   12.2800   44.1930 C.3   417  HEM417      0.0000
     12  CAA       11.0960   14.6780   42.0730 C.3   417  HEM417      0.0000
     13  CBA       12.2680   15.6340   42.2510 C.3   417  HEM417      0.0000
     14  CGA       11.7940   17.1040   42.5510 C.2   417  HEM417      0.0000
     15  O1A       10.6040   17.3560   42.6210 O.co2 417  HEM417      0.0000
     16  O2A       12.8290   17.8150   42.6830 O.co2 417  HEM417      0.0000
     17  NB        12.8420    8.4830   40.5880 N.ar  417  HEM417      0.0000
     18  C1B       12.5200    8.6160   41.9420 C.ar  417  HEM417      0.0000
     19  C2B       12.6590    7.3070   42.6140 C.ar  417  HEM417      0.0000
     20  C3B       13.0540    6.4240   41.6900 C.ar  417  HEM417      0.0000
     21  C4B       13.1890    7.1520   40.4080 C.ar  417  HEM417      0.0000
     22  CMB       12.3550    7.1390   44.1440 C.3   417  HEM417      0.0000
     23  CAB       13.3650    4.8810   41.7470 C.2   417  HEM417      0.0000
     24  CBB       13.2790    4.0940   42.8100 C.2   417  HEM417      0.0000
     25  NC        13.3950    8.6250   37.7780 N.2   417  HEM417      0.0000
     26  C1C       13.7160    7.2780   37.9830 C.2   417  HEM417      0.0000
     27  C2C       14.1860    6.6770   36.7550 C.2   417  HEM417      0.0000
     28  C3C       14.1560    7.6390   35.7990 C.2   417  HEM417      0.0000
     29  C4C       13.6540    8.8650   36.4410 C.2   417  HEM417      0.0000
     30  CMC       14.6370    5.1960   36.5930 C.3   417  HEM417      0.0000
     31  CAC       14.5490    7.5670   34.2830 C.2   417  HEM417      0.0000
     32  CBC       15.7640    7.9280   33.9670 C.2   417  HEM417      0.0000
     33  ND        12.6820   11.3970   37.7340 N.ar  417  HEM417      0.0000
     34  C1D       13.0280   11.2450   36.4070 C.ar  417  HEM417      0.0000
     35  C2D       12.8520   12.5480   35.7390 C.ar  417  HEM417      0.0000
     36  C3D       12.4280   13.4020   36.6720 C.ar  417  HEM417      0.0000
     37  C4D       12.3130   12.7050   37.9480 C.ar  417  HEM417      0.0000
     38  CMD       13.1430   12.7870   34.2260 C.3   417  HEM417      0.0000
     39  CAD       12.0900   14.9230   36.5460 C.3   417  HEM417      0.0000
     40  CBD       10.6630   15.3840   36.4780 C.3   417  HEM417      0.0000
     41  CGD       10.5550   16.9830   36.4120 C.2   417  HEM417      0.0000
     42  O1D        9.5910   17.3550   35.7880 O.co2 417  HEM417      0.0000
     43  O2D       11.4540   17.5610   37.0430 O.co2 417  HEM417      0.0000
@<TRIPOS>BOND
     1    32    31    2
     2    38    35    1
     3    31    28    1
     4    35    34   ar
     5    35    36   ar
     6     5    34    2
     7     5    29    1
     8    42    41   ar
     9    28    29    1
    10    28    27    2
    11    34    33   ar
    12    41    40    1
    13    41    43   ar
    14    29    25    2
    15    40    39    1
    16    39    36    1
    17    30    27    1
    18    36    37   ar
    19    27    26    1
    20    33    37   ar
    21    33     1    1
    22    25    26    1
    23    25     1    1
    24    37     2    2
    25    26     4    2
    26     2     7    1
    27     1     6    1
    28     1    17    1
    29     4    21    1
    30    21    17   ar
    31    21    20   ar
    32     7     6    2
    33     7     8    1
    34     6    10    1
    35    17    18   ar
    36    20    23    1
    37    20    19   ar
    38    23    24    2
    39     8    12    1
    40     8     9    2
    41    18     3    1
    42    18    19   ar
    43    10     3    2
    44    10     9    1
    45    12    13    1
    46    13    14    1
    47    14    15   ar
    48    14    16   ar
    49    19    22    1
    50     9    11    1
