@<TRIPOS>MOLECULE
1yrd_CAM_A_1.pdb
 11 12 0 0 0
SMALL
GASTEIGER

@<TRIPOS>ATOM
      1  C1        17.4950   13.0620   41.0320 C.3   420  CAM420      0.0515
      2  C2        17.3590   14.5580   40.4420 C.2   420  CAM420      0.1498
      3  O         18.2820   15.3340   40.3050 O.2   420  CAM420     -0.2961
      4  C3        15.8440   14.7040   40.1440 C.3   420  CAM420      0.0645
      5  C4        15.3540   13.2530   40.5890 C.3   420  CAM420      0.0077
      6  C5        15.7560   12.1910   39.4890 C.3   420  CAM420      0.0009
      7  C6        17.3120   12.0580   39.7850 C.3   420  CAM420      0.0069
      8  C7        16.1760   12.8940   41.8580 C.3   420  CAM420      0.0066
      9  C8        16.0160   13.8370   43.1340 C.3   420  CAM420      0.0004
     10  C9        15.9270   11.4860   42.5270 C.3   420  CAM420      0.0004
     11  C10       18.8270   12.8370   41.7660 C.3   420  CAM420      0.0073
@<TRIPOS>BOND
     1     6     7    1
     2     6     5    1
     3     7     1    1
     4     4     2    1
     5     4     5    1
     6     3     2    2
     7     2     1    1
     8     5     8    1
     9     1    11    1
    10     1     8    1
    11     8    10    1
    12     8     9    1
