@<TRIPOS>MOLECULE
1yre_COA_A_1.pdb
 48 50 0 0 0
SMALL
GASTEIGER

@<TRIPOS>ATOM
      1  N1A       61.9350   37.7640   21.1860 N.2   601  COA601      0.0021
      2  C2A       62.6730   38.5300   20.2960 C.3   601  COA601      0.5254
      3  N3A       63.7690   39.2230   20.7460 N.2   601  COA601     -0.0055
      4  C4A       64.0940   39.1530   22.0550 C.2   601  COA601      0.3518
      5  C5A       63.3630   38.3910   22.9620 C.2   601  COA601      0.2526
      6  C6A       62.2660   37.6900   22.5160 C.2   601  COA601      0.4393
      7  N6A       61.6350   36.8560   23.3340 N.pl3 601  COA601      0.2180
      8  N7A       63.9220   38.5070   24.1910 N.2   601  COA601     -0.2095
      9  C8A       64.9950   39.3310   24.0820 C.3   601  COA601      0.3377
     10  N9A       65.1040   39.7280   22.7640 N.pl3 601  COA601     -0.1439
     11  C1B       66.1480   40.5650   22.1870 C.3   601  COA601      0.3185
     12  C2B       66.4040   41.6870   23.1680 C.3   601  COA601      0.2543
     13  O2B       65.7080   42.8260   22.6980 O.3   601  COA601     -0.2131
     14  C3B       67.9110   41.8350   23.1770 C.3   601  COA601      0.1928
     15  O3B       68.3540   42.8710   22.3150 O.3   601  COA601     -0.2673
     16  P3B       68.2910   44.4610   22.6630 P.3   601  COA601      0.5327
     17  O7A       69.3610   44.8460   23.6750 O.3   601  COA601     -0.1145
     18  O8A       66.9090   44.7380   23.2180 O.3   601  COA601     -0.1145
     19  O9A       68.5590   45.2470   21.3830 O.2   601  COA601     -0.2224
     20  C4B       68.4410   40.5220   22.6080 C.3   601  COA601      0.1795
     21  O4B       67.3420   39.8260   22.0630 O.3   601  COA601     -0.3136
     22  C5B       69.1370   39.6500   23.6480 C.3   601  COA601      0.1812
     23  O5B       70.4360   40.1560   23.8960 O.3   601  COA601     -0.3112
     24  P1A       70.9470   40.2950   25.4150 P.3   601  COA601      0.2189
     25  O1A       69.8360   40.9030   26.2390 O.3   601  COA601     -0.4371
     26  O2A       72.3000   40.9220   25.5170 O.2   601  COA601     -0.5170
     27  O3A       71.1610   38.7490   25.8500 O.3   601  COA601     -0.2703
     28  P2A       71.0990   38.1010   27.3130 P.3   601  COA601      0.2188
     29  O4A       71.7580   38.9950   28.3180 O.3   601  COA601     -0.4371
     30  O5A       69.6630   37.7250   27.6740 O.2   601  COA601     -0.5170
     31  O6A       72.0450   36.7820   27.1220 O.3   601  COA601     -0.3138
     32  CBP       71.6390   34.4330   26.7990 C.3   601  COA601      0.0645
     33  CCP       71.7620   35.8090   26.1450 C.3   601  COA601      0.1519
     34  CDP       71.1830   33.5130   25.6420 C.3   601  COA601      0.0056
     35  CEP       73.0250   34.0020   27.3200 C.3   601  COA601      0.0056
     36  CAP       70.6420   34.4780   27.9860 C.3   601  COA601      0.2312
     37  OAP       69.4200   35.1560   27.6770 O.3   601  COA601     -0.2131
     38  C9P       70.3720   33.1330   28.6020 C.2   601  COA601      0.2719
     39  O9P       71.2600   32.5910   29.5270 O.2   601  COA601     -0.2706
     40  N8P       69.2710   32.4760   28.2550 N.am  601  COA601     -0.2028
     41  C7P       68.8480   31.2650   28.9310 C.3   601  COA601      0.1248
     42  C6P       69.6290   30.0470   28.4080 C.3   601  COA601      0.1102
     43  C5P       69.7330   30.0220   26.8900 C.2   601  COA601      0.2432
     44  O5P       68.7170   30.0280   26.1560 O.2   601  COA601     -0.2733
     45  N4P       70.9850   29.9670   26.4380 N.am  601  COA601     -0.2044
     46  C3P       71.4110   30.3840   25.1170 C.3   601  COA601      0.1276
     47  C2P       71.7370   29.2330   24.1950 C.3   601  COA601      0.0920
     48  S1P       73.1450   29.6470   23.1360 S.3   601  COA601     -0.0802
@<TRIPOS>BOND
     1     2     3    1
     2     2     1    1
     3     3     4    2
     4     1     6    2
     5    19    16    2
     6     4    10    1
     7     4     5    1
     8    21    11    1
     9    21    20    1
    10    11    10    1
    11    11    12    1
    12    15    16    1
    13    15    14    1
    14     6     5    1
    15     6     7    1
    16    20    14    1
    17    20    22    1
    18    16    18    1
    19    16    17    1
    20    13    12    1
    21    10     9    1
    22     5     8    2
    23    48    47    1
    24    12    14    1
    25    22    23    1
    26    23    24    1
    27     9     8    1
    28    47    46    1
    29    46    45    1
    30    24    26    2
    31    24    27    1
    32    24    25    1
    33    34    32    1
    34    27    28    1
    35    33    32    1
    36    33    31    1
    37    44    43    2
    38    45    43   am
    39    32    35    1
    40    32    36    1
    41    43    42    1
    42    31    28    1
    43    28    30    2
    44    28    29    1
    45    37    36    1
    46    36    38    1
    47    40    38   am
    48    40    41    1
    49    42    41    1
    50    38    39    2
