@<TRIPOS>MOLECULE
1yrh_FMN_A_1.pdb
 31 33 0 0 0
SMALL
GASTEIGER

@<TRIPOS>ATOM
      1  N1        14.0910   49.1680    7.9170 N.2   404  FMN404     -0.2890
      2  C2        13.5170   48.4880    8.9550 C.1   404  FMN404      0.3669
      3  O2        12.4070   48.0340    8.8400 O.2   404  FMN404     -0.1744
      4  N3        14.1770   48.3120   10.1310 N.2   404  FMN404     -0.2300
      5  C4        15.4420   48.8320   10.2590 C.1   404  FMN404      0.2513
      6  O4        15.9580   48.8720   11.3670 O.2   404  FMN404     -0.2057
      7  C4A       16.0390   49.5140    9.2160 C.2   404  FMN404      0.2697
      8  N5        17.3130   50.0040    9.3570 N.2   404  FMN404     -0.3922
      9  C5A       17.9430   50.6820    8.3230 C.2   404  FMN404      0.1102
     10  C6        19.2350   51.1840    8.5010 C.3   404  FMN404      0.0605
     11  C7        19.8940   51.8640    7.4880 C.3   404  FMN404      0.0248
     12  C7M       21.3860   51.8070    7.5440 C.3   404  FMN404      0.0048
     13  C8        19.2520   52.0610    6.2760 C.2   404  FMN404     -0.0461
     14  C8M       19.8590   52.9150    5.2010 C.3   404  FMN404      0.0261
     15  C9        17.9620   51.5610    6.1000 C.2   404  FMN404     -0.0084
     16  C9A       17.2790   50.8670    7.1140 C.3   404  FMN404      0.1451
     17  N10       15.9700   50.3720    6.9770 N.pl3 404  FMN404     -0.2694
     18  C10       15.3660   49.6830    8.0280 C.2   404  FMN404      0.2416
     19  C1'       15.0730   50.8210    5.8390 C.3   404  FMN404      0.1294
     20  C2'       14.4720   52.2220    6.0050 C.3   404  FMN404      0.2044
     21  O2'       13.7400   52.3340    7.2170 O.3   404  FMN404     -0.2185
     22  C3'       13.5660   52.5310    4.8020 C.3   404  FMN404      0.2164
     23  O3'       14.2740   52.2360    3.6150 O.3   404  FMN404     -0.2175
     24  C4'       13.0670   53.9820    4.7520 C.3   404  FMN404      0.2147
     25  O4'       11.8990   54.0910    5.5250 O.3   404  FMN404     -0.2176
     26  C5'       12.7390   54.4620    3.3420 C.3   404  FMN404      0.1892
     27  O5'       12.0440   55.6930    3.3620 O.3   404  FMN404     -0.2674
     28  P         12.6470   57.0380    2.7310 P.3   404  FMN404      0.5327
     29  O1P       11.8460   58.2270    3.1700 O.3   404  FMN404     -0.1145
     30  O2P       14.0520   57.1410    3.2440 O.3   404  FMN404     -0.1145
     31  O3P       12.6430   56.9810    1.2400 O.2   404  FMN404     -0.2224
@<TRIPOS>BOND
     1    31    28    2
     2    28    29    1
     3    28    30    1
     4    28    27    1
     5    26    27    1
     6    26    24    1
     7    23    22    1
     8    24    22    1
     9    24    25    1
    10    22    20    1
    11    14    13    1
    12    19    20    1
    13    19    17    1
    14    20    21    1
    15    15    13    2
    16    15    16    1
    17    13    11    1
    18    17    16    1
    19    17    18    1
    20    16     9    1
    21    11    12    1
    22    11    10    1
    23     1    18    2
    24     1     2    2
    25    18     7    1
    26     9    10    1
    27     9     8    2
    28     3     2    2
    29     2     4    2
    30     7     8    2
    31     7     5    1
    32     4     5    2
    33     5     6    2
