@<TRIPOS>MOLECULE
1yro_UDP_B_1.pdb
 25 26 0 0 0
SMALL
GASTEIGER

@<TRIPOS>ATOM
      1  N1        14.0560   -2.0110   49.5980 N.am  405  UDP405     -0.1766
      2  C2        14.6810   -0.9360   50.2620 C.1   405  UDP405      0.2845
      3  N3        14.0660    0.2910   50.0910 N.2   405  UDP405     -0.2452
      4  C4        12.9040    0.5500   49.3410 C.1   405  UDP405      0.2182
      5  C5        12.3380   -0.6020   48.7000 C.2   405  UDP405      0.1242
      6  C6        12.8900   -1.7960   48.8360 C.2   405  UDP405      0.0929
      7  O2        15.6970   -1.1460   50.9200 O.2   405  UDP405     -0.1918
      8  O4        12.4600    1.6810   49.2720 O.2   405  UDP405     -0.2085
      9  C1'       14.7130   -3.3440   49.7770 C.3   405  UDP405      0.2401
     10  C2'       14.4470   -4.1590   51.0160 C.3   405  UDP405      0.2319
     11  O2'       15.6170   -4.8500   51.5530 O.3   405  UDP405     -0.2157
     12  C3'       13.3530   -5.0650   50.4860 C.3   405  UDP405      0.2158
     13  C4'       13.8970   -5.4400   49.1370 C.3   405  UDP405      0.1799
     14  O4'       14.3310   -4.1430   48.6640 O.3   405  UDP405     -0.3320
     15  O3'       13.1150   -6.2240   51.2790 O.3   405  UDP405     -0.2175
     16  C5'       12.9330   -6.2300   48.2380 C.3   405  UDP405      0.1813
     17  O5'       11.5670   -5.8570   47.9820 O.3   405  UDP405     -0.3111
     18  PA        10.6090   -6.7680   47.0450 P.3   405  UDP405      0.2231
     19  O1A       11.1920   -6.9230   45.6900 O.2   405  UDP405     -0.5169
     20  O2A        9.1580   -6.4260   47.0480 O.3   405  UDP405     -0.4370
     21  O3A       10.8040   -8.1840   47.9130 O.3   405  UDP405     -0.2261
     22  PB         9.9170   -8.8100   49.0470 P.3   405  UDP405      0.5373
     23  O1B       10.7910  -10.1340   49.3410 O.3   405  UDP405     -0.1143
     24  O2B       10.0250   -7.8590   50.1980 O.3   405  UDP405     -0.1143
     25  O3B        8.4750   -8.7860   48.6630 O.2   405  UDP405     -0.2221
@<TRIPOS>BOND
     1    19    18    2
     2    18    20    1
     3    18    21    1
     4    18    17    1
     5    21    22    1
     6    17    16    1
     7    16    13    1
     8    25    22    2
     9    14    13    1
    10    14     9    1
    11     5     6    2
    12     5     4    1
    13     6     1    1
    14    22    23    1
    15    22    24    1
    16    13    12    1
    17     8     4    2
    18     4     3    2
    19     1     9    1
    20     1     2   am
    21     9    10    1
    22     3     2    2
    23     2     7    2
    24    12    10    1
    25    12    15    1
    26    10    11    1
