@<TRIPOS>MOLECULE
1yro_GDU_B_1.pdb
 36 38 0 0 0
SMALL
GASTEIGER

@<TRIPOS>ATOM
      1  N1         5.7820   -5.7250   32.6590 N.am  403  GDU403     -0.1766
      2  C2         6.2750   -6.3140   33.8440 C.1   403  GDU403      0.2845
      3  N3         6.4120   -7.6850   33.8290 N.2   403  GDU403     -0.2452
      4  C4         6.1100   -8.5400   32.7680 C.1   403  GDU403      0.2182
      5  C5         5.6140   -7.8780   31.5810 C.2   403  GDU403      0.1242
      6  C6         5.4690   -6.5540   31.5520 C.2   403  GDU403      0.0929
      7  O2         6.5430   -5.6030   34.7840 O.2   403  GDU403     -0.1918
      8  O4         6.2700   -9.7390   32.8940 O.2   403  GDU403     -0.2085
      9  C1D        5.6270   -4.2090   32.6770 C.3   403  GDU403      0.2401
     10  C2D        6.8730   -3.3590   32.7780 C.3   403  GDU403      0.2319
     11  O2D        6.6380   -2.0480   33.3870 O.3   403  GDU403     -0.2157
     12  C3D        7.2320   -3.3070   31.3340 C.3   403  GDU403      0.2158
     13  C4D        5.8980   -2.9660   30.6670 C.3   403  GDU403      0.1799
     14  O4D        5.0590   -3.9000   31.4070 O.3   403  GDU403     -0.3320
     15  O3D        8.2540   -2.3690   31.0240 O.3   403  GDU403     -0.2175
     16  C5D        5.9790   -3.2490   29.1770 C.3   403  GDU403      0.1813
     17  O5D        6.4520   -4.5830   28.8540 O.3   403  GDU403     -0.3112
     18  PA         7.7650   -4.8210   28.0040 P.3   403  GDU403      0.2189
     19  O1A        8.8440   -3.9460   28.5470 O.3   403  GDU403     -0.4371
     20  O2A        8.1740   -6.2500   27.8250 O.2   403  GDU403     -0.5170
     21  O3A        7.1890   -4.1240   26.6760 O.3   403  GDU403     -0.2703
     22  PB         7.8600   -3.3520   25.5060 P.3   403  GDU403      0.2208
     23  O1B        7.9980   -4.3150   24.2850 O.2   403  GDU403     -0.5170
     24  O2B        9.2620   -3.1640   25.9670 O.3   403  GDU403     -0.4371
     25  O3B        7.2460   -1.9930   25.6610 O.3   403  GDU403     -0.2857
     26  C1'        6.2660   -1.4040   24.7910 C.3   403  GDU403      0.2742
     27  C2'        5.7840   -0.0800   25.4860 C.3   403  GDU403      0.2409
     28  C3'        4.8530   -0.4230   26.6770 C.3   403  GDU403      0.2198
     29  C4'        3.6530   -1.2130   26.1330 C.3   403  GDU403      0.2144
     30  C5'        4.1280   -2.5460   25.5150 C.3   403  GDU403      0.1835
     31  C6'        3.1400   -3.3160   24.6630 C.3   403  GDU403      0.2142
     32  O2'        6.8990    0.7080   25.9970 O.3   403  GDU403     -0.2149
     33  O3'        4.2560    0.7450   27.3220 O.3   403  GDU403     -0.2174
     34  O4'        2.9210   -0.5170   25.1430 O.3   403  GDU403     -0.2176
     35  O5'        5.1050   -2.2440   24.4110 O.3   403  GDU403     -0.3254
     36  O6'        2.1140   -3.9700   25.3850 O.3   403  GDU403     -0.2176
@<TRIPOS>BOND
     1    23    22    2
     2    35    26    1
     3    35    30    1
     4    31    36    1
     5    31    30    1
     6    26    27    1
     7    26    25    1
     8    34    29    1
     9    27    32    1
    10    27    28    1
    11    22    25    1
    12    22    24    1
    13    22    21    1
    14    30    29    1
    15    29    28    1
    16    21    18    1
    17    28    33    1
    18    20    18    2
    19    18    19    1
    20    18    17    1
    21    17    16    1
    22    16    13    1
    23    13    12    1
    24    13    14    1
    25    15    12    1
    26    12    10    1
    27    14     9    1
    28     6     5    2
    29     6     1    1
    30     5     4    1
    31     1     9    1
    32     1     2   am
    33     9    10    1
    34     4     8    2
    35     4     3    2
    36    10    11    1
    37     3     2    2
    38     2     7    2
