@<TRIPOS>MOLECULE
1yrs_L47_A_1.pdb
 22 24 0 0 0
SMALL
GASTEIGER

@<TRIPOS>ATOM
      1  C1        21.5490   16.7560  105.7110 C.ar  604  L47604      0.0001
      2  C2        20.4050   16.5310  106.5710 C.ar  604  L47604      0.0021
      3  C3        20.4920   15.4440  107.5240 C.ar  604  L47604      0.0257
      4  C4        21.6920   14.6120  107.5660 C.ar  604  L47604      0.0588
      5  C5        22.8420   14.8360  106.7270 C.ar  604  L47604      0.0114
      6  C6        22.7420   15.9230  105.7940 C.ar  604  L47604      0.0009
      7  C11       19.3600   15.1910  108.4470 C.2   604  L47604      0.0794
      8  N12       18.3190   16.0040  108.7290 N.2   604  L47604     -0.1798
      9  N13       17.5130   15.5490  109.6220 N.am  604  L47604     -0.1782
     10  C14       17.9310   14.2660  110.2210 C.3   604  L47604      0.1273
     11  C15       18.9150   13.9500  109.1780 C.3   604  L47604      0.0738
     12  C18       17.9530   13.8100  111.6170 C.ar  604  L47604      0.0012
     13  C20       16.3990   16.2400  109.9330 C.2   604  L47604      0.2451
     14  C21       15.1760   15.3920  110.2650 C.3   604  L47604      0.0966
     15  O25       16.3340   17.4660  109.8500 O.2   604  L47604     -0.2731
     16  C26       19.0260   14.3150  112.4450 C.ar  604  L47604     -0.0024
     17  C27       19.1140   13.9940  113.8490 C.ar  604  L47604      0.0030
     18  C28       18.0920   13.1280  114.3860 C.ar  604  L47604      0.0420
     19  C29       17.0420   12.5900  113.5480 C.ar  604  L47604      0.1955
     20  C30       16.9390   12.9200  112.1470 C.ar  604  L47604      0.0394
     21 CL35       21.6320   13.2450  108.5950 Cl    604  L47604     -0.0822
     22  O36       16.1370   11.7210  114.1150 O.3   604  L47604     -0.2866
@<TRIPOS>BOND
     1     1     6   ar
     2     1     2   ar
     3     6     5   ar
     4     2     3   ar
     5     5     4   ar
     6     3     4   ar
     7     3     7    1
     8     4    21    1
     9     7     8    2
    10     7    11    1
    11     8     9    1
    12    11    10    1
    13     9    13   am
    14     9    10    1
    15    15    13    2
    16    13    14    1
    17    10    12    1
    18    12    20   ar
    19    12    16   ar
    20    20    19   ar
    21    16    17   ar
    22    19    22    1
    23    19    18   ar
    24    17    18   ar
