@<TRIPOS>MOLECULE
1yrs_ADP_A_1.pdb
 27 29 0 0 0
SMALL
GASTEIGER

@<TRIPOS>ATOM
      1  PB        14.8680    6.4510   99.3540 P.3   601  ADP601      0.5373
      2  O1B       14.3620    7.0950   98.1230 O.2   601  ADP601     -0.2221
      3  O2B       15.3590    4.9580   99.0460 O.3   601  ADP601     -0.1143
      4  O3B       15.9820    7.2060   99.9660 O.3   601  ADP601     -0.1143
      5  PA        13.3350    7.1080  101.6590 P.3   601  ADP601      0.2231
      6  O1A       14.2910    6.8210  102.7360 O.3   601  ADP601     -0.4370
      7  O2A       13.3340    8.5380  101.3590 O.2   601  ADP601     -0.5169
      8  O3A       13.7140    6.2950  100.3770 O.3   601  ADP601     -0.2261
      9  O5'       11.8730    6.7540  102.0890 O.3   601  ADP601     -0.3111
     10  C5'       10.9140    5.8840  101.4970 C.3   601  ADP601      0.1813
     11  C4'        9.6670    5.9510  102.4530 C.3   601  ADP601      0.1821
     12  O4'        9.7060    4.7020  103.1410 O.3   601  ADP601     -0.3135
     13  C3'        9.7250    7.0310  103.5750 C.3   601  ADP601      0.2184
     14  O3'        8.4580    7.6830  103.7700 O.3   601  ADP601     -0.2174
     15  C2'       10.1910    6.3160  104.8380 C.3   601  ADP601      0.2570
     16  O2'        9.6600    6.8810  106.0450 O.3   601  ADP601     -0.2130
     17  C1'        9.8020    4.8680  104.5750 C.3   601  ADP601      0.3186
     18  N9        10.8120    3.8510  105.0840 N.pl3 601  ADP601     -0.1439
     19  C8        11.8760    3.3710  104.3760 C.3   601  ADP601      0.3377
     20  N7        12.5470    2.4970  105.1070 N.2   601  ADP601     -0.2095
     21  C5        11.9590    2.3900  106.2690 C.2   601  ADP601      0.2526
     22  C6        12.1810    1.6470  107.4380 C.2   601  ADP601      0.4393
     23  N6        13.2130    0.8080  107.5050 N.pl3 601  ADP601      0.2180
     24  N1        11.3310    1.7800  108.5270 N.2   601  ADP601      0.0021
     25  C2        10.2560    2.6260  108.5130 C.3   601  ADP601      0.5254
     26  N3        10.0230    3.3540  107.3830 N.2   601  ADP601     -0.0055
     27  C4        10.8300    3.2690  106.2660 C.2   601  ADP601      0.3518
@<TRIPOS>BOND
     1     2     1    2
     2     3     1    1
     3     1     4    1
     4     1     8    1
     5     8     5    1
     6     7     5    2
     7    10     9    1
     8    10    11    1
     9     5     9    1
    10     5     6    1
    11    11    12    1
    12    11    13    1
    13    12    17    1
    14    13    14    1
    15    13    15    1
    16    19    18    1
    17    19    20    1
    18    17    15    1
    19    17    18    1
    20    15    16    1
    21    18    27    1
    22    20    21    2
    23    27    21    1
    24    27    26    2
    25    21    22    1
    26    26    25    1
    27    22    23    1
    28    22    24    2
    29    25    24    1
