@<TRIPOS>MOLECULE
1yrx_D9G_A_1.pdb
 19 18 0 0 0
SMALL
GASTEIGER

@<TRIPOS>ATOM
      1  CAC        6.6480    5.7690  -20.1920 C.3   302  D9G302      0.0000
      2  CAD        5.2440    5.3270  -20.6190 C.3   302  D9G302      0.0000
      3  CAE        5.0430    5.4690  -22.1370 C.3   302  D9G302      0.0000
      4  CAF        3.5500    5.3730  -22.4980 C.3   302  D9G302      0.0000
      5  CAG        3.2910    5.8310  -23.9400 C.3   302  D9G302      0.0000
      6  CAH        1.9420    6.5310  -24.0600 C.3   302  D9G302      0.0000
      7  CAI        2.0320    7.7440  -24.9920 C.3   302  D9G302     -0.0000
      8  CAJ        1.2550    7.5000  -26.2870 C.3   302  D9G302     -0.0000
      9  CAK        0.9880    8.8010  -27.0520 C.3   302  D9G302     -0.0001
     10  CAL        0.4100    8.4760  -28.4300 C.3   302  D9G302     -0.0021
     11  CAM       -0.1000    9.7130  -29.1740 C.3   302  D9G302     -0.0222
     12  CAN       -1.0830    9.3060  -30.3040 C.3   302  D9G302     -0.0724
     13  NAO       -2.2360   10.1430  -30.3850 N.4   302  D9G302      0.3945
     14  CAS       -2.3590   11.0060  -29.2750 C.3   302  D9G302     -0.0951
     15  CAA       -2.3230   10.8430  -31.6100 C.3   302  D9G302     -0.0951
     16  CAP       -3.4310    9.2370  -30.3290 C.3   302  D9G302      0.0435
     17  CAQ       -3.5200    8.0090  -31.3020 C.2   302  D9G302      0.3449
     18  OAB       -4.0250    6.9610  -30.8300 O.co2 302  D9G302     -0.2480
     19  OAR       -3.1220    8.1310  -32.4880 O.co2 302  D9G302     -0.2480
@<TRIPOS>BOND
     1    19    17   ar
     2    15    13    1
     3    17    18   ar
     4    17    16    1
     5    13    16    1
     6    13    12    1
     7    13    14    1
     8    12    11    1
     9    11    10    1
    10    10     9    1
    11     9     8    1
    12     8     7    1
    13     7     6    1
    14     6     5    1
    15     5     4    1
    16     4     3    1
    17     3     2    1
    18     2     1    1
