@<TRIPOS>MOLECULE
1yrx_FMN_A_1.pdb
 31 33 0 0 0
SMALL
GASTEIGER

@<TRIPOS>ATOM
      1  N1         9.0250   18.3290   -5.6390 N.2   201  FMN201     -0.2887
      2  C2         8.1730   17.9370   -4.6470 C.1   201  FMN201      0.3669
      3  O2         8.6080   17.5210   -3.6240 O.2   201  FMN201     -0.1744
      4  N3         6.7920   18.0790   -4.7440 N.2   201  FMN201     -0.2300
      5  C4         6.2290   18.5160   -5.9140 C.1   201  FMN201      0.2513
      6  O4         5.0010   18.5410   -5.9550 O.2   201  FMN201     -0.2057
      7  C4A        7.0600   18.9080   -6.9530 C.2   201  FMN201      0.2706
      8  N5         6.5310   19.3810   -8.1320 N.2   201  FMN201     -0.3841
      9  C5A        7.3510   19.7660   -9.1640 C.2   201  FMN201      0.1452
     10  C6         6.7930   20.2280  -10.3460 C.2   201  FMN201      0.0252
     11  C7         7.5970   20.6330  -11.3990 C.2   201  FMN201     -0.0375
     12  C7M        6.9560   21.2530  -12.6220 C.3   201  FMN201      0.0268
     13  C8         8.9910   20.5770  -11.2680 C.3   201  FMN201      0.0417
     14  C8M        9.8860   20.7950  -12.4750 C.3   201  FMN201      0.0091
     15  C9         9.5380   20.0880  -10.0930 C.2   201  FMN201     -0.0049
     16  C9A        8.7450   19.6940   -9.0270 C.2   201  FMN201      0.0795
     17  N10        9.3090   19.2010   -7.8390 N.pl3 201  FMN201     -0.2545
     18  C10        8.4690   18.8220   -6.8090 C.2   201  FMN201      0.2449
     19  C1'       10.7740   18.8420   -7.7510 C.3   201  FMN201      0.1336
     20  C2'       11.4740   19.9630   -6.9470 C.3   201  FMN201      0.2048
     21  O2'       11.5300   21.1390   -7.7450 O.3   201  FMN201     -0.2185
     22  C3'       12.9020   19.6000   -6.4510 C.3   201  FMN201      0.2165
     23  O3'       13.6370   19.0660   -7.5310 O.3   201  FMN201     -0.2175
     24  C4'       12.8970   18.6220   -5.2930 C.3   201  FMN201      0.2147
     25  O4'       12.1240   19.1270   -4.2330 O.3   201  FMN201     -0.2176
     26  C5'       14.2860   18.3570   -4.7130 C.3   201  FMN201      0.1892
     27  O5'       14.6520   17.0480   -5.1180 O.3   201  FMN201     -0.2674
     28  P         15.7880   16.1320   -4.4110 P.3   201  FMN201      0.5327
     29  O1P       17.1170   16.8440   -4.4910 O.3   201  FMN201     -0.1145
     30  O2P       15.8600   14.8440   -5.1850 O.2   201  FMN201     -0.2224
     31  O3P       15.4270   15.8700   -2.9690 O.3   201  FMN201     -0.1145
@<TRIPOS>BOND
     1    12    11    1
     2    14    13    1
     3    11    13    1
     4    11    10    2
     5    13    15    1
     6    10     9    1
     7    15    16    2
     8     9    16    1
     9     9     8    2
    10    16    17    1
    11     8     7    2
    12    17    19    1
    13    17    18    1
    14    19    20    1
    15    21    20    1
    16    23    22    1
    17     7    18    1
    18     7     5    1
    19    20    22    1
    20    18     1    2
    21    22    24    1
    22     6     5    2
    23     5     4    2
    24     1     2    2
    25    24    26    1
    26    24    25    1
    27    30    28    2
    28    27    26    1
    29    27    28    1
    30     4     2    2
    31     2     3    2
    32    29    28    1
    33    28    31    1
