@<TRIPOS>MOLECULE
1yry_MSG_E_1.pdb
 21 23 0 0 0
SMALL
GASTEIGER

@<TRIPOS>ATOM
      1  O5'       50.9490   49.2390   29.7760 O.3   290  MSG290     -0.2176
      2  C5'       50.3930   48.7570   31.0360 C.3   290  MSG290      0.2142
      3  C4'       50.6120   47.2550   31.2720 C.3   290  MSG290      0.1828
      4  O4'       50.3820   46.7710   29.8970 O.3   290  MSG290     -0.3325
      5  C1'       51.6140   46.2070   29.2440 C.3   290  MSG290      0.2287
      6  N9        51.9390   46.9950   28.0520 N.pl3 290  MSG290     -0.2454
      7  C8        51.0830   47.8470   27.4170 C.3   290  MSG290      0.1734
      8  N7        51.7630   48.4430   26.2810 N.3   290  MSG290     -0.2366
      9  C1        51.0710   48.1130   25.0340 C.3   290  MSG290      0.0923
     10  C5        53.0430   47.8820   26.3100 C.3   290  MSG290      0.2152
     11  C6        54.1250   48.1710   25.3600 C.1   290  MSG290      0.0531
     12  S6        54.0690   49.3010   23.9540 S.2   290  MSG290      0.0220
     13  N1        55.2800   47.4250   25.6990 N.2   290  MSG290     -0.2847
     14  C2        55.3860   46.5350   26.7740 C.1   290  MSG290      0.2503
     15  N2        56.6400   45.8250   27.0050 N.pl3 290  MSG290     -0.0227
     16  N3        54.3320   46.3300   27.5980 N.2   290  MSG290     -0.3120
     17  C4        53.1940   47.0180   27.3340 C.2   290  MSG290      0.2058
     18  C2'       52.7190   46.1910   30.2950 C.3   290  MSG290      0.2310
     19  O2'       53.1680   44.8040   30.4380 O.3   290  MSG290     -0.2158
     20  C3'       52.0830   46.7890   31.6330 C.3   290  MSG290      0.2159
     21  O3'       52.1120   45.7500   32.6990 O.3   290  MSG290     -0.2175
@<TRIPOS>BOND
     1    12    11    2
     2     9     8    1
     3    11    13    2
     4    11    10    1
     5    13    14    2
     6     8    10    1
     7     8     7    1
     8    10    17    1
     9    14    15    1
    10    14    16    2
    11    17    16    2
    12    17     6    1
    13     7     6    1
    14     6     5    1
    15     5     4    1
    16     5    18    1
    17     1     2    1
    18     4     3    1
    19    18    19    1
    20    18    20    1
    21     2     3    1
    22     3    20    1
    23    20    21    1
