@<TRIPOS>MOLECULE
1ys1_2HR_X_1.pdb
 19 19 0 0 0
SMALL
GASTEIGER

@<TRIPOS>ATOM
      1  C6        15.3220    8.3080   10.5950 C.3   600  2HR600      0.0000
      2  C5        15.8820    7.7430   11.8990 C.3   600  2HR600      0.0000
      3  C4        15.1760    6.4580   12.2840 C.3   600  2HR600      0.0000
      4  C3        15.6100    5.9390   13.6550 C.3   600  2HR600      0.0005
      5  C2        14.8270    4.6830   14.0490 C.3   600  2HR600      0.0095
      6  C1        13.3950    5.0360   14.4730 C.3   600  2HR600      0.0809
      7  P         12.3660    3.6380   14.5920 P.3   600  2HR600      0.2200
      8  O         10.9960    3.9560   15.1250 O.3   600  2HR600     -0.1774
      9  O1        12.3090    3.0460   13.1270 O.3   600  2HR600     -0.3173
     10  C7        11.4690    1.9640   12.7520 C.3   600  2HR600      0.1489
     11  C8        11.2630    1.9880   11.2360 C.3   600  2HR600      0.0344
     12  C9        10.4840    0.7320   10.8460 C.3   600  2HR600      0.0029
     13  C10       12.6060    2.1770   10.5210 C.3   600  2HR600      0.0289
     14  C11       12.5380    1.9790    9.0210 C.ar  600  2HR600     -0.0221
     15  C16       11.5770    2.6100    8.2320 C.ar  600  2HR600     -0.0043
     16  C15       11.5480    2.3990    6.8520 C.ar  600  2HR600     -0.0003
     17  C14       12.4800    1.5520    6.2610 C.ar  600  2HR600     -0.0000
     18  C13       13.4370    0.9160    7.0430 C.ar  600  2HR600     -0.0003
     19  C12       13.4700    1.1300    8.4190 C.ar  600  2HR600     -0.0043
@<TRIPOS>BOND
     1    17    16   ar
     2    17    18   ar
     3    16    15   ar
     4    18    19   ar
     5    15    14   ar
     6    19    14   ar
     7    14    13    1
     8    13    11    1
     9     1     2    1
    10    12    11    1
    11    11    10    1
    12     2     3    1
    13     3     4    1
    14    10     9    1
    15     9     7    1
    16     4     5    1
    17     5     6    1
    18     6     7    1
    19     7     8    1
