@<TRIPOS>MOLECULE
1ys2_2HS_X_1.pdb
 19 19 0 0 0
SMALL
GASTEIGER

@<TRIPOS>ATOM
      1  C6        15.1520    8.3110   10.5680 C.3   600  2HS600      0.0000
      2  C5        15.8650    7.6610   11.7750 C.3   600  2HS600      0.0000
      3  C4        15.1040    6.4410   12.2580 C.3   600  2HS600      0.0000
      4  C3        15.5650    5.8650   13.5970 C.3   600  2HS600      0.0005
      5  C2        14.7540    4.6160   13.9970 C.3   600  2HS600      0.0095
      6  C1        13.3190    4.9720   14.3620 C.3   600  2HS600      0.0809
      7  P         12.3140    3.5810   14.5960 P.3   600  2HS600      0.2200
      8  O         10.9580    3.9480   15.1740 O.3   600  2HS600     -0.1774
      9  O1        12.1600    2.8510   13.1820 O.3   600  2HS600     -0.3173
     10  C7        11.1870    1.8330   12.9410 C.3   600  2HS600      0.1489
     11  C8        11.3920    1.2710   11.5500 C.3   600  2HS600      0.0344
     12  C9        10.3250    0.2240   11.2510 C.3   600  2HS600      0.0029
     13  C10       11.4690    2.3940   10.5180 C.3   600  2HS600      0.0289
     14  C11       12.0280    1.8790    9.1930 C.ar  600  2HS600     -0.0221
     15  C16       13.4040    1.7370    9.0340 C.ar  600  2HS600     -0.0043
     16  C15       13.9150    1.2550    7.8260 C.ar  600  2HS600     -0.0003
     17  C14       13.0390    0.9000    6.8040 C.ar  600  2HS600     -0.0000
     18  C13       11.6730    1.0230    6.9760 C.ar  600  2HS600     -0.0003
     19  C12       11.1610    1.5140    8.1800 C.ar  600  2HS600     -0.0043
@<TRIPOS>BOND
     1    17    18   ar
     2    17    16   ar
     3    18    19   ar
     4    16    15   ar
     5    19    14   ar
     6    15    14   ar
     7    14    13    1
     8    13    11    1
     9     1     2    1
    10    12    11    1
    11    11    10    1
    12     2     3    1
    13     3     4    1
    14    10     9    1
    15     9     7    1
    16     4     5    1
    17     5     6    1
    18     6     7    1
    19     7     8    1
