@<TRIPOS>MOLECULE
1ys4_NAP_A_1.pdb
 48 52 0 0 0
SMALL
GASTEIGER

@<TRIPOS>ATOM
      1  PA        39.7970   47.2370  139.8310 P.3   900  NAP900      0.2189
      2  O1A       40.4690   45.9070  140.0990 O.2   900  NAP900     -0.5170
      3  O2A       40.3790   48.4890  140.4510 O.3   900  NAP900     -0.4371
      4  O5B       39.6980   47.4290  138.2260 O.3   900  NAP900     -0.3112
      5  C5B       39.3250   48.6480  137.5680 C.3   900  NAP900      0.1813
      6  C4B       40.5250   49.2430  136.8320 C.3   900  NAP900      0.1820
      7  O4B       41.1830   50.1060  137.7580 O.3   900  NAP900     -0.3136
      8  C3B       41.4780   48.1140  136.4670 C.3   900  NAP900      0.2157
      9  O3B       41.7510   48.1000  135.0740 O.3   900  NAP900     -0.2175
     10  C2B       42.7370   48.3310  137.2950 C.3   900  NAP900      0.2314
     11  O2B       43.9220   48.3350  136.4980 O.3   900  NAP900     -0.2630
     12  C1B       42.4800   49.6030  138.1150 C.3   900  NAP900      0.3158
     13  N9A       43.5300   50.6660  138.1670 N.pl3 900  NAP900     -0.1439
     14  C8A       44.3400   50.8840  139.2360 C.3   900  NAP900      0.3377
     15  N7A       45.2090   51.9300  139.0620 N.2   900  NAP900     -0.2095
     16  C5A       44.9520   52.4260  137.8410 C.2   900  NAP900      0.2526
     17  C6A       45.4410   53.5130  136.9530 C.2   900  NAP900      0.4393
     18  N6A       46.4400   54.3270  137.3690 N.pl3 900  NAP900      0.2180
     19  N1A       44.8750   53.6760  135.7290 N.2   900  NAP900      0.0021
     20  C2A       43.8770   52.8910  135.2700 C.3   900  NAP900      0.5254
     21  N3A       43.3460   51.8730  135.9770 N.2   900  NAP900     -0.0055
     22  C4A       43.8740   51.6080  137.2940 C.2   900  NAP900      0.3518
     23  O3        38.2480   47.1160  140.2810 O.3   900  NAP900     -0.2703
     24  PN        37.2740   46.0460  139.5660 P.3   900  NAP900      0.2189
     25  O1N       37.8470   44.6720  139.8230 O.3   900  NAP900     -0.4371
     26  O2N       37.0600   46.4860  138.1390 O.2   900  NAP900     -0.5170
     27  O5D       35.8320   46.1530  140.2980 O.3   900  NAP900     -0.3112
     28  C5D       35.4630   47.1360  141.2710 C.3   900  NAP900      0.1813
     29  C4D       34.9930   48.4430  140.6260 C.3   900  NAP900      0.1799
     30  O4D       34.1810   48.2600  139.4500 O.3   900  NAP900     -0.3327
     31  C3D       34.2140   49.3140  141.6080 C.3   900  NAP900      0.2158
     32  O3D       34.9570   50.4880  141.9160 O.3   900  NAP900     -0.2175
     33  C2D       32.9010   49.6590  140.9260 C.3   900  NAP900      0.2309
     34  O2D       32.7210   51.0620  140.7990 O.3   900  NAP900     -0.2158
     35  C1D       32.9510   49.0040  139.5470 C.3   900  NAP900      0.2263
     36  N1N       31.7000   48.3070  139.1780 N.pl3 900  NAP900     -0.2787
     37  C2N       31.6330   46.9870  138.9150 C.3   900  NAP900      0.1244
     38  C3N       30.4080   46.4010  138.5560 C.2   900  NAP900      0.0544
     39  C7N       30.2730   44.9390  138.2510 C.2   900  NAP900      0.2818
     40  O7N       29.1680   44.5180  137.9500 O.2   900  NAP900     -0.2670
     41  N7N       31.3380   44.1390  138.3210 N.am  900  NAP900     -0.0839
     42  C4N       29.2650   47.1850  138.4600 C.2   900  NAP900      0.0033
     43  C5N       29.3640   48.5360  138.7230 C.2   900  NAP900      0.0157
     44  C6N       30.5970   49.0680  139.0810 C.2   900  NAP900      0.0633
     45  P2B       44.9520   47.1030  136.6540 P.3   900  NAP900      0.5328
     46  O1X       44.1140   45.8500  136.5600 O.3   900  NAP900     -0.1145
     47  O2X       45.5590   47.3370  138.0180 O.3   900  NAP900     -0.1145
     48  O3X       45.9130   47.2810  135.5060 O.2   900  NAP900     -0.2224
@<TRIPOS>BOND
     1     9     8    1
     2    20    19    1
     3    20    21    1
     4    48    45    2
     5    19    17    2
     6    21    22    2
     7     8     6    1
     8     8    10    1
     9    11    45    1
    10    11    10    1
    11    46    45    1
    12    45    47    1
    13     6     5    1
    14     6     7    1
    15    17    18    1
    16    17    16    1
    17    22    16    1
    18    22    13    1
    19    10    12    1
    20     5     4    1
    21     7    12    1
    22    16    15    2
    23    40    39    2
    24    12    13    1
    25    26    24    2
    26    13    14    1
    27     4     1    1
    28    39    41   am
    29    39    38    1
    30    42    38    2
    31    42    43    1
    32    38    37    1
    33    43    44    2
    34    37    36    1
    35    15    14    1
    36    44    36    1
    37    36    35    1
    38    30    35    1
    39    30    29    1
    40    35    33    1
    41    24    25    1
    42    24    23    1
    43    24    27    1
    44     1     2    2
    45     1    23    1
    46     1     3    1
    47    27    28    1
    48    29    28    1
    49    29    31    1
    50    34    33    1
    51    33    31    1
    52    31    32    1
