@<TRIPOS>MOLECULE
1ysg_4FC_A_1.pdb
 24 25 0 0 0
SMALL
GASTEIGER

@<TRIPOS>ATOM
      1  C1         3.9900   -9.7100   -4.7920 C.ar  1000  4FC1000    -0.0259
      2  C2         3.3080   -8.7090   -5.4810 C.ar  1000  4FC1000     0.1234
      3  C3         3.7180   -7.3810   -5.3630 C.ar  1000  4FC1000    -0.0259
      4  C4         4.7950   -7.0610   -4.5610 C.ar  1000  4FC1000    -0.0513
      5  C5         5.4700   -8.0650   -3.8760 C.ar  1000  4FC1000    -0.0177
      6  C6         5.0680   -9.3840   -3.9950 C.ar  1000  4FC1000    -0.0513
      7  C7         6.7230   -6.4450   -2.4590 C.ar  1000  4FC1000    -0.0533
      8  C8         6.6150   -7.7250   -2.9850 C.ar  1000  4FC1000    -0.0178
      9  C9         7.5650   -8.6900   -2.6800 C.ar  1000  4FC1000    -0.0533
     10  C10        8.6280   -8.3760   -1.8540 C.ar  1000  4FC1000    -0.0471
     11  C11        8.7420   -7.0920   -1.3260 C.ar  1000  4FC1000     0.0632
     12  C12        7.7840   -6.1280   -1.6280 C.ar  1000  4FC1000    -0.0471
     13  F1         2.2640   -9.0220   -6.2580 F     1000  4FC1000    -0.2055
     14  C13        9.8720   -6.7560   -0.4460 C.2   1000  4FC1000     0.3865
     15  O1        10.3970   -5.6660   -0.4920 O.co2 1000  4FC1000    -0.2406
     16  O2        10.3140   -7.5660    0.3390 O.co2 1000  4FC1000    -0.2406
     17  HA1        3.6770  -10.7380   -4.8750 H     1000  4FC1000     0.0646
     18  HA2        3.1910   -6.6030   -5.8870 H     1000  4FC1000     0.0646
     19  HB1        5.1150   -6.0310   -4.4700 H     1000  4FC1000     0.0624
     20  HB2        5.5980  -10.1540   -3.4610 H     1000  4FC1000     0.0624
     21  HC2        5.9120   -5.7420   -2.5930 H     1000  4FC1000     0.0624
     22  HC1        7.4700   -9.6850   -3.0880 H     1000  4FC1000     0.0624
     23  HD2        9.3680   -9.1240   -1.6200 H     1000  4FC1000     0.0626
     24  HD1        7.8710   -5.1310   -1.2230 H     1000  4FC1000     0.0626
@<TRIPOS>BOND
     1    13     2    1
     2    18     3    1
     3     2     3   ar
     4     2     1   ar
     5     3     4   ar
     6    17     1    1
     7     1     6   ar
     8     4    19    1
     9     4     5   ar
    10     6     5   ar
    11     6    20    1
    12     5     8    1
    13    22     9    1
    14     8     9   ar
    15     8     7   ar
    16     9    10   ar
    17    21     7    1
    18     7    12   ar
    19    10    23    1
    20    10    11   ar
    21    12    11   ar
    22    12    24    1
    23    11    14    1
    24    15    14   ar
    25    14    16   ar
