@<TRIPOS>MOLECULE
1ysg_TN1_A_1.pdb
 23 24 0 0 0
SMALL
GASTEIGER

@<TRIPOS>ATOM
      1  C1        10.8900   -0.3290   -4.0940 C.ar  1001  TN11001    -0.0028
      2  C2        12.2060   -0.1050   -3.6980 C.ar  1001  TN11001     0.1203
      3  C3        13.2420   -0.0980   -4.6370 C.ar  1001  TN11001    -0.0199
      4  C4        12.9700   -0.3140   -5.9840 C.ar  1001  TN11001    -0.0580
      5  C5        11.6620   -0.5390   -6.3920 C.ar  1001  TN11001    -0.0581
      6  C6        10.6550   -0.5440   -5.4610 C.ar  1001  TN11001    -0.0407
      7  C7         9.2070   -0.7850   -5.8520 C.3   1001  TN11001    -0.0273
      8  C8         8.1890   -0.0220   -4.9990 C.3   1001  TN11001    -0.0488
      9  C9         8.3290   -0.3840   -3.4970 C.3   1001  TN11001    -0.0486
     10  C10        9.7900   -0.3310   -3.0570 C.3   1001  TN11001    -0.0240
     11  O11       12.5340    0.1110   -2.4040 O.3   1001  TN11001    -0.5065
     12  HG        14.2630    0.0760   -4.3290 H     1001  TN11001     0.0654
     13  HF        13.7690   -0.3080   -6.7120 H     1001  TN11001     0.0619
     14  HE        11.4350   -0.7090   -7.4350 H     1001  TN11001     0.0620
     15  HD1        9.0050   -1.8660   -5.7850 H     1001  TN11001     0.0313
     16  HD2        9.0820   -0.5100   -6.9100 H     1001  TN11001     0.0313
     17  HC1        8.3250    1.0590   -5.1030 H     1001  TN11001     0.0268
     18  HC2        7.1660   -0.2560   -5.3110 H     1001  TN11001     0.0268
     19  HB1        7.7200    0.3140   -2.9180 H     1001  TN11001     0.0269
     20  HB2        7.9140   -1.3870   -3.3500 H     1001  TN11001     0.0269
     21  HA1       10.0090   -1.1890   -2.4040 H     1001  TN11001     0.0314
     22  HA2        9.9600    0.5730   -2.4520 H     1001  TN11001     0.0314
     23  HH        13.3800   -0.0750   -2.0200 H     1001  TN11001     0.2921
@<TRIPOS>BOND
     1    14     5    1
     2    16     7    1
     3    13     4    1
     4     5     4   ar
     5     5     6   ar
     6     4     3   ar
     7     7    15    1
     8     7     6    1
     9     7     8    1
    10     6     1   ar
    11    18     8    1
    12    17     8    1
    13     8     9    1
    14     3    12    1
    15     3     2   ar
    16     1     2   ar
    17     1    10    1
    18     2    11    1
    19     9    20    1
    20     9    10    1
    21     9    19    1
    22    10    22    1
    23    10    21    1
    24    11    23    1
