@<TRIPOS>MOLECULE
1ysl_COA_B_1.pdb
 48 50 0 0 0
SMALL
GASTEIGER

@<TRIPOS>ATOM
      1  N1A       23.4550   50.0260   -7.8350 N.2   601  COA601      0.0021
      2  C2A       24.6320   49.7760   -7.2060 C.3   601  COA601      0.5254
      3  N3A       24.9810   50.1650   -5.9540 N.2   601  COA601     -0.0055
      4  C4A       23.9840   50.8690   -5.3280 C.2   601  COA601      0.3518
      5  C5A       22.7480   51.2010   -5.8600 C.2   601  COA601      0.2526
      6  C6A       22.4850   50.7390   -7.1670 C.2   601  COA601      0.4393
      7  N6A       21.3340   50.9800   -7.7690 N.pl3 601  COA601      0.2180
      8  N7A       22.0100   51.9190   -4.9390 N.2   601  COA601     -0.2095
      9  C8A       22.7720   52.0320   -3.8850 C.3   601  COA601      0.3377
     10  N9A       23.9870   51.4100   -4.0540 N.pl3 601  COA601     -0.1439
     11  C1B       25.0110   51.1540   -3.0520 C.3   601  COA601      0.3185
     12  C2B       25.4200   52.3390   -2.1660 C.3   601  COA601      0.2543
     13  O2B       26.4730   53.1060   -2.7380 O.3   601  COA601     -0.2131
     14  C3B       25.7770   51.6090   -0.8720 C.3   601  COA601      0.1928
     15  O3B       27.0920   51.0750   -1.0180 O.3   601  COA601     -0.2673
     16  P3B       28.2130   51.1830    0.1170 P.3   601  COA601      0.5327
     17  O7A       27.5980   51.2570    1.4720 O.3   601  COA601     -0.1145
     18  O8A       29.0700   49.9690    0.0140 O.3   601  COA601     -0.1145
     19  O9A       29.0870   52.4740   -0.1550 O.2   601  COA601     -0.2224
     20  C4B       24.7820   50.4750   -0.8150 C.3   601  COA601      0.1795
     21  O4B       24.5280   50.1320   -2.1950 O.3   601  COA601     -0.3136
     22  C5B       23.4550   50.8330   -0.1340 C.3   601  COA601      0.1812
     23  O5B       23.3770   52.1700    0.3650 O.3   601  COA601     -0.3112
     24  P1A       22.6640   52.4260    1.7680 P.3   601  COA601      0.2189
     25  O1A       23.5840   53.2540    2.5940 O.3   601  COA601     -0.4371
     26  O2A       21.3480   53.0900    1.4990 O.2   601  COA601     -0.5170
     27  O3A       22.3690   50.9590    2.4200 O.3   601  COA601     -0.2703
     28  P2A       20.9270   50.7590    3.1610 P.3   601  COA601      0.2188
     29  O4A       20.3840   52.0090    3.7620 O.3   601  COA601     -0.4371
     30  O5A       20.0080   50.1410    2.1570 O.2   601  COA601     -0.5170
     31  O6A       21.2130   49.7210    4.3290 O.3   601  COA601     -0.3138
     32  CBP       22.2290   47.8280    5.4410 C.3   601  COA601      0.0645
     33  CCP       22.1340   48.6280    4.1570 C.3   601  COA601      0.1519
     34  CDP       22.9600   48.7320    6.4410 C.3   601  COA601      0.0056
     35  CEP       23.0120   46.5510    5.1710 C.3   601  COA601      0.0056
     36  CAP       20.7680   47.5200    5.9060 C.3   601  COA601      0.2312
     37  OAP       20.0830   46.6260    5.0160 O.3   601  COA601     -0.2131
     38  C9P       20.6400   47.0040    7.3540 C.2   601  COA601      0.2719
     39  O9P       20.1250   47.7390    8.1950 O.2   601  COA601     -0.2706
     40  N8P       21.0930   45.7850    7.6430 N.am  601  COA601     -0.2028
     41  C7P       20.9490   45.1630    8.9620 C.3   601  COA601      0.1248
     42  C6P       22.2280   45.2430    9.7860 C.3   601  COA601      0.1102
     43  C5P       23.3770   44.4450    9.1890 C.2   601  COA601      0.2432
     44  O5P       23.1510   43.4620    8.4700 O.2   601  COA601     -0.2733
     45  N4P       24.6090   44.8700    9.4910 N.am  601  COA601     -0.2044
     46  C3P       25.8450   44.2490    9.0250 C.3   601  COA601      0.1276
     47  C2P       26.8830   44.1010   10.1290 C.3   601  COA601      0.0920
     48  S1P       26.8530   42.4780   10.9140 S.3   601  COA601     -0.0802
@<TRIPOS>BOND
     1     1     2    1
     2     1     6    2
     3     7     6    1
     4     2     3    1
     5     6     5    1
     6     3     4    2
     7     5     4    1
     8     5     8    2
     9     4    10    1
    10     8     9    1
    11    10     9    1
    12    10    11    1
    13    11    21    1
    14    11    12    1
    15    13    12    1
    16    21    20    1
    17    12    14    1
    18    15    14    1
    19    15    16    1
    20    14    20    1
    21    20    22    1
    22    19    16    2
    23    22    23    1
    24    18    16    1
    25    16    17    1
    26    23    24    1
    27    26    24    2
    28    24    27    1
    29    24    25    1
    30    30    28    2
    31    27    28    1
    32    28    29    1
    33    28    31    1
    34    33    31    1
    35    33    32    1
    36    37    36    1
    37    35    32    1
    38    32    36    1
    39    32    34    1
    40    36    38    1
    41    38    40   am
    42    38    39    2
    43    40    41    1
    44    44    43    2
    45    41    42    1
    46    46    45    1
    47    46    47    1
    48    43    45   am
    49    43    42    1
    50    47    48    1
