@<TRIPOS>MOLECULE
1yst_SPO_M_1.pdb
 42 41 0 0 0
SMALL
GASTEIGER

@<TRIPOS>ATOM
      1  CM1       -3.7220  -13.5130   24.6920 C.3   310  SPO310      0.1739
      2  O1        -4.5060  -14.6120   24.9740 O.3   310  SPO310     -0.3555
      3  C1        -3.9570  -15.7060   25.4370 C.3   310  SPO310      0.0970
      4  C2        -2.8660  -16.2410   24.5640 C.3   310  SPO310      0.0300
      5  C3        -3.3320  -15.5510   26.7820 C.3   310  SPO310      0.0300
      6  C4        -4.9420  -16.9320   25.6960 C.3   310  SPO310      0.0529
      7  C5        -5.9100  -17.5090   24.4950 C.2   310  SPO310     -0.0280
      8  C6        -6.8650  -16.8240   23.7680 C.2   310  SPO310     -0.0266
      9  C7        -7.6690  -17.4500   22.7860 C.3   310  SPO310      0.0433
     10  C8        -7.3920  -18.9700   22.4340 C.3   310  SPO310      0.0094
     11  C9        -8.6300  -16.7250   22.0300 C.2   310  SPO310     -0.0263
     12  C10       -9.3920  -17.3100   21.0940 C.2   310  SPO310     -0.0260
     13  C11      -10.2650  -16.7680   20.2410 C.3   310  SPO310      0.0476
     14  C12      -11.0330  -17.4940   19.3110 C.2   310  SPO310     -0.0395
     15  C13      -10.9430  -19.0360   19.2470 C.3   310  SPO310      0.0267
     16  C14      -11.8380  -16.8940   18.4780 C.2   310  SPO310     -0.0082
     17  C15      -12.5860  -17.4930   17.5790 C.2   310  SPO310     -0.0010
     18  C16      -13.3570  -16.9000   16.6690 C.2   310  SPO310     -0.0043
     19  C17      -14.2280  -17.4980   15.6710 C.2   310  SPO310     -0.0218
     20  C18      -14.3910  -19.0220   15.6110 C.3   310  SPO310      0.0310
     21  C19      -14.9270  -16.7320   14.7560 C.2   310  SPO310     -0.0043
     22  C20      -15.7870  -17.1500   13.8180 C.2   310  SPO310     -0.0003
     23  C21      -16.3560  -16.4270   12.8950 C.2   310  SPO310     -0.0003
     24  C22      -16.0880  -15.1470   12.7270 C.2   310  SPO310     -0.0043
     25  C23      -16.5490  -14.2230   11.7490 C.2   310  SPO310     -0.0218
     26  C24      -17.4620  -14.6740   10.6440 C.3   310  SPO310      0.0310
     27  C25      -16.0800  -12.8430   11.7600 C.2   310  SPO310     -0.0043
     28  C26      -16.3390  -11.8740   10.8680 C.2   310  SPO310     -0.0010
     29  C27      -15.8890  -10.5840   10.8910 C.2   310  SPO310     -0.0085
     30  C28      -16.1340   -9.6410    9.8990 C.2   310  SPO310     -0.0436
     31  C29      -16.8360   -9.9790    8.5760 C.3   310  SPO310      0.0264
     32  C30      -15.6280   -8.1700    9.9510 C.3   310  SPO310      0.0267
     33  C31      -16.6130   -7.1720    9.2860 C.3   310  SPO310      0.0297
     34  C32      -15.9990   -5.7160    9.0230 C.2   310  SPO310     -0.0342
     35  C33      -15.8400   -4.5760    9.8730 C.2   310  SPO310     -0.0478
     36  C34      -16.2380   -4.4930   11.3350 C.3   310  SPO310      0.0260
     37  C35      -15.2080   -3.2850    9.4110 C.3   310  SPO310      0.0263
     38  C36      -15.7650   -2.7590    8.0810 C.3   310  SPO310      0.0297
     39  C37      -14.9130   -1.5020    7.5430 C.2   310  SPO310     -0.0342
     40  C38      -14.3370   -0.3970    8.2340 C.2   310  SPO310     -0.0478
     41  C39      -13.5410    0.7270    7.5350 C.3   310  SPO310      0.0260
     42  C40      -14.4200   -0.1780    9.7910 C.3   310  SPO310      0.0260
@<TRIPOS>BOND
     1    41    40    1
     2    39    38    1
     3    39    40    2
     4    38    37    1
     5    40    42    1
     6    31    30    1
     7    34    33    1
     8    34    35    2
     9    33    32    1
    10    37    35    1
    11    35    36    1
    12    30    32    1
    13    30    29    2
    14    26    25    1
    15    28    29    1
    16    28    27    2
    17    25    27    1
    18    25    24    2
    19    24    23    1
    20    23    22    2
    21    22    21    1
    22    21    19    2
    23    20    19    1
    24    19    18    1
    25    18    17    2
    26    17    16    1
    27    16    14    2
    28    15    14    1
    29    14    13    1
    30    13    12    1
    31    12    11    2
    32    11     9    1
    33    10     9    1
    34     9     8    1
    35     8     7    2
    36     7     6    1
    37     4     3    1
    38     1     2    1
    39     2     3    1
    40     3     6    1
    41     3     5    1
