@<TRIPOS>MOLECULE
1ysz_NEC_A_1.pdb
 22 24 0 0 0
SMALL
GASTEIGER

@<TRIPOS>ATOM
      1  C5'       44.7930   34.9480   38.3070 C.2   338  NEC338      0.2714
      2  O5'       44.9650   34.3590   37.0210 O.2   338  NEC338     -0.2706
      3  N5'       43.9960   36.1360   38.4770 N.am  338  NEC338     -0.2033
      4  C51       43.8060   37.0530   37.3800 C.3   338  NEC338      0.1153
      5  C52       44.4200   38.3960   37.7650 C.3   338  NEC338      0.0253
      6  C4'       45.3830   34.3460   39.5600 C.3   338  NEC338      0.2293
      7  O4'       44.3880   33.6290   40.2370 O.3   338  NEC338     -0.3067
      8  C3'       46.5310   33.3590   39.3700 C.3   338  NEC338      0.2249
      9  O3'       47.8020   33.9680   39.3790 O.3   338  NEC338     -0.2170
     10  C2'       46.2870   32.3470   40.5010 C.3   338  NEC338      0.2574
     11  O2'       46.8990   32.7970   41.6960 O.3   338  NEC338     -0.2130
     12  C1'       44.7380   32.2630   40.5720 C.3   338  NEC338      0.3190
     13  N9        44.2890   31.2310   39.5790 N.pl3 338  NEC338     -0.1438
     14  C8        43.6530   31.4120   38.3570 C.3   338  NEC338      0.3377
     15  N7        43.3980   30.2780   37.7390 N.2   338  NEC338     -0.2095
     16  C5        43.8770   29.2930   38.6080 C.2   338  NEC338      0.2526
     17  C6        43.9030   27.8490   38.5550 C.2   338  NEC338      0.4393
     18  N6        43.4030   27.1540   37.5250 N.pl3 338  NEC338      0.2180
     19  N1        44.4510   27.1550   39.6090 N.2   338  NEC338      0.0021
     20  C2        44.9590   27.8440   40.6580 C.3   338  NEC338      0.5254
     21  N3        45.0020   29.1890   40.8250 N.2   338  NEC338     -0.0055
     22  C4        44.4410   29.8670   39.7520 C.2   338  NEC338      0.3518
@<TRIPOS>BOND
     1     2     1    2
     2     4     5    1
     3     4     3    1
     4    18    17    1
     5    15    14    1
     6    15    16    2
     7     1     3   am
     8     1     6    1
     9    14    13    1
    10    17    16    1
    11    17    19    2
    12    16    22    1
    13     8     9    1
    14     8     6    1
    15     8    10    1
    16     6     7    1
    17    13    22    1
    18    13    12    1
    19    19    20    1
    20    22    21    2
    21     7    12    1
    22    10    12    1
    23    10    11    1
    24    20    21    1
