@<TRIPOS>MOLECULE
1yt0_ADP_A_1.pdb
 27 29 0 0 0
SMALL
GASTEIGER

@<TRIPOS>ATOM
      1  PB        16.5960   34.8650   15.0050 P.3   339  ADP339      0.5373
      2  O1B       16.4510   33.4230   14.7000 O.3   339  ADP339     -0.1143
      3  O2B       16.9930   35.1300   16.5430 O.3   339  ADP339     -0.1143
      4  O3B       17.7390   35.5760   14.1220 O.2   339  ADP339     -0.2221
      5  PA        13.8360   35.0770   14.4030 P.3   339  ADP339      0.2231
      6  O1A       12.9140   36.1900   14.0840 O.3   339  ADP339     -0.4370
      7  O2A       14.0300   34.0080   13.3970 O.2   339  ADP339     -0.5169
      8  O3A       15.2630   35.7370   14.7510 O.3   339  ADP339     -0.2261
      9  O5'       13.3730   34.4030   15.7900 O.3   339  ADP339     -0.3111
     10  C5'       13.4080   35.1240   17.0250 C.3   339  ADP339      0.1813
     11  C4'       13.3890   34.1320   18.1890 C.3   339  ADP339      0.1821
     12  O4'       12.2100   33.3100   18.2100 O.3   339  ADP339     -0.3135
     13  C3'       14.5140   33.1150   17.9960 C.3   339  ADP339      0.2184
     14  O3'       15.7550   33.7180   18.3710 O.3   339  ADP339     -0.2174
     15  C2'       14.0800   32.1080   19.0580 C.3   339  ADP339      0.2570
     16  O2'       14.3670   32.6260   20.3600 O.3   339  ADP339     -0.2130
     17  C1'       12.5650   32.0610   18.8340 C.3   339  ADP339      0.3186
     18  N9        12.1750   30.9630   17.9190 N.pl3 339  ADP339     -0.1439
     19  C8        11.7020   31.1080   16.6810 C.3   339  ADP339      0.3377
     20  N7        11.4100   29.9180   16.1670 N.2   339  ADP339     -0.2095
     21  C5        11.7000   28.9970   17.0850 C.2   339  ADP339      0.2526
     22  C6        11.5980   27.6110   17.1130 C.2   339  ADP339      0.4393
     23  N6        11.1730   26.9370   16.0470 N.pl3 339  ADP339      0.2180
     24  N1        11.9930   26.9340   18.2750 N.2   339  ADP339      0.0021
     25  C2        12.4840   27.6640   19.3660 C.3   339  ADP339      0.5254
     26  N3        12.5690   28.9810   19.2950 N.2   339  ADP339     -0.0055
     27  C4        12.1910   29.6630   18.1990 C.2   339  ADP339      0.3518
@<TRIPOS>BOND
     1     7     5    2
     2     6     5    1
     3     4     1    2
     4     5     8    1
     5     5     9    1
     6     2     1    1
     7     8     1    1
     8     1     3    1
     9     9    10    1
    10    23    22    1
    11    20    19    1
    12    20    21    2
    13    19    18    1
    14    10    11    1
    15    21    22    1
    16    21    27    1
    17    22    24    2
    18    18    27    1
    19    18    17    1
    20    13    11    1
    21    13    14    1
    22    13    15    1
    23    11    12    1
    24    27    26    2
    25    12    17    1
    26    24    25    1
    27    17    15    1
    28    15    16    1
    29    26    25    1
