@<TRIPOS>MOLECULE
1yt7_3FC_A_1.pdb
 41 43 0 0 0
SMALL
GASTEIGER

@<TRIPOS>ATOM
      1  C1        19.3300   52.5070  199.5170 C.3   301  3FC301      0.0000
      2  C2        18.5390   53.8240  199.5290 C.3   301  3FC301      0.0001
      3  C3        17.4430   53.7640  200.5930 C.3   301  3FC301      0.0019
      4  C4        17.2690   55.1640  201.2140 C.3   301  3FC301      0.0249
      5  C5        16.3930   55.0900  202.4800 C.3   301  3FC301      0.1381
      6  N6        16.4730   53.7710  203.0110 N.am  301  3FC301     -0.1674
      7  C7        17.3310   53.4680  204.0220 C.2   301  3FC301      0.4211
      8  O8        18.1680   54.2930  204.4090 O.2   301  3FC301     -0.2246
      9  O9        17.2460   52.2730  204.5870 O.3   301  3FC301     -0.4368
     10  C10       17.9780   52.1410  205.7940 C.3   301  3FC301      0.1796
     11  C11       18.8080   50.8590  205.6800 C.3   301  3FC301      0.1305
     12  C12       19.9410   51.0820  204.7190 C.ar  301  3FC301      0.2301
     13  N13       19.8530   50.8590  203.3700 N.ar  301  3FC301     -0.1113
     14  N14       20.9630   51.1400  202.8650 N.ar  301  3FC301     -0.1072
     15  C15       21.7930   51.5120  203.8700 C.ar  301  3FC301      0.2496
     16  O16       21.1980   51.5470  205.1370 O.2   301  3FC301     -0.4194
     17  C17       23.1750   51.8200  203.6890 C.ar  301  3FC301      0.0551
     18  C18       23.9630   52.1020  204.8210 C.ar  301  3FC301      0.0046
     19  C19       25.3090   52.3310  204.6870 C.ar  301  3FC301      0.0040
     20  C20       25.9020   52.2990  203.4390 C.ar  301  3FC301      0.0714
     21  C21       25.1290   52.0360  202.2880 C.ar  301  3FC301      0.0040
     22  C22       23.7590   51.8000  202.4120 C.ar  301  3FC301      0.0046
     23  C23       27.3720   52.5490  203.3190 C.3   301  3FC301      0.4186
     24  F24       27.6930   52.8260  202.0220 F     301  3FC301     -0.1659
     25  F25       28.0430   51.4440  203.7230 F     301  3FC301     -0.1659
     26  F26       27.7180   53.5950  204.1100 F     301  3FC301     -0.1659
     27  C27       16.9850   51.9760  206.9830 C.3   301  3FC301      0.0375
     28  C28       16.0370   50.7920  206.6840 C.3   301  3FC301      0.0036
     29  C29       16.1670   53.2570  207.1760 C.3   301  3FC301      0.0036
     30  C30       17.7520   51.6840  208.2690 C.3   301  3FC301      0.0036
     31  C33       14.6500   56.5430  201.1440 C.2   301  3FC301      0.2937
     32  O34       15.2120   57.6210  201.3030 O.2   301  3FC301     -0.2687
     33  N35       13.7390   56.3810  200.1350 N.am  301  3FC301     -0.0891
     34  N36       13.7660   57.0920  199.0920 N.ar  301  3FC301     -0.1651
     35  C37       14.8410   57.0890  198.1800 C.ar  301  3FC301      0.1452
     36  C38       14.2770   58.0650  197.0740 C.ar  301  3FC301      0.2053
     37  O39       12.9540   58.4620  197.5850 O.2   301  3FC301     -0.4024
     38  C40       12.7900   57.8320  198.7420 C.ar  301  3FC301      0.4404
     39  O41       11.7780   57.9510  199.4260 O.2   301  3FC301     -0.2208
     40  C31       14.9770   55.3350  202.0590 C.3   301  3FC301      0.2505
     41  O32       14.0550   54.3550  202.2240 O.3   301  3FC301     -0.2112
@<TRIPOS>BOND
     1    36    37   ar
     2    36    35   ar
     3    37    38   ar
     4    35    34   ar
     5    38    34   ar
     6    38    39    2
     7    34    33    1
     8     1     2    1
     9     2     3    1
    10    33    31   am
    11     3     4    1
    12    31    32    2
    13    31    40    1
    14     4     5    1
    15    24    23    1
    16    40    41    1
    17    40     5    1
    18    21    22   ar
    19    21    20   ar
    20    22    17   ar
    21     5     6    1
    22    14    13   ar
    23    14    15   ar
    24     6     7   am
    25    23    20    1
    26    23    25    1
    27    23    26    1
    28    13    12   ar
    29    20    19   ar
    30    17    15    1
    31    17    18   ar
    32    15    16   ar
    33     7     8    2
    34     7     9    1
    35     9    10    1
    36    19    18   ar
    37    12    16   ar
    38    12    11    1
    39    11    10    1
    40    10    27    1
    41    28    27    1
    42    27    29    1
    43    27    30    1
