@<TRIPOS>MOLECULE
1yt9_OIS_A_1.pdb
 48 51 0 0 0
SMALL
GASTEIGER

@<TRIPOS>ATOM
      1  N6         6.3730   29.4830    8.2730 N.2   1000  OIS1000    -0.0278
      2  N1        15.2770   22.0870    5.0540 N.am  1000  OIS1000    -0.2026
      3  C2        14.3030   23.0320    5.6630 C.3   1000  OIS1000     0.1314
      4  N2        11.4640   24.3210    5.3300 N.3   1000  OIS1000    -0.1529
      5  N3        19.6790   17.7690    9.3510 N.2   1000  OIS1000    -0.4058
      6  C4        14.9740   23.6050    6.9410 C.3   1000  OIS1000     0.0506
      7  N4        16.8520   19.3490    5.2390 N.ar  1000  OIS1000    -0.2718
      8  C5        12.7340   25.0610    5.2490 C.3   1000  OIS1000     0.1304
      9  C6        16.3560   18.3530    6.2030 C.ar  1000  OIS1000     0.0989
     10  O1        14.9120   24.9260    4.2720 O.3   1000  OIS1000    -0.2197
     11  O2         9.7350   23.1750    6.7810 O.2   1000  OIS1000    -0.1528
     12  O3        11.7500   24.0110    7.8670 O.2   1000  OIS1000    -0.1528
     13  O4        13.7500   20.3470    4.9130 O.2   1000  OIS1000    -0.2713
     14  C1        14.8870   20.8020    4.7380 C.2   1000  OIS1000     0.2622
     15  C3        13.8230   24.1230    4.6640 C.3   1000  OIS1000     0.1897
     16  C7        10.6970   23.6990    3.0050 C.3   1000  OIS1000     0.0178
     17  C8        10.5340   24.6010    4.2430 C.3   1000  OIS1000     0.0958
     18  S1        10.6920   24.2350    6.9280 S.O2  1000  OIS1000     0.0634
     19  C11       15.4670   22.5430    7.8850 C.ar  1000  OIS1000    -0.0204
     20  C12       16.8390   22.4820    8.2150 C.ar  1000  OIS1000    -0.0042
     21  C13       17.3180   21.4890    9.0850 C.ar  1000  OIS1000    -0.0003
     22  C14       16.4460   20.5350    9.6420 C.ar  1000  OIS1000    -0.0000
     23  C15       15.0690   20.5820    9.3210 C.ar  1000  OIS1000    -0.0003
     24  C16       14.5850   21.5820    8.4460 C.ar  1000  OIS1000    -0.0042
     25  C17        9.6880   24.0850    1.9260 C.3   1000  OIS1000     0.0015
     26  C18       10.5030   22.2250    3.3860 C.3   1000  OIS1000     0.0015
     27  C19       16.0070   19.8880    4.1370 C.3   1000  OIS1000     0.1676
     28  C20       18.1460   19.6980    5.4850 C.ar  1000  OIS1000     0.3323
     29  C21       15.4000   18.7080    3.3060 C.3   1000  OIS1000     0.0299
     30  C22       14.5110   19.1900    2.1480 C.3   1000  OIS1000     0.0024
     31  C23       16.5090   17.8060    2.7270 C.3   1000  OIS1000     0.0024
     32  N5        18.5880   19.0060    6.5610 N.ar  1000  OIS1000    -0.2719
     33  O5        18.8230   20.5030    4.8510 O.2   1000  OIS1000    -0.2462
     34  C31       17.5590   18.1150    7.1140 C.ar  1000  OIS1000     0.0989
     35  C32        8.4480   25.8550    6.9890 C.ar  1000  OIS1000     0.0200
     36  C34        7.7120   26.9860    7.4070 C.ar  1000  OIS1000     0.0030
     37  C35        8.3140   27.9420    8.2650 C.ar  1000  OIS1000     0.0227
     38  C36        9.6530   27.7550    8.6980 C.ar  1000  OIS1000     0.0030
     39  C37       10.3850   26.6230    8.2800 C.ar  1000  OIS1000     0.0200
     40  C38        9.7840   25.6760    7.4280 C.ar  1000  OIS1000     0.1222
     41  C40        7.5860   29.1260    8.7280 C.2   1000  OIS1000     0.1449
     42  C10       19.9500   19.1240    7.1220 C.3   1000  OIS1000     0.1658
     43  C24       20.0250   18.9940    8.6170 C.2   1000  OIS1000     0.1210
     44  C9        20.4210   19.9790    9.4390 C.3   1000  OIS1000     0.1205
     45  C28       19.8350   17.9130   10.6740 C.2   1000  OIS1000     0.1344
     46  S2        20.4090   19.5340   11.1270 S.3   1000  OIS1000    -0.0795
     47  O7         5.7700   30.6300    8.7830 O.2   1000  OIS1000    -0.1431
     48  C25       19.5590   16.8170   11.7020 C.3   1000  OIS1000     0.0735
@<TRIPOS>BOND
     1    25    16    1
     2    30    29    1
     3    31    29    1
     4    16    26    1
     5    16    17    1
     6    29    27    1
     7    27    14    1
     8    27     7    1
     9    17     4    1
    10    10    15    1
    11    15     8    1
    12    15     3    1
    13    14    13    2
    14    14     2   am
    15    33    28    2
    16     2     3    1
    17     7    28   ar
    18     7     9   ar
    19     8     4    1
    20     4    18    1
    21    28    32   ar
    22     3     6    1
    23     9    34   ar
    24    32    34   ar
    25    32    42    1
    26    11    18    2
    27    18    40    1
    28    18    12    2
    29     6    19    1
    30    35    36   ar
    31    35    40   ar
    32    42    43    1
    33    36    37   ar
    34    40    39   ar
    35    19    20   ar
    36    19    24   ar
    37    20    21   ar
    38    37    38   ar
    39    37    41    1
    40     1    41    2
    41     1    47    1
    42    39    38   ar
    43    24    23   ar
    44    43     5    2
    45    43    44    1
    46    21    22   ar
    47    23    22   ar
    48     5    45    2
    49    44    46    1
    50    45    46    1
    51    45    48    1
