@<TRIPOS>MOLECULE
1ytc_HEM_A_1.pdb
 43 50 0 0 0
SMALL
GASTEIGER

@<TRIPOS>ATOM
      1 FE          2.3900   21.1320   13.4190 Fe    104  HEM104      0.0000
      2  CHA        4.6640   18.8560   14.5870 C.2   104  HEM104      0.0000
      3  CHB        3.5880   20.7740   10.2890 C.2   104  HEM104      0.0000
      4  CHC       -0.2050   22.9940   12.2060 C.2   104  HEM104      0.0000
      5  CHD        1.5250   21.9420   16.5580 C.2   104  HEM104      0.0000
      6  NA         3.8210   20.0430   12.6090 N.ar  104  HEM104      0.0000
      7  C1A        4.6660   19.1300   13.2040 C.ar  104  HEM104      0.0000
      8  C2A        5.5300   18.5280   12.2530 C.ar  104  HEM104      0.0000
      9  C3A        5.2510   19.0400   11.0370 C.ar  104  HEM104      0.0000
     10  C4A        4.1880   19.9870   11.2180 C.ar  104  HEM104      0.0000
     11  CMA        5.8650   18.7500    9.6470 C.3   104  HEM104      0.0000
     12  CAA        6.6140   17.4520   12.6140 C.3   104  HEM104      0.0000
     13  CBA        7.9610   18.2380   12.8530 C.3   104  HEM104      0.0000
     14  CGA        9.2140   17.3810   12.9980 C.2   104  HEM104      0.0000
     15  O1A       10.2600   18.0350   13.3390 O.co2 104  HEM104      0.0000
     16  O2A        9.1210   16.1740   12.7600 O.co2 104  HEM104      0.0000
     17  NB         1.7880   21.7750   11.5970 N.2   104  HEM104      0.0000
     18  C1B        2.4820   21.5570   10.4210 C.2   104  HEM104      0.0000
     19  C2B        1.8200   22.2680    9.3370 C.2   104  HEM104      0.0000
     20  C3B        0.7730   22.8840    9.8670 C.2   104  HEM104      0.0000
     21  C4B        0.7200   22.5820   11.3110 C.2   104  HEM104      0.0000
     22  CMB        2.3380   22.2640    7.8720 C.3   104  HEM104      0.0000
     23  CAB       -0.3040   23.7520    9.1490 C.3   104  HEM104      0.0000
     24  CBB       -1.1910   22.8890    8.2190 C.3   104  HEM104      0.0000
     25  NC         0.9370   22.2050   14.2460 N.ar  104  HEM104      0.0000
     26  C1C       -0.0190   22.9710   13.5740 C.ar  104  HEM104      0.0000
     27  C2C       -0.8120   23.7290   14.5160 C.ar  104  HEM104      0.0000
     28  C3C       -0.3460   23.4340   15.7530 C.ar  104  HEM104      0.0000
     29  C4C        0.7640   22.5190   15.5910 C.ar  104  HEM104      0.0000
     30  CMC       -1.9470   24.6950   14.1250 C.3   104  HEM104      0.0000
     31  CAC       -0.7420   24.0660   17.1030 C.3   104  HEM104      0.0000
     32  CBC       -2.2480   24.1220   17.4500 C.3   104  HEM104      0.0000
     33  ND         2.9870   20.5110   15.2630 N.2   104  HEM104      0.0000
     34  C1D        2.4620   20.9660   16.4300 C.2   104  HEM104      0.0000
     35  C2D        3.0970   20.2250   17.5520 C.2   104  HEM104      0.0000
     36  C3D        3.9770   19.4040   16.9720 C.2   104  HEM104      0.0000
     37  C4D        3.8970   19.5470   15.5350 C.2   104  HEM104      0.0000
     38  CMD        2.7520   20.4830   19.0340 C.3   104  HEM104      0.0000
     39  CAD        4.8920   18.3560   17.6760 C.3   104  HEM104      0.0000
     40  CBD        4.0580   17.0330   17.7740 C.3   104  HEM104      0.0000
     41  CGD        4.6330   15.8590   18.5380 C.2   104  HEM104      0.0000
     42  O1D        5.7050   15.9770   19.1570 O.co2 104  HEM104      0.0000
     43  O2D        3.9460   14.8040   18.4930 O.co2 104  HEM104      0.0000
@<TRIPOS>BOND
     1    22    19    1
     2    24    23    1
     3    23    20    1
     4    19    20    2
     5    19    18    1
     6    11     9    1
     7    20    21    1
     8     3    18    1
     9     3    10    2
    10    18    17    2
    11     9    10   ar
    12     9     8   ar
    13    10     6   ar
    14    21    17    1
    15    21     4    2
    16    17     1    1
    17     4    26    1
    18     8    12    1
    19     8     7   ar
    20     6     7   ar
    21     6     1    1
    22    12    13    1
    23    16    14   ar
    24    13    14    1
    25    14    15   ar
    26     7     2    2
    27     1    25    1
    28     1    33    1
    29    26    25   ar
    30    26    27   ar
    31    30    27    1
    32    25    29   ar
    33    27    28   ar
    34     2    37    1
    35    33    37    2
    36    33    34    1
    37    37    36    1
    38    29    28   ar
    39    29     5    1
    40    28    31    1
    41    34     5    2
    42    34    35    1
    43    36    35    2
    44    36    39    1
    45    31    32    1
    46    35    38    1
    47    39    40    1
    48    40    41    1
    49    43    41   ar
    50    41    42   ar
