@<TRIPOS>MOLECULE
1yte_PCP_A_1.pdb
 22 22 0 0 0
SMALL
GASTEIGER

@<TRIPOS>ATOM
      1  C1        81.3940   65.6580   30.0880 C.3   401  PCP401      0.1547
      2  C2        81.0710   64.2180   29.6430 C.3   401  PCP401      0.2094
      3  C3        82.2010   63.3270   30.2260 C.3   401  PCP401      0.1870
      4  C4        83.4140   64.2490   30.4610 C.3   401  PCP401      0.0658
      5  C5        82.7960   65.6030   30.5540 C.3   401  PCP401      0.0379
      6  CP        84.4840   64.1800   29.3570 C.3   401  PCP401      0.1564
      7  O1        80.6180   66.0310   31.3270 O.3   401  PCP401     -0.3136
      8  O2        79.7740   63.8200   30.1230 O.3   401  PCP401     -0.2178
      9  O3        81.8800   62.7050   31.4740 O.3   401  PCP401     -0.2202
     10  OP        83.9360   64.5310   28.0670 O.3   401  PCP401     -0.2702
     11  P         84.8060   64.6530   26.7440 P.3   401  PCP401      0.5326
     12  O1P       84.0860   63.9180   25.6960 O.2   401  PCP401     -0.2224
     13  O2P       86.1120   64.0510   27.0460 O.3   401  PCP401     -0.1145
     14  O3P       84.8970   66.1050   26.4700 O.3   401  PCP401     -0.1145
     15  PA        80.6500   67.4180   32.0860 P.3   401  PCP401      0.2230
     16  O1A       80.4540   68.4920   31.0440 O.2   401  PCP401     -0.5169
     17  O2A       81.9930   67.5340   32.7550 O.3   401  PCP401     -0.4370
     18  O3A       79.4750   67.2370   33.0280 O.3   401  PCP401     -0.2261
     19  PB        78.2910   66.2820   33.0520 P.3   401  PCP401      0.5373
     20  O1B       77.3190   66.6430   34.1190 O.3   401  PCP401     -0.1143
     21  O2B       78.7110   64.9200   33.3060 O.3   401  PCP401     -0.1143
     22  O3B       77.5840   66.2650   31.7340 O.2   401  PCP401     -0.2221
@<TRIPOS>BOND
     1    12    11    2
     2    14    11    1
     3    11    13    1
     4    11    10    1
     5    10     6    1
     6     6     4    1
     7     2     1    1
     8     2     8    1
     9     2     3    1
    10     1     5    1
    11     1     7    1
    12     3     4    1
    13     3     9    1
    14     4     5    1
    15    16    15    2
    16     7    15    1
    17    22    19    2
    18    15    17    1
    19    15    18    1
    20    18    19    1
    21    19    21    1
    22    19    20    1
