@<TRIPOS>MOLECULE
1ytg_III_I_1.pdb
 23 23 0 0 0
SMALL
GASTEIGER

@<TRIPOS>ATOM
      1  N          7.5740   -8.4280   16.3520 N.3     1  PRO1       -0.2102
      2  CA         6.4140   -7.9060   17.0770 C.3     1  PRO1        0.1504
      3  C          6.8630   -6.4700   17.3990 C.2     1  PRO1        0.2576
      4  O          7.3210   -6.0720   18.4650 O.2     1  PRO1       -0.2718
      5  CB         6.2550   -8.8670   18.2420 C.3     1  PRO1        0.0282
      6  CG         7.6060   -9.6080   18.3220 C.3     1  PRO1        0.0208
      7  CD         8.0220   -9.7060   16.8710 C.3     1  PRO1        0.0893
      8  N          7.0050   -5.7760   16.2830 N.am    2  ILE2       -0.1966
      9  CA         7.3810   -4.3920   16.2450 C.3     2  ILE2        0.1727
     10  C          6.2020   -3.9240   15.4070 C.2     2  ILE2        0.2616
     11  O          6.1360   -4.2340   14.2040 O.2     2  ILE2       -0.2715
     12  CB         8.7560   -4.2190   15.5060 C.3     2  ILE2        0.0290
     13  CG1        9.8700   -4.5390   16.4820 C.3     2  ILE2        0.0022
     14  CG2        8.9460   -2.8130   14.9520 C.3     2  ILE2        0.0023
     15  CD1       10.2270   -6.0270   16.6990 C.3     2  ILE2        0.0001
     16  N          5.2000   -3.2670   15.9900 N.am    3  VAL3       -0.1963
     17  CA         4.1910   -2.7340   15.0940 C.3     3  VAL3        0.1743
     18  C          4.5340   -1.2720   14.6760 C.2     3  VAL3        0.2806
     19  O          4.5320   -0.9220   13.4810 O.2     3  VAL3       -0.2698
     20  CB         2.8620   -2.8630   15.7950 C.3     3  VAL3        0.0290
     21  CG1        1.8350   -2.7280   14.7080 C.3     3  VAL3        0.0023
     22  CG2        2.6020   -4.2300   16.3960 C.3     3  VAL3        0.0023
     23  N          4.9850   -0.2760   15.6270 N.am    4  NH24       -0.0863
@<TRIPOS>BOND
     1    19    18    2
     2    11    10    2
     3    18    17    1
     4    18    23   am
     5    21    20    1
     6    14    12    1
     7    17    20    1
     8    17    16    1
     9    10    16   am
    10    10     9    1
    11    12     9    1
    12    12    13    1
    13    20    22    1
    14     9     8    1
    15     8     3   am
    16     1     7    1
    17     1     2    1
    18    13    15    1
    19     7     6    1
    20     2     3    1
    21     2     5    1
    22     3     4    2
    23     5     6    1
