@<TRIPOS>MOLECULE
1yth_III_I_1.pdb
 37 37 0 0 0
SMALL
GASTEIGER

@<TRIPOS>ATOM
      1  C          2.3810    7.1440    5.5120 C.2     0  ACE0        0.2423
      2  O          1.4860    7.1770    4.6660 O.2     0  ACE0       -0.2733
      3  CH3        3.6600    7.9410    5.3100 C.3     0  ACE0        0.0964
      4  N          2.3470    6.4900    6.6900 N.am    1  SER1       -0.1950
      5  CA         1.3370    5.6030    7.2570 C.3     1  SER1        0.2054
      6  C          2.1680    4.3770    7.6190 C.2     1  SER1        0.2643
      7  O          2.1560    3.3150    6.9570 O.2     1  SER1       -0.2714
      8  CB         0.2850    5.1600    6.2810 C.3     1  SER1        0.2130
      9  OG        -0.6960    4.8040    7.2140 O.3     1  SER1       -0.2179
     10  N          2.9570    4.5470    8.6750 N.am    2  LEU2       -0.1963
     11  CA         3.8980    3.5050    9.0200 C.3     2  LEU2        0.1728
     12  C          3.5750    3.1570   10.4140 C.2     2  LEU2        0.2616
     13  O          3.3080    4.0540   11.1910 O.2     2  LEU2       -0.2715
     14  CB         5.3040    3.9900    8.9310 C.3     2  LEU2        0.0311
     15  CG         5.6760    4.2810    7.4720 C.3     2  LEU2        0.0022
     16  CD1        7.0380    4.9410    7.4630 C.3     2  LEU2        0.0001
     17  CD2        5.6130    3.0030    6.6200 C.3     2  LEU2        0.0001
     18  N          3.5440    1.8730   10.7190 N.am    3  ASN3       -0.1958
     19  CA         3.0550    1.4030   11.9880 C.3     3  ASN3        0.1819
     20  C          3.9740    0.3210   12.5180 C.2     3  ASN3        0.2622
     21  O          3.8530   -0.8600   12.1110 O.2     3  ASN3       -0.2715
     22  CB         1.6470    0.8650   11.7860 C.3     3  ASN3        0.1195
     23  CG         0.7420    1.9920   11.2940 C.2     3  ASN3        0.2630
     24  OD1        0.3100    2.8600   12.0490 O.2     3  ASN3       -0.2716
     25  ND2        0.4980    2.1210    9.9990 N.am    3  ASN3       -0.0877
     26  N          4.8940    0.7460   13.3940 N.am    4  PHE4       -0.1938
     27  CA         5.8500   -0.1580   14.0270 C.3     4  PHE4        0.2021
     28  C          5.3770   -0.4590   15.4270 C.2     4  PHE4        0.3845
     29  O          6.1510   -0.9220   16.2670 O.co2   4  PHE4       -0.2437
     30  CB         7.2250    0.4860   14.0570 C.3     4  PHE4        0.0596
     31  CG         7.6790    0.8360   12.6620 C.ar    4  PHE4       -0.0199
     32  CD1        7.9860   -0.1900   11.7570 C.ar    4  PHE4       -0.0042
     33  CD2        7.7700    2.1790   12.2750 C.ar    4  PHE4       -0.0042
     34  CE1        8.3810    0.1280   10.4700 C.ar    4  PHE4       -0.0003
     35  CE2        8.1680    2.4860   10.9730 C.ar    4  PHE4       -0.0003
     36  CZ         8.4710    1.4590   10.0820 C.ar    4  PHE4       -0.0000
     37  OXT        4.1850   -0.3300   15.6640 O.co2   4  PHE4       -0.2437
@<TRIPOS>BOND
     1     2     1    2
     2     3     1    1
     3     1     4   am
     4     8     9    1
     5     8     5    1
     6    17    15    1
     7     4     5    1
     8     7     6    2
     9     5     6    1
    10    16    15    1
    11    15    14    1
    12     6    10   am
    13    10    11    1
    14    14    11    1
    15    11    12    1
    16    25    23   am
    17    36    34   ar
    18    36    35   ar
    19    12    18   am
    20    12    13    2
    21    34    32   ar
    22    18    19    1
    23    35    33   ar
    24    23    22    1
    25    23    24    2
    26    32    31   ar
    27    22    19    1
    28    19    20    1
    29    21    20    2
    30    33    31   ar
    31    20    26   am
    32    31    30    1
    33    26    27    1
    34    27    30    1
    35    27    28    1
    36    28    37   ar
    37    28    29   ar
