@<TRIPOS>MOLECULE
1yti_III_I_1.pdb
 38 38 0 0 0
SMALL
GASTEIGER

@<TRIPOS>ATOM
      1  N        -19.5460   -1.5900    0.2490 N.3   101  PHE101     -0.1227
      2  CA       -19.8100   -2.9310   -0.2170 C.3   101  PHE101      0.1736
      3  C        -20.7860   -2.6860   -1.3540 C.2   101  PHE101      0.2595
      4  O        -21.7070   -1.8970   -1.1470 O.2   101  PHE101     -0.2718
      5  CB       -20.4830   -3.8010    0.8500 C.3   101  PHE101      0.0547
      6  CG       -20.8710   -5.1740    0.3070 C.ar  101  PHE101     -0.0202
      7  CD1      -19.9080   -6.0060   -0.2550 C.ar  101  PHE101     -0.0042
      8  CD2      -22.2090   -5.5550    0.2930 C.ar  101  PHE101     -0.0042
      9  CE1      -20.2920   -7.2080   -0.8400 C.ar  101  PHE101     -0.0003
     10  CE2      -22.5900   -6.7610   -0.2960 C.ar  101  PHE101     -0.0003
     11  CZ       -21.6280   -7.5810   -0.8630 C.ar  101  PHE101     -0.0000
     12  N        -20.4760   -3.2760   -2.5150 N.am  102  LEU102     -0.1966
     13  CA       -21.2480   -3.2450   -3.7580 C.3   102  LEU102      0.1728
     14  C        -21.0640   -4.6130   -4.3840 C.2   102  LEU102      0.2616
     15  O        -19.9300   -5.0980   -4.3980 O.2   102  LEU102     -0.2715
     16  CB       -20.7020   -2.2740   -4.7640 C.3   102  LEU102      0.0311
     17  CG       -21.4900   -1.0580   -5.1650 C.3   102  LEU102      0.0022
     18  CD1      -21.6700   -0.1130   -3.9870 C.3   102  LEU102      0.0001
     19  CD2      -20.7370   -0.3690   -6.2840 C.3   102  LEU102      0.0001
     20  N        -22.1010   -5.2660   -4.8790 N.am  103  GLU103     -0.1963
     21  CA       -21.9400   -6.5070   -5.6200 C.3   103  GLU103      0.1733
     22  C        -23.0920   -6.6830   -6.5970 C.2   103  GLU103      0.2617
     23  O        -24.1070   -5.9950   -6.4980 O.2   103  GLU103     -0.2715
     24  CB       -21.9070   -7.6960   -4.6930 C.3   103  GLU103      0.0429
     25  CG       -23.1970   -7.7740   -3.9420 C.3   103  GLU103      0.1163
     26  CD       -23.5470   -9.1470   -3.4410 C.2   103  GLU103      0.3649
     27  OE1      -22.6590   -9.9440   -3.1200 O.co2 103  GLU103     -0.2457
     28  OE2      -24.7460   -9.3940   -3.3680 O.co2 103  GLU103     -0.2457
     29  N        -22.8990   -7.5990   -7.5250 N.am  104  LYS104     -0.1942
     30  CA       -23.8650   -7.9150   -8.5530 C.3   104  LYS104      0.1978
     31  C        -24.4680   -9.2610   -8.2040 C.2   104  LYS104      0.3842
     32  O        -23.7190  -10.1140   -7.7030 O.co2 104  LYS104     -0.2437
     33  CB       -23.2190   -8.0680   -9.8960 C.3   104  LYS104      0.0333
     34  CG       -22.8600   -6.8350  -10.6580 C.3   104  LYS104      0.0039
     35  CD       -22.2640   -7.4100  -11.9210 C.3   104  LYS104      0.0206
     36  CE       -22.5190   -6.3810  -12.9630 C.3   104  LYS104      0.1093
     37  NZ       -22.0780   -6.9230  -14.2120 N.3   104  LYS104     -0.1314
     38  OXT      -25.6590   -9.4400   -8.4630 O.co2 104  LYS104     -0.2437
@<TRIPOS>BOND
     1    37    36    1
     2    36    35    1
     3    35    34    1
     4    34    33    1
     5    33    30    1
     6    30    31    1
     7    30    29    1
     8    38    31   ar
     9    31    32   ar
    10    29    22   am
    11    22    23    2
    12    22    21    1
    13    19    17    1
    14    21    20    1
    15    21    24    1
    16    17    16    1
    17    17    18    1
    18    20    14   am
    19    16    13    1
    20    24    25    1
    21    15    14    2
    22    14    13    1
    23    25    26    1
    24    13    12    1
    25    26    28   ar
    26    26    27   ar
    27    12     3   am
    28     3     4    2
    29     3     2    1
    30    11     9   ar
    31    11    10   ar
    32     9     7   ar
    33    10     8   ar
    34     7     6   ar
    35     2     1    1
    36     2     5    1
    37     8     6   ar
    38     6     5    1
