@<TRIPOS>MOLECULE
1ytj_III_I_1.pdb
 33 33 0 0 0
SMALL
GASTEIGER

@<TRIPOS>ATOM
      1  N        -18.3060   -0.6440   -0.4890 N.3   104  PHE104     -0.1227
      2  CA       -18.6660   -2.0460   -0.6000 C.3   104  PHE104      0.1736
      3  C        -19.8140   -2.0940   -1.5850 C.2   104  PHE104      0.2595
      4  O        -20.6430   -1.2000   -1.5070 O.2   104  PHE104     -0.2718
      5  CB       -19.1450   -2.6820    0.7560 C.3   104  PHE104      0.0547
      6  CG       -19.8100   -4.0500    0.5730 C.ar  104  PHE104     -0.0201
      7  CD1      -19.1400   -5.1370    0.0100 C.ar  104  PHE104     -0.0025
      8  CD2      -21.1580   -4.1670    0.8530 C.ar  104  PHE104     -0.0025
      9  CE1      -19.8260   -6.3160   -0.2920 C.ar  104  PHE104      0.0237
     10  CE2      -21.8360   -5.3370    0.5540 C.ar  104  PHE104      0.0237
     11  CZ       -21.1970   -6.4310   -0.0380 C.ar  104  PHE104      0.1429
     12  N1       -22.0030   -7.6140   -0.5230 N.pl3 104  PHE104      0.0577
     13  O1       -23.1900   -7.5010   -0.3690 O.2   104  PHE104     -0.1261
     14  O2       -21.3690   -8.5230   -0.9970 O.2   104  PHE104     -0.1261
     15  N        -19.7740   -3.0480   -2.5100 N.am  105  GLU105     -0.1965
     16  CA       -20.8620   -3.3730   -3.4020 C.3   105  GLU105      0.1733
     17  C        -20.4890   -4.7210   -4.0050 C.2   105  GLU105      0.2616
     18  O        -19.3010   -5.0280   -4.0800 O.2   105  GLU105     -0.2715
     19  CB       -21.0270   -2.3050   -4.4930 C.3   105  GLU105      0.0429
     20  CG       -20.0880   -2.1700   -5.6860 C.3   105  GLU105      0.1163
     21  CD       -20.1630   -3.3140   -6.6740 C.2   105  GLU105      0.3649
     22  OE1      -21.1710   -3.4770   -7.3430 O.co2 105  GLU105     -0.2457
     23  OE2      -19.2280   -4.0970   -6.7220 O.co2 105  GLU105     -0.2457
     24  N        -21.4100   -5.5370   -4.4950 N.am  106  ALA106     -0.1963
     25  CA       -21.1440   -6.8210   -5.1460 C.3   106  ALA106      0.1728
     26  C        -22.4730   -7.3150   -5.7300 C.2   106  ALA106      0.2616
     27  O        -23.4230   -6.5300   -5.7610 O.2   106  ALA106     -0.2715
     28  CB       -20.6400   -7.8270   -4.1240 C.3   106  ALA106      0.0334
     29  N        -22.6310   -8.5390   -6.2190 N.am  107  LEU107     -0.1977
     30  CA       -23.9110   -9.0690   -6.6830 C.3   107  LEU107      0.1597
     31  C        -23.8400  -10.5840   -6.4860 C.2   107  LEU107      0.2287
     32  O        -24.7980  -11.1510   -5.9620 O.2   107  LEU107     -0.2864
     33  CB       -24.1390   -8.7880   -8.1720 C.3   107  LEU107      0.0319
@<TRIPOS>BOND
     1    33    30    1
     2    22    21   ar
     3    23    21   ar
     4    30    31    1
     5    30    29    1
     6    21    20    1
     7    31    32    2
     8    29    26   am
     9    27    26    2
    10    26    25    1
    11    20    19    1
    12    25    24    1
    13    25    28    1
    14    24    17   am
    15    19    16    1
    16    18    17    2
    17    17    16    1
    18    16    15    1
    19    15     3   am
    20     3     4    2
    21     3     2    1
    22    14    12    2
    23     2     1    1
    24     2     5    1
    25    12    13    2
    26    12    11    1
    27     9    11   ar
    28     9     7   ar
    29    11    10   ar
    30     7     6   ar
    31    10     8   ar
    32     6     5    1
    33     6     8   ar
