@<TRIPOS>MOLECULE
1ytk_NCN_A_1.pdb
 22 23 0 0 0
SMALL
GASTEIGER

@<TRIPOS>ATOM
      1  P         84.5760   64.6200   26.8590 P.3   401  NCN401      0.5327
      2  O1P       84.1640   64.0520   25.5330 O.2   401  NCN401     -0.2224
      3  O2P       85.5380   63.6920   27.5190 O.3   401  NCN401     -0.1145
      4  O3P       83.2770   64.8590   27.8050 O.3   401  NCN401     -0.1145
      5  O5'       85.3450   66.0060   26.6180 O.3   401  NCN401     -0.2675
      6  C5'       84.5420   67.0110   26.0220 C.3   401  NCN401      0.1859
      7  C4'       84.4640   68.1820   26.8700 C.3   401  NCN401      0.1801
      8  O4'       85.8080   68.9180   27.0400 O.3   401  NCN401     -0.3327
      9  C3'       83.4800   69.1540   26.2650 C.3   401  NCN401      0.2158
     10  O3'       82.5150   69.5950   27.2470 O.3   401  NCN401     -0.2175
     11  C2'       84.3090   70.3090   25.6940 C.3   401  NCN401      0.2309
     12  O2'       83.6890   71.5740   26.0130 O.3   401  NCN401     -0.2158
     13  C1'       85.7220   70.1110   26.2800 C.3   401  NCN401      0.2263
     14  N1        86.9110   70.3690   25.3310 N.pl3 401  NCN401     -0.2787
     15  C6        88.0960   69.5240   25.2380 C.3   401  NCN401      0.1195
     16  C5        89.0630   69.9820   24.2840 C.2   401  NCN401     -0.0044
     17  C4        88.9460   71.1520   23.4400 C.2   401  NCN401      0.0050
     18  C3        87.6740   71.9070   23.6390 C.2   401  NCN401      0.0940
     19  C2        86.7050   71.5230   24.5620 C.2   401  NCN401      0.0699
     20  C7        87.6450   73.1210   22.6640 C.2   401  NCN401      0.3890
     21  O7        88.4770   73.4590   21.8640 O.co2 401  NCN401     -0.2405
     22  O8        86.4920   73.7810   22.8340 O.co2 401  NCN401     -0.2405
@<TRIPOS>BOND
     1    21    20   ar
     2    20    22   ar
     3    20    18    1
     4    17    18    1
     5    17    16    2
     6    18    19    2
     7    16    15    1
     8    19    14    1
     9    15    14    1
    10    14    13    1
    11     2     1    2
    12    11    12    1
    13    11     9    1
    14    11    13    1
    15     6     5    1
    16     6     7    1
    17     9     7    1
    18     9    10    1
    19    13     8    1
    20     5     1    1
    21     1     3    1
    22     1     4    1
    23     7     8    1
