@<TRIPOS>MOLECULE
1ytm_ATP_A_1.pdb
 31 33 0 0 0
SMALL
GASTEIGER

@<TRIPOS>ATOM
      1  PG        69.2570   20.4260   21.1300 P.3   541  ATP541      0.5373
      2  O1G       70.1280   20.4950   19.9550 O.2   541  ATP541     -0.2221
      3  O2G       69.9240   20.7360   22.4060 O.3   541  ATP541     -0.1143
      4  O3G       68.4490   19.1960   21.2460 O.3   541  ATP541     -0.1143
      5  PB        66.9650   21.9950   20.0010 P.3   541  ATP541      0.2277
      6  O1B       67.3770   23.0130   19.0160 O.2   541  ATP541     -0.5168
      7  O2B       66.3330   20.8030   19.4600 O.3   541  ATP541     -0.4368
      8  O3B       68.2060   21.7370   21.0810 O.3   541  ATP541     -0.2258
      9  PA        64.3450   22.2900   21.1720 P.3   541  ATP541      0.2189
     10  O1A       63.6190   22.5630   19.8990 O.2   541  ATP541     -0.5170
     11  O2A       64.2230   20.9650   21.8420 O.3   541  ATP541     -0.4371
     12  O3A       65.9470   22.7180   21.0340 O.3   541  ATP541     -0.2700
     13  O5'       63.9930   23.3890   22.2590 O.3   541  ATP541     -0.3112
     14  C5'       63.6620   24.7720   22.0280 C.3   541  ATP541      0.1813
     15  C4'       63.0090   25.3270   23.2970 C.3   541  ATP541      0.1821
     16  O4'       62.6670   26.7130   23.1150 O.3   541  ATP541     -0.3135
     17  C3'       61.7200   24.5770   23.6760 C.3   541  ATP541      0.2184
     18  O3'       61.6410   24.5090   25.1230 O.3   541  ATP541     -0.2174
     19  C2'       60.6480   25.5230   23.1170 C.3   541  ATP541      0.2570
     20  O2'       59.3700   25.3760   23.7520 O.3   541  ATP541     -0.2130
     21  C1'       61.2470   26.8670   23.3710 C.3   541  ATP541      0.3186
     22  N9        60.7480   27.9590   22.4870 N.pl3 541  ATP541     -0.1439
     23  C8        60.1540   29.1270   22.9230 C.3   541  ATP541      0.3377
     24  N7        59.8120   29.9350   21.9630 N.2   541  ATP541     -0.2095
     25  C5        60.1910   29.2700   20.8010 C.2   541  ATP541      0.2526
     26  C6        60.1030   29.6100   19.4170 C.2   541  ATP541      0.4393
     27  N6        59.5580   30.7440   18.9930 N.pl3 541  ATP541      0.2180
     28  N1        60.5870   28.7090   18.5040 N.2   541  ATP541      0.0021
     29  C2        61.1400   27.5510   18.9320 C.3   541  ATP541      0.5254
     30  N3        61.2810   27.1230   20.2060 N.2   541  ATP541     -0.0055
     31  C4        60.7850   28.0550   21.1020 C.2   541  ATP541      0.3518
@<TRIPOS>BOND
     1    28    29    1
     2    28    26    2
     3    29    30    1
     4    27    26    1
     5     6     5    2
     6    26    25    1
     7     7     5    1
     8    10     9    2
     9     2     1    2
    10     5    12    1
    11     5     8    1
    12    30    31    2
    13    25    31    1
    14    25    24    2
    15    12     9    1
    16     8     1    1
    17    31    22    1
    18     1     4    1
    19     1     3    1
    20     9    11    1
    21     9    13    1
    22    24    23    1
    23    14    13    1
    24    14    15    1
    25    22    23    1
    26    22    21    1
    27    16    15    1
    28    16    21    1
    29    19    21    1
    30    19    17    1
    31    19    20    1
    32    15    17    1
    33    17    18    1
