@<TRIPOS>MOLECULE
1ytv_III_M_1.pdb
 42 41 0 0 0
SMALL
GASTEIGER

@<TRIPOS>ATOM
      1  N         59.9150   66.6520   -7.7860 N.3   381  ASN381     -0.1225
      2  CA        59.5060   67.2170   -6.5030 C.3   381  ASN381      0.1785
      3  C         59.3290   66.1830   -5.3970 C.2   381  ASN381      0.2598
      4  O         59.6190   66.4580   -4.2320 O.2   381  ASN381     -0.2718
      5  CB        58.2040   68.0120   -6.6650 C.3   381  ASN381      0.1169
      6  CG        58.3700   69.2310   -7.5560 C.2   381  ASN381      0.2627
      7  OD1       59.4380   69.8460   -7.5900 O.2   381  ASN381     -0.2716
      8  ND2       57.3060   69.5960   -8.2690 N.am  381  ASN381     -0.0877
      9  N         58.8400   65.0010   -5.7530 N.am  382  SER382     -0.1938
     10  CA        58.6370   63.9450   -4.7600 C.3   382  SER382      0.2055
     11  C         59.9600   63.5250   -4.1350 C.2   382  SER382      0.2644
     12  O         60.0080   63.1420   -2.9670 O.2   382  SER382     -0.2714
     13  CB        57.9690   62.7310   -5.4030 C.3   382  SER382      0.2130
     14  OG        56.6250   63.0280   -5.7360 O.3   382  SER382     -0.2179
     15  N         61.0230   63.5930   -4.9340 N.am  383  SER383     -0.1935
     16  CA        62.3690   63.2480   -4.4930 C.3   383  SER383      0.2055
     17  C         63.1550   64.5490   -4.3930 C.2   383  SER383      0.2644
     18  O         63.8710   64.9130   -5.3250 O.2   383  SER383     -0.2714
     19  CB        63.0640   62.3390   -5.5140 C.3   383  SER383      0.2130
     20  OG        62.3790   61.1190   -5.7050 O.3   383  SER383     -0.2179
     21  N         63.0100   65.2570   -3.2800 N.am  384  SER384     -0.1935
     22  CA        63.7280   66.5120   -3.0890 C.3   384  SER384      0.2055
     23  C         63.9000   66.8000   -1.6000 C.2   384  SER384      0.2643
     24  O         63.1510   66.2850   -0.7750 O.2   384  SER384     -0.2714
     25  CB        62.9740   67.6640   -3.7600 C.3   384  SER384      0.2130
     26  OG        63.6920   68.8760   -3.6440 O.3   384  SER384     -0.2179
     27  N         64.8920   67.6240   -1.2670 N.am  385  ASN385     -0.1957
     28  CA        65.1760   67.9850    0.1220 C.3   385  ASN385      0.1819
     29  C         65.5000   66.7330    0.9290 C.2   385  ASN385      0.2621
     30  O         64.6300   66.1620    1.5920 O.2   385  ASN385     -0.2715
     31  CB        63.9780   68.7070    0.7420 C.3   385  ASN385      0.1195
     32  CG        64.2000   69.0610    2.2030 C.2   385  ASN385      0.2630
     33  OD1       65.1000   69.8350    2.5400 O.2   385  ASN385     -0.2716
     34  ND2       63.3790   68.4900    3.0800 N.am  385  ASN385     -0.0877
     35  N         66.7620   66.3210    0.8720 N.am  386  ASN386     -0.1972
     36  CA        67.2230   65.1260    1.5700 C.3   386  ASN386      0.1688
     37  C         66.3730   63.9210    1.1940 C.2   386  ASN386      0.2292
     38  O         66.8110   63.1600    0.3070 O.2   386  ASN386     -0.2864
     39  CB        67.1770   65.3350    3.0860 C.3   386  ASN386      0.1181
     40  CG        68.1110   66.4250    3.5490 C.2   386  ASN386      0.2629
     41  OD1       69.3100   66.3880    3.2710 O.2   386  ASN386     -0.2716
     42  ND2       67.5710   67.4020    4.2680 N.am  386  ASN386     -0.0877
@<TRIPOS>BOND
     1     8     6   am
     2     1     2    1
     3     7     6    2
     4     6     5    1
     5     5     2    1
     6     2     3    1
     7     9     3   am
     8     9    10    1
     9    14    13    1
    10    20    19    1
    11    19    16    1
    12    13    10    1
    13     3     4    2
    14    18    17    2
    15    15    16    1
    16    15    11   am
    17    10    11    1
    18    16    17    1
    19    17    21   am
    20    11    12    2
    21    25    26    1
    22    25    22    1
    23    21    22    1
    24    22    23    1
    25    23    27   am
    26    23    24    2
    27    27    28    1
    28    28    31    1
    29    28    29    1
    30    38    37    2
    31    31    32    1
    32    35    29   am
    33    35    36    1
    34    29    30    2
    35    37    36    1
    36    36    39    1
    37    32    33    2
    38    32    34   am
    39    39    40    1
    40    41    40    2
    41    40    42   am
