@<TRIPOS>MOLECULE
1ytv_MAL_A_1.pdb
 22 23 0 0 0
SMALL
GASTEIGER

@<TRIPOS>ATOM
      1  C1        45.1750   61.9580    2.6090 C.3   401  MAL401      0.2695
      2  C2        46.4750   61.9810    3.4410 C.3   401  MAL401      0.2406
      3  C3        46.9460   63.4380    3.6020 C.3   401  MAL401      0.2198
      4  C4        47.2270   63.9540    2.1720 C.3   401  MAL401      0.2144
      5  C5        45.9590   63.8710    1.3060 C.3   401  MAL401      0.1835
      6  C6        46.2080   64.1260   -0.1850 C.3   401  MAL401      0.2142
      7  O1        44.1700   62.6670    3.3110 O.3   401  MAL401     -0.3257
      8  O2        46.1570   61.3740    4.6860 O.3   401  MAL401     -0.2149
      9  O3        48.1300   63.4740    4.4090 O.3   401  MAL401     -0.2174
     10  O4        47.6520   65.3370    2.2430 O.3   401  MAL401     -0.2176
     11  O5        45.3570   62.5530    1.3460 O.3   401  MAL401     -0.3256
     12  O6        44.9780   64.3390   -0.8530 O.3   401  MAL401     -0.2176
     13  C1'       40.2030   62.4150    4.5080 C.3   401  MAL401      0.1777
     14  C2'       41.1220   61.2150    4.7860 C.3   401  MAL401      0.2140
     15  C3'       42.6290   61.5650    4.7430 C.3   401  MAL401      0.2141
     16  C4'       42.8390   62.1330    3.3530 C.3   401  MAL401      0.1802
     17  C5'       41.9340   63.3380    3.1200 C.3   401  MAL401      0.1778
     18  C6'       42.1240   63.9110    1.6680 C.3   401  MAL401      0.2140
     19  O2'       40.9590   60.7100    6.0860 O.3   401  MAL401     -0.2176
     20  O3'       43.4440   60.4050    4.9910 O.3   401  MAL401     -0.2176
     21  O5'       40.4990   62.9930    3.2050 O.3   401  MAL401     -0.3482
     22  O6'       41.2070   65.0210    1.6580 O.3   401  MAL401     -0.2176
@<TRIPOS>BOND
     1    12     6    1
     2     6     5    1
     3     5    11    1
     4     5     4    1
     5    11     1    1
     6    22    18    1
     7    18    17    1
     8     4    10    1
     9     4     3    1
    10     1     7    1
    11     1     2    1
    12    17    21    1
    13    17    16    1
    14    21    13    1
    15     7    16    1
    16    16    15    1
    17     2     3    1
    18     2     8    1
    19     3     9    1
    20    13    14    1
    21    15    14    1
    22    15    20    1
    23    14    19    1
