@<TRIPOS>MOLECULE
1ytz_DR6_C_1.pdb
 27 27 0 0 0
SMALL
GASTEIGER

@<TRIPOS>ATOM
      1  CAA      100.7080   53.7360   50.4740 C.3   205  DR6205      0.0000
      2  CAT      101.3080   53.9680   49.0850 C.3   205  DR6205      0.0003
      3  CAS      101.4690   52.6320   48.3550 C.3   205  DR6205      0.0000
      4  CAZ      100.3320   54.8390   48.2930 C.3   205  DR6205      0.0000
      5  CAU      102.6480   54.7110   49.1530 C.3   205  DR6205      0.0040
      6  CAV      103.6690   54.1750   50.1650 C.3   205  DR6205      0.0189
      7  CAB      103.2090   54.4780   51.5950 C.3   205  DR6205      0.0044
      8  CBA      105.0050   54.8850   49.9290 C.3   205  DR6205      0.0044
      9  CAW      103.9100   52.6670   49.9860 C.ar  205  DR6205     -0.0226
     10  CAX      103.4310   51.7590   50.9230 C.ar  205  DR6205     -0.0012
     11  CAY      103.6180   50.3890   50.7380 C.ar  205  DR6205      0.0366
     12  CAC      104.5870   52.2000   48.8590 C.ar  205  DR6205     -0.0012
     13  CAD      104.7740   50.8330   48.6690 C.ar  205  DR6205      0.0366
     14  CAE      104.2830   49.9280   49.6060 C.ar  205  DR6205      0.1387
     15  OAF      104.3590   48.5910   49.3690 O.3   205  DR6205     -0.4727
     16  CAG      105.5560   48.0150   49.9150 C.3   205  DR6205      0.2373
     17  CAH      105.2990   46.5400   50.1850 C.3   205  DR6205      0.1894
     18  OAI      104.7450   45.8930   49.0280 O.3   205  DR6205     -0.3471
     19  CAJ      103.3090   45.9140   49.0690 C.3   205  DR6205      0.1743
     20  CAK      102.7760   44.5990   49.6170 C.3   205  DR6205      0.1742
     21  OAL      103.1990   44.3990   50.9740 O.3   205  DR6205     -0.3484
     22  CAM      103.0790   43.0040   51.2940 C.3   205  DR6205      0.1742
     23  CAN      102.7150   42.7970   52.7550 C.3   205  DR6205      0.1742
     24  OAO      103.7370   43.2620   53.6500 O.3   205  DR6205     -0.3483
     25  CAP      103.3130   42.9790   54.9930 C.3   205  DR6205      0.1777
     26  CAQ      104.3970   43.3460   56.0090 C.3   205  DR6205      0.2140
     27  OAR      105.5780   42.5800   55.7610 O.3   205  DR6205     -0.2176
@<TRIPOS>BOND
     1     4     2    1
     2     3     2    1
     3    13    12   ar
     4    13    14   ar
     5    12     9   ar
     6    18    19    1
     7    18    17    1
     8    19    20    1
     9     2     5    1
    10     2     1    1
    11     5     6    1
    12    15    14    1
    13    15    16    1
    14    14    11   ar
    15    20    21    1
    16    16    17    1
    17     8     6    1
    18     9     6    1
    19     9    10   ar
    20     6     7    1
    21    11    10   ar
    22    21    22    1
    23    22    23    1
    24    23    24    1
    25    24    25    1
    26    25    26    1
    27    27    26    1
