@<TRIPOS>MOLECULE
1yu9_GNP_A_1.pdb
 32 34 0 0 0
SMALL
GASTEIGER

@<TRIPOS>ATOM
      1  PG        43.4210   22.9220   34.1330 P.3   700  GNP700      0.4884
      2  O1G       42.2050   22.0610   34.3650 O.3   700  GNP700     -0.1240
      3  O2G       43.6380   23.2520   32.6780 O.2   700  GNP700     -0.2331
      4  O3G       44.5660   22.2100   34.8200 O.3   700  GNP700     -0.1240
      5  N3B       43.2380   24.3360   34.8990 N.3   700  GNP700     -0.0163
      6  PB        44.2600   25.5930   34.8950 P.3   700  GNP700      0.4669
      7  O1B       45.2910   25.3640   35.9270 O.3   700  GNP700     -0.1253
      8  O2B       44.7280   25.8290   33.5140 O.2   700  GNP700     -0.2351
      9  O3A       43.4430   26.8360   35.3510 O.3   700  GNP700     -0.2360
     10  PA        42.9380   28.0250   34.4770 P.3   700  GNP700      0.2220
     11  O1A       44.0870   28.7620   33.9120 O.3   700  GNP700     -0.4370
     12  O2A       41.9290   27.5600   33.4960 O.2   700  GNP700     -0.5170
     13  O5'       42.2330   28.9970   35.5040 O.3   700  GNP700     -0.3111
     14  C5'       41.2620   28.4570   36.4140 C.3   700  GNP700      0.1813
     15  C4'       40.3010   29.5090   36.9410 C.3   700  GNP700      0.1799
     16  O4'       40.9870   30.4830   37.7740 O.3   700  GNP700     -0.3326
     17  C3'       39.6290   30.3250   35.8570 C.3   700  GNP700      0.2158
     18  O3'       38.2910   30.6260   36.2650 O.3   700  GNP700     -0.2175
     19  C2'       40.5540   31.5380   35.7290 C.3   700  GNP700      0.2310
     20  O2'       39.9110   32.6870   35.2430 O.3   700  GNP700     -0.2158
     21  C1'       40.9650   31.7710   37.1720 C.3   700  GNP700      0.2293
     22  N9        42.2800   32.3620   37.4220 N.pl3 700  GNP700     -0.2354
     23  C8        43.4910   31.9080   36.9610 C.3   700  GNP700      0.2246
     24  N7        44.5080   32.6090   37.3840 N.2   700  GNP700     -0.2322
     25  C5        43.9400   33.5840   38.1820 C.2   700  GNP700      0.2182
     26  C6        44.5630   34.6240   38.9120 C.1   700  GNP700      0.2372
     27  O6        45.7780   34.8720   38.9870 O.2   700  GNP700     -0.2069
     28  N1        43.6420   35.3960   39.6240 N.2   700  GNP700     -0.2485
     29  C2        42.2760   35.1740   39.6050 C.1   700  GNP700      0.2531
     30  N2        41.5300   36.0230   40.3280 N.pl3 700  GNP700     -0.0226
     31  N3        41.6820   34.2030   38.9130 N.2   700  GNP700     -0.3074
     32  C4        42.5730   33.4440   38.2330 C.2   700  GNP700      0.2300
@<TRIPOS>BOND
     1     3     1    2
     2    12    10    2
     3     8     6    2
     4    11    10    1
     5     1     2    1
     6     1     4    1
     7     1     5    1
     8    10     9    1
     9    10    13    1
    10     6     5    1
    11     6     9    1
    12     6     7    1
    13    20    19    1
    14    13    14    1
    15    19    17    1
    16    19    21    1
    17    17    18    1
    18    17    15    1
    19    14    15    1
    20    15    16    1
    21    23    24    1
    22    23    22    1
    23    21    22    1
    24    21    16    1
    25    24    25    2
    26    22    32    1
    27    25    32    1
    28    25    26    1
    29    32    31    2
    30    26    27    2
    31    26    28    2
    32    31    29    2
    33    29    28    2
    34    29    30    1
