@<TRIPOS>MOLECULE
1yuc_EPH_A_1.pdb
 47 46 0 0 0
SMALL
GASTEIGER

@<TRIPOS>ATOM
      1  C1        55.3060    8.3660    6.4760 C.3   1001  EPH1001     0.2546
      2  C2        54.2560    7.9560    7.5170 C.3   1001  EPH1001     0.2420
      3  C4        57.7490    8.3070    6.3070 C.2   1001  EPH1001     0.3412
      4  O2        56.6050    8.4780    7.0340 O.3   1001  EPH1001    -0.4414
      5  O4        58.1090    9.1270    5.4840 O.2   1001  EPH1001    -0.2449
      6  C18       58.5640    7.0360    6.5650 C.2   1001  EPH1001     0.0773
      7  C19       59.4560    6.9410    7.8410 C.2   1001  EPH1001    -0.0195
      8  C20       59.4240    8.1880    8.7590 C.3   1001  EPH1001     0.0262
      9  C21       60.3360    8.0210    9.9870 C.3   1001  EPH1001     0.0047
     10  C22       59.6390    8.4110   11.3020 C.3   1001  EPH1001     0.0003
     11  C23       60.5330    9.3130   12.1740 C.3   1001  EPH1001     0.0000
     12  C24       59.8550    9.6980   13.5020 C.3   1001  EPH1001     0.0003
     13  C25       60.8440    9.6440   14.6810 C.3   1001  EPH1001     0.0047
     14  C26       60.1740   10.0210   16.0130 C.3   1001  EPH1001     0.0257
     15  C27       61.2060   10.2800   17.0920 C.2   1001  EPH1001    -0.0307
     16  C28       61.0490   10.2330   18.4350 C.2   1001  EPH1001    -0.0307
     17  C29       59.7960    9.9070   19.2220 C.3   1001  EPH1001     0.0257
     18  C30       58.9660   11.1710   19.4940 C.3   1001  EPH1001     0.0047
     19  C31       57.6870   10.8550   20.2850 C.3   1001  EPH1001     0.0003
     20  C32       56.8540   12.1190   20.5530 C.3   1001  EPH1001     0.0000
     21  C33       55.5690   11.8060   21.3350 C.3   1001  EPH1001     0.0000
     22  C34       54.7400   13.0680   21.5960 C.3   1001  EPH1001     0.0000
     23  C37       52.8440    8.4380    7.1610 C.3   1001  EPH1001     0.1964
     24  O5        52.7960    9.8600    7.1960 O.3   1001  EPH1001    -0.3100
     25  C3        55.0330    7.7370    9.8120 C.2   1001  EPH1001     0.3171
     26  O1        54.6580    8.5400    8.7630 O.3   1001  EPH1001    -0.4457
     27  O3        55.0590    6.5180    9.7880 O.2   1001  EPH1001    -0.2501
     28  C5        55.4120    8.6160   11.0000 C.3   1001  EPH1001     0.1096
     29  C6        55.7880    7.8440   12.2740 C.3   1001  EPH1001     0.0117
     30  C7        55.0230    8.3730   13.4970 C.3   1001  EPH1001     0.0009
     31  C8        55.1170    7.4190   14.6980 C.3   1001  EPH1001     0.0047
     32  C9        55.9390    8.0250   15.8490 C.3   1001  EPH1001     0.0257
     33  C10       55.1890    7.9550   17.2030 C.2   1001  EPH1001    -0.0307
     34  C11       54.4560    9.2580   17.6570 C.2   1001  EPH1001    -0.0304
     35  C12       54.5640   10.4610   16.6940 C.3   1001  EPH1001     0.0303
     36  C13       55.6480   11.4500   17.1320 C.3   1001  EPH1001     0.0303
     37  C14       55.3310   12.8340   16.6320 C.2   1001  EPH1001    -0.0304
     38  C15       55.8990   13.4930   15.6070 C.2   1001  EPH1001    -0.0307
     39  C16       57.0020   13.0250   14.6880 C.3   1001  EPH1001     0.0257
     40  C17       58.0810   14.1120   14.5470 C.3   1001  EPH1001     0.0047
     41  C35       59.4910   13.5670   14.8830 C.3   1001  EPH1001     0.0003
     42  C36       60.3640   14.4540   15.8190 C.3   1001  EPH1001     0.0000
     43  P1        51.4510   10.6170    7.6770 P.3   1001  EPH1001     0.2142
     44  O6        51.0190   10.1060    9.2730 O.3   1001  EPH1001    -0.4373
     45  O7        51.6470   12.0810    7.6380 O.2   1001  EPH1001    -0.5172
     46  O8        50.2880   10.2060    6.6230 O.3   1001  EPH1001    -0.3114
     47  C38       50.4120   10.5250    5.2450 C.3   1001  EPH1001     0.1815
@<TRIPOS>BOND
     1    47    46    1
     2     5     3    2
     3     3     6    1
     4     3     4    1
     5     1     4    1
     6     1     2    1
     7     6     7    2
     8    46    43    1
     9    23    24    1
    10    23     2    1
    11    24    43    1
    12     2    26    1
    13    45    43    2
    14    43    44    1
    15     7     8    1
    16     8     9    1
    17    26    25    1
    18    27    25    2
    19    25    28    1
    20     9    10    1
    21    28    29    1
    22    10    11    1
    23    11    12    1
    24    29    30    1
    25    30    31    1
    26    12    13    1
    27    40    39    1
    28    40    41    1
    29    13    14    1
    30    39    38    1
    31    31    32    1
    32    41    42    1
    33    38    37    2
    34    32    33    1
    35    14    15    1
    36    37    36    1
    37    35    36    1
    38    35    34    1
    39    15    16    2
    40    33    34    2
    41    16    17    1
    42    17    18    1
    43    18    19    1
    44    19    20    1
    45    20    21    1
    46    21    22    1
