@<TRIPOS>MOLECULE
1yuh_NP_B_1.pdb
 22 22 0 0 0
SMALL
GASTEIGER

@<TRIPOS>ATOM
      1  C1'       84.9900   71.3310   -8.4200 C.ar  996  NP996      -0.0163
      2  C2'       84.9040   72.5500   -7.7550 C.ar  996  NP996      -0.0008
      3  C3'       84.3810   72.6020   -6.4530 C.ar  996  NP996       0.0435
      4  C4'       83.9310   71.4390   -5.8020 C.ar  996  NP996       0.2179
      5  O4'       83.3810   71.5420   -4.5240 O.3   996  NP996      -0.2848
      6  C5'       84.0050   70.2090   -6.4680 C.ar  996  NP996       0.1812
      7  N5'       83.5490   69.1520   -5.7900 N.pl3 996  NP996       0.0609
      8  ON1       83.4730   68.0420   -6.3910 O.2   996  NP996      -0.1260
      9  ON2       83.7370   69.0000   -4.5340 O.2   996  NP996      -0.1260
     10  C6'       84.5350   70.1800   -7.7570 C.ar  996  NP996       0.0232
     11  C1        85.5580   71.2520   -9.8470 C.3   996  NP996       0.0777
     12  C2        85.1840   69.8730  -10.4110 C.3   996  NP996       0.2299
     13  O2        86.2470   70.0620  -10.9720 O.3   996  NP996      -0.2033
     14  N3        84.2050   70.0900  -11.2590 N.3   996  NP996      -0.1890
     15  C4        82.8790   69.5800  -11.4390 C.3   996  NP996       0.0913
     16  C5        82.1650   70.2380  -10.2390 C.3   996  NP996       0.0189
     17  C6        80.6740   70.3950  -10.1040 C.3   996  NP996       0.0021
     18  C7        79.9260   71.0520  -11.2740 C.3   996  NP996       0.0118
     19  C8        79.6030   70.1710  -12.5070 C.3   996  NP996       0.1141
     20  C9        79.6220   68.6600  -12.2950 C.2   996  NP996       0.3649
     21  O3        80.5310   68.0320  -12.8330 O.co2 996  NP996      -0.2457
     22  O4        79.0060   68.1670  -11.3510 O.co2 996  NP996      -0.2457
@<TRIPOS>BOND
     1    21    20   ar
     2    19    20    1
     3    19    18    1
     4    20    22   ar
     5    15    14    1
     6    15    16    1
     7    18    17    1
     8    14    12    1
     9    13    12    1
    10    12    11    1
    11    16    17    1
    12    11     1    1
    13     1    10   ar
    14     1     2   ar
    15    10     6   ar
    16     2     3   ar
    17     6     4   ar
    18     6     7    1
    19     3     4   ar
    20     8     7    2
    21     4     5    1
    22     7     9    2
