@<TRIPOS>MOLECULE
1yum_NCN_A_1.pdb
 22 23 0 0 0
SMALL
GASTEIGER

@<TRIPOS>ATOM
      1  P         75.1500   64.3390    7.4580 P.3   302  NCN302      0.5327
      2  O1P       73.9000   64.9820    8.0020 O.3   302  NCN302     -0.1145
      3  O2P       75.5870   65.0200    6.1830 O.2   302  NCN302     -0.2224
      4  O3P       74.9260   62.7650    7.1640 O.3   302  NCN302     -0.1145
      5  O5'       76.3170   64.5020    8.5290 O.3   302  NCN302     -0.2675
      6  C5'       76.1810   63.7730    9.7640 C.3   302  NCN302      0.1859
      7  C4'       77.4330   63.1560   10.1870 C.3   302  NCN302      0.1798
      8  O4'       77.3000   62.8260   11.6440 O.3   302  NCN302     -0.3354
      9  C3'       77.7470   61.9140    9.5100 C.3   302  NCN302      0.2155
     10  O3'       78.2230   62.3710    8.2280 O.3   302  NCN302     -0.2176
     11  C2'       78.7480   61.3240   10.5540 C.3   302  NCN302      0.2271
     12  O2'       79.9900   61.9850   10.7350 O.3   302  NCN302     -0.2161
     13  C1'       78.0360   61.6500   11.8970 C.3   302  NCN302      0.2096
     14  N1        77.1610   60.5360   12.3870 N.3   302  NCN302     -0.2482
     15  C6        75.9180   60.2940   11.6880 C.3   302  NCN302      0.0743
     16  C5        75.5420   58.9370   11.7790 C.3   302  NCN302      0.0180
     17  C4        75.9730   58.0500   12.8110 C.3   302  NCN302      0.0141
     18  C3        76.7890   58.7200   13.8390 C.3   302  NCN302      0.1194
     19  C2        77.5230   59.8550   13.5270 C.3   302  NCN302      0.0855
     20  C7        77.1510   57.5760   14.8120 C.2   302  NCN302      0.3657
     21  O7        76.4880   56.5910   15.0430 O.co2 302  NCN302     -0.2456
     22  O8        78.0260   58.0460   15.7230 O.co2 302  NCN302     -0.2456
@<TRIPOS>BOND
     1     3     1    2
     2     4     1    1
     3     1     2    1
     4     1     5    1
     5    10     9    1
     6     5     6    1
     7     9     7    1
     8     9    11    1
     9     6     7    1
    10     7     8    1
    11    11    12    1
    12    11    13    1
    13     8    13    1
    14    15    16    1
    15    15    14    1
    16    16    17    1
    17    13    14    1
    18    14    19    1
    19    17    18    1
    20    19    18    1
    21    18    20    1
    22    20    21   ar
    23    20    22   ar
