@<TRIPOS>MOLECULE
1yun_ATP_A_1.pdb
 31 33 0 0 0
SMALL
GASTEIGER

@<TRIPOS>ATOM
      1  PG        33.5230  -44.8400   67.7080 P.3   223  ATP223      0.5373
      2  O1G       34.4550  -44.4380   68.8000 O.3   223  ATP223     -0.1143
      3  O2G       32.8840  -43.6080   67.0230 O.3   223  ATP223     -0.1143
      4  O3G       34.2340  -45.7110   66.6740 O.2   223  ATP223     -0.2221
      5  PB        31.3230  -45.0920   69.3860 P.3   223  ATP223      0.2277
      6  O1B       31.6990  -45.4710   70.7640 O.3   223  ATP223     -0.4368
      7  O2B       31.2150  -43.5970   69.1430 O.2   223  ATP223     -0.5168
      8  O3B       32.3740  -45.7580   68.4050 O.3   223  ATP223     -0.2258
      9  PA        29.5480  -46.4330   67.5770 P.3   223  ATP223      0.2189
     10  O1A       28.5540  -45.5260   66.9810 O.3   223  ATP223     -0.4371
     11  O2A       30.7900  -46.5960   66.7110 O.2   223  ATP223     -0.5170
     12  O3A       29.9740  -45.8440   68.9870 O.3   223  ATP223     -0.2700
     13  O5'       28.8670  -47.8200   67.9370 O.3   223  ATP223     -0.3112
     14  C5'       27.4920  -47.9940   67.8970 C.3   223  ATP223      0.1813
     15  C4'       26.7690  -47.3920   69.0590 C.3   223  ATP223      0.1821
     16  O4'       27.5670  -46.6390   69.9340 O.3   223  ATP223     -0.3135
     17  C3'       25.6790  -46.4510   68.6670 C.3   223  ATP223      0.2184
     18  O3'       24.5590  -47.2670   68.3570 O.3   223  ATP223     -0.2174
     19  C2'       25.5290  -45.5090   69.8510 C.3   223  ATP223      0.2570
     20  O2'       24.3000  -45.4490   70.5070 O.3   223  ATP223     -0.2130
     21  C1'       26.6250  -45.9550   70.7730 C.3   223  ATP223      0.3186
     22  N9        27.4780  -45.0860   71.6090 N.pl3 223  ATP223     -0.1439
     23  C8        28.7620  -44.7160   71.3100 C.3   223  ATP223      0.3377
     24  N7        29.4100  -44.5630   72.4500 N.2   223  ATP223     -0.2095
     25  C5        28.5960  -44.7520   73.5280 C.2   223  ATP223      0.2526
     26  C6        28.6480  -44.6310   74.9210 C.2   223  ATP223      0.4393
     27  N6        29.6570  -44.8130   75.7620 N.pl3 223  ATP223      0.2180
     28  N1        27.4400  -44.6120   75.5770 N.2   223  ATP223      0.0021
     29  C2        26.3500  -45.2370   75.0490 C.3   223  ATP223      0.5254
     30  N3        26.2910  -45.4390   73.7010 N.2   223  ATP223     -0.0055
     31  C4        27.3240  -44.9400   72.9640 C.2   223  ATP223      0.3518
@<TRIPOS>BOND
     1     4     1    2
     2    11     9    2
     3    10     9    1
     4     3     1    1
     5     9    13    1
     6     9    12    1
     7     1     8    1
     8     1     2    1
     9    14    13    1
    10    14    15    1
    11    18    17    1
    12     8     5    1
    13    17    15    1
    14    17    19    1
    15    12     5    1
    16    15    16    1
    17     7     5    2
    18     5     6    1
    19    19    20    1
    20    19    21    1
    21    16    21    1
    22    21    22    1
    23    23    22    1
    24    23    24    1
    25    22    31    1
    26    24    25    2
    27    31    25    1
    28    31    30    2
    29    25    26    1
    30    30    29    1
    31    26    28    2
    32    26    27    1
    33    29    28    1
