@<TRIPOS>MOLECULE
1yv3_BIT_A_1.pdb
 22 25 0 0 0
SMALL
GASTEIGER

@<TRIPOS>ATOM
      1  O2        22.9990   37.7950   40.6810 O.2   800  BIT800     -0.2922
      2  C4        23.0680   37.9450   39.4470 C.2   800  BIT800      0.1961
      3  C5        23.9040   37.2140   38.5620 C.3   800  BIT800      0.1343
      4  C6        25.0030   36.4870   39.0470 C.2   800  BIT800     -0.0162
      5  C7        25.8610   35.8590   38.1640 C.2   800  BIT800     -0.0252
      6  C18       27.0600   35.0770   38.6340 C.3   800  BIT800      0.0307
      7  C8        25.6730   35.9500   36.7440 C.2   800  BIT800     -0.0023
      8  C10       23.7310   37.3010   37.1470 C.2   800  BIT800      0.1211
      9  C9        24.5960   36.6910   36.2360 C.2   800  BIT800      0.0280
     10  C3        22.3500   39.0850   38.8070 C.3   800  BIT800      0.2380
     11  C11       21.8050   38.6580   37.4350 C.2   800  BIT800      0.1979
     12  N2        22.6760   37.9730   36.5960 N.2   800  BIT800     -0.3918
     13  O1        23.3890   40.1710   38.6920 O.3   800  BIT800     -0.2094
     14  C2        21.0570   39.5530   39.5140 C.3   800  BIT800      0.0679
     15  C1        20.2420   40.0990   38.3440 C.3   800  BIT800      0.1012
     16  N1        20.7300   39.3780   37.1490 N.pl3 800  BIT800     -0.2638
     17  C12       20.1270   39.6390   35.8890 C.ar  800  BIT800      0.0533
     18  C13       20.1720   38.5840   34.9500 C.ar  800  BIT800      0.0149
     19  C14       19.5630   38.7090   33.6860 C.ar  800  BIT800      0.0013
     20  C15       18.8640   39.8730   33.4120 C.ar  800  BIT800      0.0001
     21  C16       18.7800   40.9220   34.3520 C.ar  800  BIT800      0.0013
     22  C17       19.4380   40.8110   35.5870 C.ar  800  BIT800      0.0149
@<TRIPOS>BOND
     1    20    19   ar
     2    20    21   ar
     3    19    18   ar
     4    21    22   ar
     5    18    17   ar
     6    22    17   ar
     7    17    16    1
     8     9     7    2
     9     9     8    1
    10    12     8    2
    11    12    11    2
    12     7     5    1
    13     8     3    1
    14    16    11    1
    15    16    15    1
    16    11    10    1
    17     5     6    1
    18     5     4    2
    19    15    14    1
    20     3     4    1
    21     3     2    1
    22    13    10    1
    23    10     2    1
    24    10    14    1
    25     2     1    2
