@<TRIPOS>MOLECULE
1yv3_ADP_A_1.pdb
 27 29 0 0 0
SMALL
GASTEIGER

@<TRIPOS>ATOM
      1  PB        20.0680   39.6070   50.9560 P.3   1000  ADP1000     0.5373
      2  O1B       21.3140   40.2860   50.5060 O.3   1000  ADP1000    -0.1143
      3  O2B       20.2550   38.1210   51.3780 O.3   1000  ADP1000    -0.1143
      4  O3B       18.7830   39.6900   50.1330 O.2   1000  ADP1000    -0.2221
      5  PA        20.2430   41.4010   53.1840 P.3   1000  ADP1000     0.2231
      6  O1A       21.6270   41.0580   53.5840 O.3   1000  ADP1000    -0.4370
      7  O2A       20.0800   42.7010   52.4340 O.2   1000  ADP1000    -0.5169
      8  O3A       19.5520   40.2470   52.3540 O.3   1000  ADP1000    -0.2261
      9  O5'       19.2750   41.4550   54.4750 O.3   1000  ADP1000    -0.3111
     10  C5'       17.9860   42.0130   54.4100 C.3   1000  ADP1000     0.1813
     11  C4'       17.8070   42.8880   55.6500 C.3   1000  ADP1000     0.1821
     12  O4'       17.8270   41.9930   56.7820 O.3   1000  ADP1000    -0.3135
     13  C3'       18.8920   43.9170   55.9240 C.3   1000  ADP1000     0.2184
     14  O3'       18.7200   45.1560   55.2620 O.3   1000  ADP1000    -0.2174
     15  C2'       18.7930   44.1180   57.4230 C.3   1000  ADP1000     0.2570
     16  O2'       17.6680   44.9200   57.7540 O.3   1000  ADP1000    -0.2130
     17  C1'       18.4980   42.6640   57.8590 C.3   1000  ADP1000     0.3186
     18  N9        19.7030   41.9190   58.2530 N.pl3 1000  ADP1000    -0.1439
     19  C8        20.2580   40.8170   57.6400 C.3   1000  ADP1000     0.3377
     20  N7        21.3180   40.3690   58.3580 N.2   1000  ADP1000    -0.2095
     21  C5        21.3790   41.1270   59.4770 C.2   1000  ADP1000     0.2526
     22  C6        22.2830   41.1480   60.5370 C.2   1000  ADP1000     0.4393
     23  N6        23.1630   40.1460   60.7610 N.pl3 1000  ADP1000     0.2180
     24  N1        22.0800   42.0870   61.5230 N.2   1000  ADP1000     0.0021
     25  C2        21.0900   43.0230   61.4740 C.3   1000  ADP1000     0.5254
     26  N3        20.1880   43.0260   60.4390 N.2   1000  ADP1000    -0.0055
     27  C4        20.3970   42.1140   59.4130 C.2   1000  ADP1000     0.3518
@<TRIPOS>BOND
     1     4     1    2
     2     2     1    1
     3     1     3    1
     4     1     8    1
     5     8     5    1
     6     7     5    2
     7     5     6    1
     8     5     9    1
     9    10     9    1
    10    10    11    1
    11    14    13    1
    12    11    13    1
    13    11    12    1
    14    13    15    1
    15    12    17    1
    16    15    16    1
    17    15    17    1
    18    19    18    1
    19    19    20    1
    20    17    18    1
    21    18    27    1
    22    20    21    2
    23    27    21    1
    24    27    26    2
    25    21    22    1
    26    26    25    1
    27    22    23    1
    28    22    24    2
    29    25    24    1
