@<TRIPOS>MOLECULE
1yv5_RIS_A_1.pdb
 17 17 0 0 0
SMALL
GASTEIGER

@<TRIPOS>ATOM
      1  O12       16.9290   35.8050   -6.9220 O.3   901  RIS901     -0.3553
      2  P9        15.4960   35.8010   -7.4940 P.3   901  RIS901      0.1514
      3  O11       15.2150   36.9870   -8.3310 O.2   901  RIS901     -0.4572
      4  O10       14.5440   35.7640   -6.3180 O.3   901  RIS901     -0.3553
      5  C8        15.2100   34.3000   -8.4990 C.3   901  RIS901      0.2200
      6  O13       13.8980   34.3720   -9.0590 O.3   901  RIS901     -0.2105
      7  P14       16.4420   34.1670   -9.8350 P.3   901  RIS901      0.1514
      8  O16       16.4710   35.4380  -10.6700 O.3   901  RIS901     -0.3553
      9  O15       17.6410   34.1050   -8.9840 O.3   901  RIS901     -0.3553
     10  O17       16.3990   32.9640  -10.7290 O.2   901  RIS901     -0.4572
     11  C7        15.2280   33.1760   -7.4690 C.3   901  RIS901      0.0725
     12  C2        15.0830   31.7530   -7.9680 C.ar  901  RIS901      0.0004
     13  C1        15.6970   30.7730   -7.1920 C.ar  901  RIS901     -0.0010
     14  C6        15.6210   29.4420   -7.5590 C.ar  901  RIS901      0.0204
     15  C5        14.8930   29.1130   -8.6950 C.ar  901  RIS901      0.0989
     16  N4        14.2740   30.0580   -9.4170 N.ar  901  RIS901     -0.2426
     17  C3        14.3510   31.3690   -9.0950 C.ar  901  RIS901      0.0947
@<TRIPOS>BOND
     1    10     7    2
     2     8     7    1
     3     7     9    1
     4     7     5    1
     5    16    17   ar
     6    16    15   ar
     7    17    12   ar
     8     6     5    1
     9    15    14   ar
    10     5     2    1
    11     5    11    1
    12     3     2    2
    13    12    11    1
    14    12    13   ar
    15    14    13   ar
    16     2     1    1
    17     2     4    1
