@<TRIPOS>MOLECULE
1yvd_GNP_A_1.pdb
 32 34 0 0 0
SMALL
GASTEIGER

@<TRIPOS>ATOM
      1  PG        36.1880   23.9390   36.9720 P.3   900  GNP900      0.4884
      2  O1G       36.9330   23.3970   35.7860 O.2   900  GNP900     -0.2331
      3  O2G       34.9550   23.1670   37.3080 O.3   900  GNP900     -0.1240
      4  O3G       35.9830   25.4040   36.6730 O.3   900  GNP900     -0.1240
      5  N3B       37.2040   23.8620   38.2270 N.3   900  GNP900     -0.0163
      6  PB        36.8260   24.2420   39.7490 P.3   900  GNP900      0.4669
      7  O1B       37.0340   25.6850   39.9930 O.2   900  GNP900     -0.2351
      8  O2B       35.4800   23.7400   40.0060 O.3   900  GNP900     -0.1253
      9  O3A       37.8300   23.5050   40.6810 O.3   900  GNP900     -0.2360
     10  PA        37.6650   22.1230   41.3490 P.3   900  GNP900      0.2220
     11  O1A       36.7380   22.2090   42.5020 O.3   900  GNP900     -0.4370
     12  O2A       37.3410   21.0910   40.3430 O.2   900  GNP900     -0.5170
     13  O5'       39.0680   21.8000   42.0060 O.3   900  GNP900     -0.3111
     14  C5'       40.2830   21.7860   41.2420 C.3   900  GNP900      0.1813
     15  C4'       41.3530   20.9780   41.9690 C.3   900  GNP900      0.1799
     16  O4'       41.6960   21.6980   43.1830 O.3   900  GNP900     -0.3326
     17  C3'       40.9490   19.5730   42.4220 C.3   900  GNP900      0.2158
     18  O3'       42.0700   18.7190   42.2940 O.3   900  GNP900     -0.2175
     19  C2'       40.5360   19.7920   43.8840 C.3   900  GNP900      0.2310
     20  O2'       40.6900   18.6560   44.7230 O.3   900  GNP900     -0.2158
     21  C1'       41.5080   20.8820   44.3150 C.3   900  GNP900      0.2293
     22  N9        41.0430   21.7650   45.3880 N.pl3 900  GNP900     -0.2354
     23  C8        39.8740   22.4850   45.4280 C.3   900  GNP900      0.2246
     24  N7        39.7280   23.2010   46.5050 N.2   900  GNP900     -0.2322
     25  C5        40.8980   22.9550   47.2190 C.2   900  GNP900      0.2182
     26  C6        41.3240   23.4520   48.4780 C.1   900  GNP900      0.2372
     27  O6        40.7310   24.2370   49.2300 O.2   900  GNP900     -0.2069
     28  N1        42.5750   22.9520   48.8450 N.2   900  GNP900     -0.2485
     29  C2        43.3180   22.0740   48.0940 C.1   900  GNP900      0.2531
     30  N2        44.4970   21.7050   48.6040 N.pl3 900  GNP900     -0.0226
     31  N3        42.9260   21.5970   46.9180 N.2   900  GNP900     -0.3074
     32  C4        41.7140   22.0780   46.5440 C.2   900  GNP900      0.2300
@<TRIPOS>BOND
     1     2     1    2
     2     4     1    1
     3     1     3    1
     4     1     5    1
     5     5     6    1
     6     6     7    2
     7     6     8    1
     8     6     9    1
     9    12    10    2
    10     9    10    1
    11    14    15    1
    12    14    13    1
    13    10    13    1
    14    10    11    1
    15    15    17    1
    16    15    16    1
    17    18    17    1
    18    17    19    1
    19    16    21    1
    20    19    21    1
    21    19    20    1
    22    21    22    1
    23    22    23    1
    24    22    32    1
    25    23    24    1
    26    24    25    2
    27    32    31    2
    28    32    25    1
    29    31    29    2
    30    25    26    1
    31    29    30    1
    32    29    28    2
    33    26    28    2
    34    26    27    2
