@<TRIPOS>MOLECULE
1yve_HIO_I_1.pdb
 10 9 0 0 0
SMALL
GASTEIGER

@<TRIPOS>ATOM
      1  C1        15.4010    6.9070   69.9680 C.2   603  HIO603      0.4086
      2  O11       14.7010    7.6120   70.6940 O.co2 603  HIO603     -0.2385
      3  O12       15.5870    7.2250   68.6640 O.co2 603  HIO603     -0.2385
      4  C2        16.2520    5.6630   70.3120 C.2   603  HIO603      0.1740
      5  O2        17.1380    5.3420   69.5240 O.2   603  HIO603     -0.5326
      6  N3        16.0720    4.8510   71.3780 N.am  603  HIO603     -0.2775
      7  O3        17.2680    4.3840   71.9440 O.3   603  HIO603     -0.4194
      8  C4        14.8390    4.9850   72.2120 C.3   603  HIO603      0.0797
      9  C41       14.0810    3.6360   72.3870 C.3   603  HIO603      0.0220
     10  C42       15.2480    5.6580   73.5100 C.3   603  HIO603      0.0220
@<TRIPOS>BOND
     1     3     1   ar
     2     5     4    2
     3     1     4    1
     4     1     2   ar
     5     4     6   am
     6     6     7    1
     7     6     8    1
     8     8     9    1
     9     8    10    1
