@<TRIPOS>MOLECULE
1yve_NDP_I_1.pdb
 48 52 0 0 0
SMALL
GASTEIGER

@<TRIPOS>ATOM
      1  PA        13.5460   15.0940   68.6870 P.3   600  NDP600      0.2189
      2  O1A       13.5560   14.0290   67.6920 O.2   600  NDP600     -0.5170
      3  O2A       12.5910   15.0220   69.7870 O.3   600  NDP600     -0.4371
      4  O5B       13.6330   16.5240   67.9620 O.3   600  NDP600     -0.3112
      5  C5B       13.0420   17.6550   68.6270 C.3   600  NDP600      0.1813
      6  C4B       14.1030   18.7430   68.6600 C.3   600  NDP600      0.1820
      7  O4B       14.4130   19.0130   67.2770 O.3   600  NDP600     -0.3136
      8  C3B       13.5820   20.0440   69.2740 C.3   600  NDP600      0.2157
      9  O3B       14.6590   20.7690   69.9030 O.3   600  NDP600     -0.2175
     10  C2B       13.1080   20.8510   68.0540 C.3   600  NDP600      0.2314
     11  O2B       13.3070   22.2770   68.2600 O.3   600  NDP600     -0.2630
     12  C1B       14.1500   20.4030   67.0260 C.3   600  NDP600      0.3158
     13  N9A       13.8520   20.6920   65.6030 N.pl3 600  NDP600     -0.1439
     14  C8A       12.8410   20.1810   64.8700 C.3   600  NDP600      0.3377
     15  N7A       12.8340   20.7490   63.6660 N.2   600  NDP600     -0.2095
     16  C5A       13.8360   21.6170   63.6070 C.2   600  NDP600      0.2526
     17  C6A       14.3660   22.4280   62.5660 C.2   600  NDP600      0.4393
     18  N6A       13.7720   22.5680   61.3870 N.pl3 600  NDP600      0.2180
     19  N1A       15.4860   23.1040   62.8320 N.2   600  NDP600      0.0021
     20  C2A       16.0550   23.1180   64.0400 C.3   600  NDP600      0.5254
     21  N3A       15.5840   22.3520   65.0330 N.2   600  NDP600     -0.0055
     22  C4A       14.4910   21.5840   64.8390 C.2   600  NDP600      0.3518
     23  O3        14.9250   15.0510   69.4250 O.3   600  NDP600     -0.2703
     24  PN        15.7360   13.9670   70.2840 P.3   600  NDP600      0.2189
     25  O1N       16.3600   14.6350   71.4080 O.3   600  NDP600     -0.4371
     26  O2N       14.8350   12.8370   70.6050 O.2   600  NDP600     -0.5170
     27  O5D       16.8670   13.4600   69.2720 O.3   600  NDP600     -0.3112
     28  C5D       18.0530   14.1690   68.8970 C.3   600  NDP600      0.1813
     29  C4D       19.0550   13.1730   68.3310 C.3   600  NDP600      0.1799
     30  O4D       19.3830   12.1960   69.3630 O.3   600  NDP600     -0.3327
     31  C3D       18.5090   12.3950   67.1390 C.3   600  NDP600      0.2158
     32  O3D       19.6130   12.1590   66.2650 O.3   600  NDP600     -0.2175
     33  C2D       18.0360   11.0900   67.7720 C.3   600  NDP600      0.2309
     34  O2D       18.0380   10.0420   66.8070 O.3   600  NDP600     -0.2158
     35  C1D       19.1340   10.8830   68.8250 C.3   600  NDP600      0.2263
     36  N1N       18.7960   10.0150   69.9770 N.pl3 600  NDP600     -0.2787
     37  C2N       17.5550   10.0960   70.6290 C.3   600  NDP600      0.1244
     38  C3N       17.2840    9.2420   71.6810 C.2   600  NDP600      0.0544
     39  C7N       16.2900    9.6750   72.7160 C.2   600  NDP600      0.2818
     40  O7N       16.3990    9.2740   73.8560 O.2   600  NDP600     -0.2670
     41  N7N       15.3770   10.5560   72.3450 N.am  600  NDP600     -0.0839
     42  C4N       18.2000    8.2340   72.0450 C.2   600  NDP600      0.0033
     43  C5N       19.4780    8.2490   71.4870 C.2   600  NDP600      0.0157
     44  C6N       19.7770    9.1080   70.4360 C.2   600  NDP600      0.0633
     45  P2B       12.4730   23.0480   69.2220 P.3   600  NDP600      0.5328
     46  O1X       11.1310   22.8350   69.0010 O.3   600  NDP600     -0.1145
     47  O2X       12.7540   24.4060   68.8950 O.2   600  NDP600     -0.2224
     48  O3X       12.8670   22.7270   70.5390 O.3   600  NDP600     -0.1145
@<TRIPOS>BOND
     1    18    17    1
     2    17    19    2
     3    17    16    1
     4    19    20    1
     5    16    15    2
     6    16    22    1
     7    15    14    1
     8    20    21    1
     9    22    21    2
    10    22    13    1
    11    14    13    1
    12    13    12    1
    13    32    31    1
    14    34    33    1
    15    12     7    1
    16    12    10    1
    17    31    33    1
    18    31    29    1
    19     7     6    1
    20     2     1    2
    21    33    35    1
    22     4     5    1
    23     4     1    1
    24    10    11    1
    25    10     8    1
    26    11    45    1
    27    29    28    1
    28    29    30    1
    29     5     6    1
    30     6     8    1
    31     1    23    1
    32     1     3    1
    33    35    30    1
    34    35    36    1
    35    47    45    2
    36    28    27    1
    37    46    45    1
    38    45    48    1
    39    27    24    1
    40     8     9    1
    41    23    24    1
    42    36    44    1
    43    36    37    1
    44    24    26    2
    45    24    25    1
    46    44    43    2
    47    37    38    1
    48    43    42    1
    49    38    42    2
    50    38    39    1
    51    41    39   am
    52    39    40    2
