@<TRIPOS>MOLECULE
1yvf_PH7_A_1.pdb
 28 30 0 0 0
SMALL
GASTEIGER

@<TRIPOS>ATOM
      1  C1        -9.7390   55.1170   46.8920 C.2   800  PH7800      0.0233
      2  C2        -8.6220   54.7640   47.5790 C.2   800  PH7800      0.1531
      3  N         -8.4650   54.7280   49.0400 N.am  800  PH7800     -0.1687
      4  C         -8.1780   55.8220   49.8020 C.2   800  PH7800      0.2692
      5  O         -8.0570   56.9560   49.3420 O.2   800  PH7800     -0.2680
      6  CB2      -11.0380   55.6110   47.3820 C.ar  800  PH7800      0.0017
      7  CB3      -12.1670   55.7430   46.5440 C.ar  800  PH7800      0.0032
      8  CB6      -13.4320   56.7680   48.3780 C.ar  800  PH7800      0.1453
      9  CB1      -11.1450   56.0490   48.6910 C.ar  800  PH7800      0.0032
     10  CB5      -12.3060   56.6130   49.1890 C.ar  800  PH7800      0.0375
     11  CA1      -14.8120   57.5690   50.2350 C.ar  800  PH7800      0.1514
     12  CA2      -14.5710   58.8680   50.7250 C.ar  800  PH7800      0.0690
     13  CA3      -14.8090   59.1780   52.0930 C.ar  800  PH7800      0.0098
     14  CA4      -15.3330   58.1950   52.9560 C.ar  800  PH7800      0.0007
     15  CA5      -15.6200   56.9020   52.4720 C.ar  800  PH7800      0.0032
     16  CA6      -15.3480   56.5970   51.1260 C.ar  800  PH7800      0.0380
     17  CD2       -7.4500   54.2820   46.7960 C.2   800  PH7800      0.4028
     18  OC1       -7.4970   54.3880   45.5530 O.co2 800  PH7800     -0.2391
     19  OC2       -6.4910   53.7290   47.3780 O.co2 800  PH7800     -0.2391
     20  CC1       -8.0460   55.5360   51.2270 C.ar  800  PH7800      0.0554
     21  CC2       -7.2720   56.3900   52.0390 C.ar  800  PH7800      0.0046
     22  CC3       -7.3110   56.2440   53.4370 C.ar  800  PH7800      0.0001
     23  CC4       -8.1280   55.2410   54.0210 C.ar  800  PH7800      0.0000
     24  CC5       -8.8600   54.3440   53.2080 C.ar  800  PH7800      0.0001
     25  CC6       -8.8010   54.4780   51.8090 C.ar  800  PH7800      0.0046
     26  CB4      -13.3460   56.3600   47.0400 C.ar  800  PH7800      0.0375
     27  OAB      -14.6120   57.2860   48.8730 O.3   800  PH7800     -0.4530
     28 BRA2      -14.0950   60.2100   49.5160 Br    800  PH7800     -0.0458
@<TRIPOS>BOND
     1    18    17   ar
     2     7    26   ar
     3     7     6   ar
     4    17    19   ar
     5    17     2    1
     6     1     6    1
     7     1     2    2
     8    26     8   ar
     9     6     9   ar
    10     2     3    1
    11     8    27    1
    12     8    10   ar
    13     9    10   ar
    14    27    11    1
    15     3     4   am
    16     5     4    2
    17    28    12    1
    18     4    20    1
    19    11    12   ar
    20    11    16   ar
    21    12    13   ar
    22    16    15   ar
    23    20    25   ar
    24    20    21   ar
    25    25    24   ar
    26    21    22   ar
    27    13    14   ar
    28    15    14   ar
    29    24    23   ar
    30    22    23   ar
