@<TRIPOS>MOLECULE
1yvj_4ST_A_1.pdb
 35 42 0 0 0
SMALL
GASTEIGER

@<TRIPOS>ATOM
      1  CAB        6.6260  -10.4760   -8.0690 C.3   2000  4ST2000     0.1743
      2  OAQ        7.1620  -10.1860   -6.7470 O.3   2000  4ST2000    -0.3478
      3  CBF        6.1930  -10.1430   -5.6510 C.3   2000  4ST2000     0.1761
      4  CBD        6.7250   -9.1420   -4.6950 C.3   2000  4ST2000     0.1086
      5  NAO        6.6370   -7.8200   -5.3190 N.3   2000  4ST2000    -0.2152
      6  CAA        7.1680   -6.6290   -4.6100 C.3   2000  4ST2000     0.1075
      7  CAN        8.1490   -9.4880   -4.3560 C.3   2000  4ST2000     0.0739
      8  CBE        8.2820  -10.8970   -3.7940 C.3   2000  4ST2000     0.2076
      9  OAR        6.9730  -11.5230   -3.6970 O.3   2000  4ST2000    -0.3186
     10  CBI        6.1200  -11.4340   -4.7870 C.3   2000  4ST2000     0.1915
     11  CAC        4.8000  -11.3760   -3.9970 C.3   2000  4ST2000     0.0566
     12  NBH        6.3930  -12.5690   -5.7260 N.ar  2000  4ST2000    -0.3054
     13  CAY        5.4660  -13.2610   -6.5090 C.ar  2000  4ST2000     0.0617
     14  CAH        4.0390  -13.1460   -6.6320 C.ar  2000  4ST2000     0.0172
     15  CAF        3.3520  -14.0260   -7.5510 C.ar  2000  4ST2000     0.0015
     16  CAE        4.0240  -15.0060   -8.3450 C.ar  2000  4ST2000     0.0001
     17  CAG        5.4370  -15.0920   -8.1990 C.ar  2000  4ST2000     0.0015
     18  CAX        6.1350  -14.2180   -7.2840 C.ar  2000  4ST2000     0.0171
     19  CBA        7.4700  -14.1920   -7.0420 C.ar  2000  4ST2000     0.0173
     20  CBC        7.6140  -13.1420   -6.0550 C.ar  2000  4ST2000     0.0773
     21  CBB        8.9400  -12.7780   -5.5120 C.ar  2000  4ST2000     0.0777
     22  NBG        9.1650  -11.7940   -4.5590 N.ar  2000  4ST2000    -0.3080
     23  CAV       10.5450  -11.8520   -4.3860 C.ar  2000  4ST2000     0.0352
     24  CAL       11.3890  -10.8080   -3.7570 C.3   2000  4ST2000     0.0435
     25  CAJ       12.7450  -11.4420   -3.4340 C.3   2000  4ST2000     0.0066
     26  CAI       13.3960  -12.0300   -4.6910 C.3   2000  4ST2000     0.0051
     27  CAK       12.5760  -13.1780   -5.2890 C.3   2000  4ST2000     0.0276
     28  CAT       11.0580  -12.8720   -5.2410 C.ar  2000  4ST2000    -0.0083
     29  CAZ       10.0630  -13.4970   -5.9950 C.ar  2000  4ST2000     0.0250
     30  CAW        9.9580  -14.5260   -6.9520 C.ar  2000  4ST2000     0.0819
     31  CAU        8.7060  -14.8910   -7.4770 C.ar  2000  4ST2000     0.0154
     32  CAM        8.8540  -16.0510   -8.4230 C.3   2000  4ST2000     0.1650
     33  NAP       10.3330  -16.0890   -8.5570 N.2   2000  4ST2000    -0.1976
     34  CAS       10.9490  -15.3560   -7.5770 C.1   2000  4ST2000     0.1501
     35  OAD       12.1270  -15.3970   -7.2680 O.2   2000  4ST2000    -0.2222
@<TRIPOS>BOND
     1    33    32    1
     2    33    34    2
     3    32    31    1
     4    16    17   ar
     5    16    15   ar
     6    17    18   ar
     7     1     2    1
     8    34    35    2
     9    34    30    1
    10    15    14   ar
    11    31    19   ar
    12    31    30   ar
    13    18    19   ar
    14    18    13   ar
    15    19    20   ar
    16    30    29   ar
    17     2     3    1
    18    14    13   ar
    19    13    12   ar
    20    20    12   ar
    21    20    21   ar
    22    29    21   ar
    23    29    28   ar
    24    12    10    1
    25     3    10    1
    26     3     4    1
    27    21    22   ar
    28     5     4    1
    29     5     6    1
    30    27    28    1
    31    27    26    1
    32    28    23   ar
    33    10    11    1
    34    10     9    1
    35     4     7    1
    36    26    25    1
    37    22    23   ar
    38    22     8    1
    39    23    24    1
    40     7     8    1
    41     8     9    1
    42    24    25    1
