@<TRIPOS>MOLECULE
1yvk_COA_A_1.pdb
 48 50 0 0 0
SMALL
GASTEIGER

@<TRIPOS>ATOM
      1  N1A       55.9350  128.6410  167.6660 N.2   201  COA201      0.0021
      2  C2A       55.6090  129.0220  169.0330 C.3   201  COA201      0.5254
      3  N3A       54.1850  128.9310  169.3590 N.2   201  COA201     -0.0055
      4  C4A       53.1890  128.5050  168.3760 C.2   201  COA201      0.3518
      5  C5A       53.5250  128.1360  167.0250 C.2   201  COA201      0.2526
      6  C6A       54.9430  128.2130  166.6820 C.2   201  COA201      0.4393
      7  N6A       55.3680  127.8560  165.3810 N.pl3 201  COA201      0.2180
      8  N7A       52.3880  127.7790  166.3210 N.2   201  COA201     -0.2095
      9  C8A       51.3380  127.9160  167.2540 C.3   201  COA201      0.3377
     10  N9A       51.8040  128.3540  168.5230 N.pl3 201  COA201     -0.1439
     11  C1B       51.0570  128.6060  169.7480 C.3   201  COA201      0.3185
     12  C2B       49.7270  129.4270  169.7060 C.3   201  COA201      0.2543
     13  O2B       49.8600  130.6910  170.2410 O.3   201  COA201     -0.2131
     14  C3B       48.6750  128.6040  170.4320 C.3   201  COA201      0.1928
     15  O3B       48.1360  129.3810  171.5340 O.3   201  COA201     -0.2673
     16  P3B       47.1140  130.5630  171.3360 P.3   201  COA201      0.5327
     17  O7A       47.5610  131.6620  170.4590 O.2   201  COA201     -0.2224
     18  O8A       45.8620  130.0160  170.7640 O.3   201  COA201     -0.1145
     19  O9A       46.8110  131.0830  172.6700 O.3   201  COA201     -0.1145
     20  C4B       49.3190  127.3520  170.8690 C.3   201  COA201      0.1795
     21  O4B       50.7120  127.3620  170.4670 O.3   201  COA201     -0.3136
     22  C5B       48.3270  126.3320  170.2030 C.3   201  COA201      0.1812
     23  O5B       48.8990  125.0290  170.0330 O.3   201  COA201     -0.3112
     24  P1A       48.1820  123.7260  169.3070 P.3   201  COA201      0.2189
     25  O1A       46.9720  123.3090  169.9630 O.3   201  COA201     -0.4371
     26  O2A       47.8690  123.9660  167.8480 O.2   201  COA201     -0.5170
     27  O3A       49.3400  122.6360  169.4400 O.3   201  COA201     -0.2703
     28  P2A       49.2370  121.2080  168.8420 P.3   201  COA201      0.2188
     29  O4A       47.9640  121.0750  168.1290 O.3   201  COA201     -0.4371
     30  O5A       50.3300  120.9660  167.9300 O.2   201  COA201     -0.5170
     31  O6A       49.4080  120.0950  169.7530 O.3   201  COA201     -0.3138
     32  CBP       50.6220  118.5920  171.1810 C.3   201  COA201      0.0645
     33  CCP       49.6590  119.8750  171.0980 C.3   201  COA201      0.1519
     34  CDP       49.4800  117.7690  171.8450 C.3   201  COA201      0.0056
     35  CEP       51.8340  118.8150  172.1790 C.3   201  COA201      0.0056
     36  CAP       51.0500  117.9350  169.7120 C.3   201  COA201      0.2312
     37  OAP       52.1210  118.8530  169.3480 O.3   201  COA201     -0.2131
     38  C9P       51.6270  116.5210  169.8760 C.2   201  COA201      0.2719
     39  O9P       50.8610  115.6060  170.1650 O.2   201  COA201     -0.2706
     40  N8P       53.0260  116.3570  169.6780 N.am  201  COA201     -0.2028
     41  C7P       53.8660  115.1680  169.7460 C.3   201  COA201      0.1248
     42  C6P       53.9160  114.3550  171.0800 C.3   201  COA201      0.1102
     43  C5P       54.5370  115.0440  172.2370 C.2   201  COA201      0.2432
     44  O5P       55.7170  115.4680  172.1700 O.2   201  COA201     -0.2733
     45  N4P       53.6820  115.1830  173.3890 N.am  201  COA201     -0.2044
     46  C3P       53.9720  115.8130  174.6640 C.3   201  COA201      0.1276
     47  C2P       54.9030  114.9590  175.6180 C.3   201  COA201      0.0920
     48  S1P       54.3110  115.0490  177.3580 S.3   201  COA201     -0.0802
@<TRIPOS>BOND
     1     7     6    1
     2     8     5    2
     3     8     9    1
     4     6     5    1
     5     6     1    2
     6     5     4    1
     7     9    10    1
     8     1     2    1
     9    26    24    2
    10    30    28    2
    11    29    28    1
    12     4    10    1
    13     4     3    2
    14    10    11    1
    15    28    27    1
    16    28    31    1
    17     2     3    1
    18    24    27    1
    19    24    25    1
    20    24    23    1
    21    37    36    1
    22    40    41    1
    23    40    38   am
    24    12    11    1
    25    12    13    1
    26    12    14    1
    27    36    38    1
    28    36    32    1
    29    41    42    1
    30    11    21    1
    31    31    33    1
    32    38    39    2
    33    23    22    1
    34    22    20    1
    35    14    20    1
    36    14    15    1
    37    17    16    2
    38    21    20    1
    39    18    16    1
    40    42    43    1
    41    33    32    1
    42    32    34    1
    43    32    35    1
    44    16    15    1
    45    16    19    1
    46    44    43    2
    47    43    45   am
    48    45    46    1
    49    46    47    1
    50    47    48    1
