@<TRIPOS>MOLECULE
1yvm_TMG_A_1.pdb
 14 16 0 0 0
SMALL
GASTEIGER

@<TRIPOS>ATOM
      1  C2        24.3470  -13.3850    8.3080 C.ar  501  TMG501      0.1741
      2  N7        23.4390  -12.5440    7.7850 N.2   501  TMG501     -0.3363
      3  C9        23.8060  -12.1770    6.6060 C.1   501  TMG501      0.1527
      4  C10       23.0280  -11.1420    5.9250 C.2   501  TMG501      0.1504
      5  C14       23.2390  -10.5820    4.7340 C.3   501  TMG501      0.1171
      6  S13       21.8550   -9.5470    4.2350 S.3   501  TMG501     -0.1069
      7  C12       21.0430   -9.9820    5.7590 C.3   501  TMG501      0.1839
      8  N11       21.7110  -10.8240    6.4160 N.2   501  TMG501     -0.2499
      9  N8        25.0730  -12.5300    6.3060 N.2   501  TMG501     -0.3363
     10  C6        25.3600  -13.4290    7.3620 C.ar  501  TMG501      0.1741
     11  C5        26.5590  -14.0800    7.6270 C.ar  501  TMG501      0.0357
     12  C4        26.5570  -14.8640    8.7870 C.ar  501  TMG501      0.0028
     13  C3        25.5010  -14.8700    9.7140 C.ar  501  TMG501      0.0028
     14  C1        24.3470  -14.1140    9.4900 C.ar  501  TMG501      0.0357
@<TRIPOS>BOND
     1     6     5    1
     2     6     7    1
     3     5     4    1
     4     7     8    1
     5     4     8    2
     6     4     3    1
     7     9     3    2
     8     9    10    2
     9     3     2    2
    10    10    11   ar
    11    10     1   ar
    12    11    12   ar
    13     2     1    2
    14     1    14   ar
    15    12    13   ar
    16    14    13   ar
