@<TRIPOS>MOLECULE
1yvn_ATP_A_1.pdb
 31 33 0 0 0
SMALL
GASTEIGER

@<TRIPOS>ATOM
      1  PG        14.1890   -3.0190   14.8700 P.3   378  ATP378      0.5373
      2  O1G       15.5190   -3.1170   15.5320 O.3   378  ATP378     -0.1143
      3  O2G       14.3140   -4.0890   13.7870 O.2   378  ATP378     -0.2221
      4  O3G       12.9470   -3.1580   15.6450 O.3   378  ATP378     -0.1143
      5  PB        15.0930   -0.7960   13.1400 P.3   378  ATP378      0.2277
      6  O1B       16.4750   -1.2520   13.0280 O.3   378  ATP378     -0.4368
      7  O2B       14.7100   -0.6940   11.7380 O.2   378  ATP378     -0.5168
      8  O3B       14.0890   -1.6360   14.0490 O.3   378  ATP378     -0.2258
      9  PA        15.9330    1.8480   14.1010 P.3   378  ATP378      0.2189
     10  O1A       16.8060    1.7290   15.3050 O.3   378  ATP378     -0.4371
     11  O2A       16.6970    2.1130   12.8460 O.2   378  ATP378     -0.5170
     12  O3A       14.9810    0.5770   13.9520 O.3   378  ATP378     -0.2700
     13  O5'       14.8440    2.9450   14.3700 O.3   378  ATP378     -0.3112
     14  C5'       13.7950    3.4360   13.4810 C.3   378  ATP378      0.1813
     15  C4'       12.7100    4.0670   14.3410 C.3   378  ATP378      0.1821
     16  O4'       13.3190    5.1330   15.1110 O.3   378  ATP378     -0.3135
     17  C3'       11.5300    4.6610   13.5500 C.3   378  ATP378      0.2184
     18  O3'       10.2560    4.4210   14.2030 O.3   378  ATP378     -0.2174
     19  C2'       11.8910    6.1420   13.5690 C.3   378  ATP378      0.2570
     20  O2'       10.7490    6.9910   13.4680 O.3   378  ATP378     -0.2130
     21  C1'       12.6380    6.3450   14.9170 C.3   378  ATP378      0.3186
     22  N9        13.5330    7.5250   14.9960 N.pl3 378  ATP378     -0.1439
     23  C8        14.5760    7.8710   14.1960 C.3   378  ATP378      0.3377
     24  N7        15.1420    9.0120   14.5840 N.2   378  ATP378     -0.2095
     25  C5        14.4180    9.4190   15.6900 C.2   378  ATP378      0.2526
     26  C6        14.5040   10.5390   16.5590 C.2   378  ATP378      0.4393
     27  N6        15.4020   11.5250   16.4420 N.pl3 378  ATP378      0.2180
     28  N1        13.6160   10.6700   17.6030 N.2   378  ATP378      0.0021
     29  C2        12.6580    9.6690   17.7680 C.3   378  ATP378      0.5254
     30  N3        12.5040    8.5900   17.0070 N.2   378  ATP378     -0.0055
     31  C4        13.4200    8.5100   15.9730 C.2   378  ATP378      0.3518
@<TRIPOS>BOND
     1     7     5    2
     2    11     9    2
     3     6     5    1
     4     5    12    1
     5     5     8    1
     6    20    19    1
     7    14    15    1
     8    14    13    1
     9    17    19    1
    10    17    18    1
    11    17    15    1
    12    19    21    1
    13     3     1    2
    14    12     9    1
    15     8     1    1
    16     9    13    1
    17     9    10    1
    18    23    24    1
    19    23    22    1
    20    15    16    1
    21    24    25    2
    22     1     2    1
    23     1     4    1
    24    21    22    1
    25    21    16    1
    26    22    31    1
    27    25    31    1
    28    25    26    1
    29    31    30    2
    30    27    26    1
    31    26    28    2
    32    30    29    1
    33    28    29    1
