@<TRIPOS>MOLECULE
1yvq_HEM_A_1.pdb
 43 50 0 0 0
SMALL
GASTEIGER

@<TRIPOS>ATOM
      1 FE          0.0680    0.0640   27.9980 Fe    701  HEM701      0.0000
      2  CHA        0.0010   -0.4740   24.6240 C.2   701  HEM701      0.0000
      3  CHB       -3.0440   -1.4230   28.2270 C.2   701  HEM701      0.0000
      4  CHC        0.0570    0.6160   31.3560 C.2   701  HEM701      0.0000
      5  CHD        3.0370    1.6830   27.7040 C.2   701  HEM701      0.0000
      6  NA        -1.2760   -0.7840   26.6890 N.2   701  HEM701      0.0000
      7  C1A       -1.1100   -0.9070   25.3260 C.2   701  HEM701      0.0000
      8  C2A       -2.2850   -1.5400   24.7420 C.2   701  HEM701      0.0000
      9  C3A       -3.1450   -1.8040   25.7590 C.2   701  HEM701      0.0000
     10  C4A       -2.5020   -1.3310   26.9790 C.2   701  HEM701      0.0000
     11  CMA       -4.5060   -2.4580   25.6760 C.3   701  HEM701      0.0000
     12  CAA       -2.4880   -1.8360   23.2840 C.3   701  HEM701      0.0000
     13  CBA       -1.9890   -3.2270   22.9380 C.3   701  HEM701      0.0000
     14  CGA       -2.1240   -3.6640   21.4800 C.2   701  HEM701      0.0000
     15  O1A       -2.8320   -2.9800   20.6790 O.co2 701  HEM701      0.0000
     16  O2A       -1.4970   -4.7050   21.1350 O.co2 701  HEM701      0.0000
     17  NB        -1.2500   -0.3640   29.5190 N.ar  701  HEM701      0.0000
     18  C1B       -2.4720   -0.9810   29.4070 C.ar  701  HEM701      0.0000
     19  C2B       -3.0930   -1.0900   30.7360 C.ar  701  HEM701      0.0000
     20  C3B       -2.2010   -0.5180   31.6180 C.ar  701  HEM701      0.0000
     21  C4B       -1.0610   -0.0590   30.8430 C.ar  701  HEM701      0.0000
     22  CMB       -4.4410   -1.7040   31.0070 C.3   701  HEM701      0.0000
     23  CAB       -2.3130   -0.3430   33.0860 C.2   701  HEM701      0.0000
     24  CBB       -3.3920   -0.0140   33.7750 C.2   701  HEM701      0.0000
     25  NC         1.3310    0.9800   29.3190 N.2   701  HEM701      0.0000
     26  C1C        1.1440    1.1170   30.6600 C.2   701  HEM701      0.0000
     27  C2C        2.2350    1.9140   31.2220 C.2   701  HEM701      0.0000
     28  C3C        3.0760    2.2190   30.1760 C.2   701  HEM701      0.0000
     29  C4C        2.5000    1.6150   28.9820 C.2   701  HEM701      0.0000
     30  CMC        2.3680    2.3130   32.7020 C.3   701  HEM701      0.0000
     31  CAC        4.3130    3.0070   30.2060 C.2   701  HEM701      0.0000
     32  CBC        4.4260    4.2470   30.7420 C.2   701  HEM701      0.0000
     33  ND         1.3080    0.4840   26.4370 N.ar  701  HEM701      0.0000
     34  C1D        2.4940    1.1570   26.5300 C.ar  701  HEM701      0.0000
     35  C2D        3.0910    1.2720   25.2330 C.ar  701  HEM701      0.0000
     36  C3D        2.2220    0.6570   24.3500 C.ar  701  HEM701      0.0000
     37  C4D        1.1110    0.1750   25.1270 C.ar  701  HEM701      0.0000
     38  CMD        4.3980    1.9620   24.9370 C.3   701  HEM701      0.0000
     39  CAD        2.3790    0.5320   22.8440 C.3   701  HEM701      0.0000
     40  CBD        1.6720    1.7290   22.1780 C.3   701  HEM701      0.0000
     41  CGD        1.8580    1.7230   20.6490 C.2   701  HEM701      0.0000
     42  O1D        0.8510    1.6440   19.9430 O.co2 701  HEM701      0.0000
     43  O2D        3.0190    1.8210   20.1950 O.co2 701  HEM701      0.0000
@<TRIPOS>BOND
     1    42    41   ar
     2    43    41   ar
     3    41    40    1
     4    15    14   ar
     5    16    14   ar
     6    14    13    1
     7    40    39    1
     8    39    36    1
     9    13    12    1
    10    12     8    1
    11    36    37   ar
    12    36    35   ar
    13     2    37    2
    14     2     7    1
    15     8     7    1
    16     8     9    2
    17    38    35    1
    18    37    33   ar
    19    35    34   ar
    20     7     6    2
    21    11     9    1
    22     9    10    1
    23    33    34   ar
    24    33     1    1
    25    34     5    2
    26     6    10    1
    27     6     1    1
    28    10     3    2
    29     5    29    1
    30     1    25    1
    31     1    17    1
    32     3    18    1
    33    29    25    2
    34    29    28    1
    35    25    26    1
    36    18    17   ar
    37    18    19   ar
    38    17    21   ar
    39    28    31    1
    40    28    27    2
    41    31    32    2
    42    26    27    1
    43    26     4    2
    44    19    22    1
    45    19    20   ar
    46    21     4    1
    47    21    20   ar
    48    27    30    1
    49    20    23    1
    50    23    24    2
