@<TRIPOS>MOLECULE
1yvt_HEM_A_1.pdb
 43 50 0 0 0
SMALL
GASTEIGER

@<TRIPOS>ATOM
      1  CHA      -25.1100  -43.0280   65.2170 C.2   401  HEM401      0.0000
      2  CHB      -20.7810  -40.9720   64.1870 C.2   401  HEM401      0.0000
      3  CHC      -23.0100  -37.7310   61.3550 C.2   401  HEM401      0.0000
      4  CHD      -27.3450  -39.5620   62.6220 C.2   401  HEM401      0.0000
      5  C1A      -23.7140  -42.7790   65.1940 C.2   401  HEM401      0.0000
      6  C2A      -22.6870  -43.5330   65.9230 C.2   401  HEM401      0.0000
      7  C3A      -21.4760  -42.9420   65.6320 C.2   401  HEM401      0.0000
      8  C4A      -21.7460  -41.8220   64.7230 C.2   401  HEM401      0.0000
      9  CMA      -20.0980  -43.3200   66.1090 C.3   401  HEM401      0.0000
     10  CAA      -22.9480  -44.7440   66.8340 C.3   401  HEM401      0.0000
     11  CBA      -22.8510  -46.0520   66.0560 C.3   401  HEM401      0.0000
     12  CGA      -23.0810  -47.3390   66.8570 C.2   401  HEM401      0.0000
     13  O1A      -22.4960  -48.3800   66.4810 O.co2 401  HEM401      0.0000
     14  O2A      -23.8410  -47.3060   67.8480 O.co2 401  HEM401      0.0000
     15  C1B      -20.9890  -39.8930   63.3120 C.ar  401  HEM401      0.0000
     16  C2B      -19.9470  -39.0140   62.7700 C.ar  401  HEM401      0.0000
     17  C3B      -20.5960  -38.1160   61.9620 C.ar  401  HEM401      0.0000
     18  C4B      -22.0160  -38.4360   62.0110 C.ar  401  HEM401      0.0000
     19  CMB      -18.4590  -39.1240   63.0770 C.3   401  HEM401      0.0000
     20  CAB      -20.0520  -36.9940   61.1570 C.2   401  HEM401      0.0000
     21  CBB      -19.0280  -36.2230   61.4480 C.2   401  HEM401      0.0000
     22  C1C      -24.3770  -37.9380   61.4490 C.2   401  HEM401      0.0000
     23  C2C      -25.3880  -37.0680   60.8630 C.2   401  HEM401      0.0000
     24  C3C      -26.6060  -37.5640   61.2480 C.2   401  HEM401      0.0000
     25  C4C      -26.3530  -38.7350   62.0360 C.2   401  HEM401      0.0000
     26  CMC      -25.0460  -35.8360   60.0230 C.3   401  HEM401      0.0000
     27  CAC      -27.9550  -37.0270   60.9490 C.2   401  HEM401      0.0000
     28  CBC      -28.3180  -35.7260   60.9950 C.2   401  HEM401      0.0000
     29  C1D      -27.1490  -40.6820   63.4080 C.ar  401  HEM401      0.0000
     30  C2D      -28.2000  -41.4920   63.9770 C.ar  401  HEM401      0.0000
     31  C3D      -27.5720  -42.4880   64.7120 C.ar  401  HEM401      0.0000
     32  C4D      -26.1310  -42.2730   64.5880 C.ar  401  HEM401      0.0000
     33  CMD      -29.6810  -41.2560   63.7930 C.3   401  HEM401      0.0000
     34  CAD      -28.2560  -43.5720   65.5050 C.3   401  HEM401      0.0000
     35  CBD      -28.6750  -43.0980   66.9210 C.3   401  HEM401      0.0000
     36  CGD      -29.3990  -44.2390   67.6550 C.2   401  HEM401      0.0000
     37  O1D      -28.9480  -44.6640   68.7290 O.co2 401  HEM401      0.0000
     38  O2D      -30.4500  -44.6810   67.1340 O.co2 401  HEM401      0.0000
     39  NA       -23.0930  -41.7390   64.4840 N.2   401  HEM401      0.0000
     40  NB       -22.2210  -39.4940   62.8270 N.ar  401  HEM401      0.0000
     41  NC       -24.9790  -38.9150   62.1490 N.2   401  HEM401      0.0000
     42  ND       -25.9120  -41.1790   63.7990 N.ar  401  HEM401      0.0000
     43 FE        -24.0490  -40.3380   63.3350 Fe    401  HEM401      0.0000
@<TRIPOS>BOND
     1    26    23    1
     2    23    24    2
     3    23    22    1
     4    27    28    2
     5    27    24    1
     6    20    21    2
     7    20    17    1
     8    24    25    1
     9     3    22    2
    10     3    18    1
    11    22    41    1
    12    17    18   ar
    13    17    16   ar
    14    18    40   ar
    15    25    41    2
    16    25     4    1
    17    41    43    1
    18     4    29    2
    19    16    19    1
    20    16    15   ar
    21    40    15   ar
    22    40    43    1
    23    15     2    1
    24    43    42    1
    25    43    39    1
    26    29    42   ar
    27    29    30   ar
    28    33    30    1
    29    42    32   ar
    30    30    31   ar
    31     2     8    2
    32    39     8    1
    33    39     5    2
    34    32    31   ar
    35    32     1    2
    36    31    34    1
    37     8     7    1
    38     5     1    1
    39     5     6    1
    40    34    35    1
    41     7     6    2
    42     7     9    1
    43     6    10    1
    44    11    10    1
    45    11    12    1
    46    13    12   ar
    47    12    14   ar
    48    35    36    1
    49    38    36   ar
    50    36    37   ar
