@<TRIPOS>MOLECULE
1yvx_IPC_A_1.pdb
 27 29 0 0 0
SMALL
GASTEIGER

@<TRIPOS>ATOM
      1  N1        27.7900   62.0080    6.3650 N.am  580  IPC580     -0.2561
      2  C2        28.2940   63.5880    6.3370 C.3   580  IPC580      0.0802
      3  C3        27.3210   64.6040    5.8580 C.3   580  IPC580      0.0219
      4  C4        29.6770   63.8960    5.5940 C.3   580  IPC580      0.0219
      5  C5        27.0760   61.5350    7.5260 C.2   580  IPC580      0.2527
      6  O6        26.8030   62.2840    8.5800 O.2   580  IPC580     -0.2696
      7  C7        26.4790   59.9780    7.7510 C.ar  580  IPC580      0.0539
      8  C8        26.8240   59.3180    9.0430 C.ar  580  IPC580      0.0042
      9  C9        26.1980   57.8900    9.0800 C.ar  580  IPC580     -0.0041
     10  C10       25.3680   57.3300    7.9120 C.ar  580  IPC580     -0.0218
     11  C11       25.1720   58.1300    6.7860 C.ar  580  IPC580     -0.0041
     12  C12       25.7130   59.4140    6.7170 C.ar  580  IPC580      0.0042
     13  C13       24.7540   55.9540    7.9250 C.3   580  IPC580      0.0310
     14  C14       28.0680   61.2510    5.3110 C.ar  580  IPC580      0.0669
     15  C15       29.1490   60.1770    5.3060 C.ar  580  IPC580      0.1229
     16  S16       29.3020   59.3500    3.8670 S.2   580  IPC580     -0.0792
     17  C17       28.0420   60.2470    3.1100 C.ar  580  IPC580      0.0309
     18  C18       27.5040   61.2050    4.0140 C.ar  580  IPC580      0.0221
     19  C19       30.0690   59.7890    6.4320 C.2   580  IPC580      0.3949
     20  O20       30.9970   58.8370    6.3550 O.co2 580  IPC580     -0.2399
     21  O21       29.9740   60.3910    7.5260 O.co2 580  IPC580     -0.2399
     22  C22       27.6430   59.9980    1.7360 C.ar  580  IPC580      0.0060
     23  C23       28.3150   58.9550    0.9320 C.ar  580  IPC580      0.0005
     24  C24       27.9130   58.7100   -0.4370 C.ar  580  IPC580      0.0000
     25  C25       26.8450   59.4860   -1.0370 C.ar  580  IPC580      0.0000
     26  C26       26.1670   60.5150   -0.2720 C.ar  580  IPC580      0.0000
     27  C27       26.5160   60.8020    1.0720 C.ar  580  IPC580      0.0005
@<TRIPOS>BOND
     1    25    24   ar
     2    25    26   ar
     3    24    23   ar
     4    26    27   ar
     5    23    22   ar
     6    27    22   ar
     7    22    17    1
     8    17    16   ar
     9    17    18   ar
    10    16    15   ar
    11    18    14   ar
    12    15    14   ar
    13    15    19    1
    14    14     1    1
    15     4     2    1
    16     3     2    1
    17     2     1    1
    18    20    19   ar
    19     1     5   am
    20    19    21   ar
    21    12    11   ar
    22    12     7   ar
    23    11    10   ar
    24     5     7    1
    25     5     6    2
    26     7     8   ar
    27    10    13    1
    28    10     9   ar
    29     8     9   ar
