@<TRIPOS>MOLECULE
1yvz_JPC_A_1.pdb
 28 30 0 0 0
SMALL
GASTEIGER

@<TRIPOS>ATOM
      1  N1        28.1040   61.9480    6.2000 N.am  578  JPC578     -0.2561
      2  C2        28.5780   63.4150    6.2070 C.3   578  JPC578      0.0802
      3  C3        27.5960   64.3760    5.4850 C.3   578  JPC578      0.0219
      4  C4        29.9970   63.6320    5.5630 C.3   578  JPC578      0.0219
      5  C5        27.1530   61.6390    7.2440 C.2   578  JPC578      0.2535
      6  O6        26.7550   62.4620    8.0690 O.2   578  JPC578     -0.2695
      7  C7        26.5570   60.2320    7.4010 C.ar  578  JPC578      0.0645
      8  C8        27.0630   59.4210    8.4760 C.ar  578  JPC578      0.0062
      9  C9        26.5680   58.0920    8.6890 C.ar  578  JPC578      0.0116
     10  C10       25.5550   57.5590    7.8230 C.ar  578  JPC578      0.0585
     11  C11       25.0290   58.3560    6.7370 C.ar  578  JPC578      0.0229
     12  C12       25.5110   59.6950    6.5090 C.ar  578  JPC578      0.0629
     13 CL13       24.9750   55.9800    8.0800 Cl    578  JPC578     -0.0822
     14 CL14       24.8250   60.6100    5.1730 Cl    578  JPC578     -0.0821
     15  C15       28.5820   60.9860    5.2270 C.ar  578  JPC578      0.0669
     16  C16       29.5650   59.9880    5.3370 C.ar  578  JPC578      0.1229
     17  S17       29.8030   59.0740    3.9120 S.2   578  JPC578     -0.0792
     18  C18       28.6120   59.9420    3.0480 C.ar  578  JPC578      0.0309
     19  C19       28.0770   60.9030    3.8850 C.ar  578  JPC578      0.0221
     20  C20       30.3780   59.6860    6.5550 C.2   578  JPC578      0.3949
     21  O21       31.2080   58.7760    6.4830 O.co2 578  JPC578     -0.2399
     22  O22       30.1540   60.3840    7.5640 O.co2 578  JPC578     -0.2399
     23  C23       28.2350   59.6870    1.6280 C.ar  578  JPC578      0.0060
     24  C24       29.1420   58.9840    0.7280 C.ar  578  JPC578      0.0005
     25  C25       28.7870   58.7370   -0.6440 C.ar  578  JPC578      0.0000
     26  C26       27.5160   59.1870   -1.1490 C.ar  578  JPC578      0.0000
     27  C27       26.6010   59.8820   -0.2840 C.ar  578  JPC578      0.0000
     28  C28       26.9510   60.1310    1.0840 C.ar  578  JPC578      0.0005
@<TRIPOS>BOND
     1    26    25   ar
     2    26    27   ar
     3    25    24   ar
     4    27    28   ar
     5    24    23   ar
     6    28    23   ar
     7    23    18    1
     8    18    19   ar
     9    18    17   ar
    10    19    15   ar
    11    17    16   ar
    12    14    12    1
    13    15    16   ar
    14    15     1    1
    15    16    20    1
    16     3     2    1
    17     4     2    1
    18     1     2    1
    19     1     5   am
    20    21    20   ar
    21    12    11   ar
    22    12     7   ar
    23    20    22   ar
    24    11    10   ar
    25     5     7    1
    26     5     6    2
    27     7     8   ar
    28    10    13    1
    29    10     9   ar
    30     8     9   ar
