@<TRIPOS>MOLECULE
1yw1_GLC_A_1.pdb
 12 12 0 0 0
SMALL
GASTEIGER

@<TRIPOS>ATOM
      1  C1       -11.7810   68.9990   17.3570 C.3   2605  GLC2605     0.3024
      2  C2       -10.9810   67.9240   18.1280 C.3   2605  GLC2605     0.2434
      3  C3       -11.6070   66.5320   18.1550 C.3   2605  GLC2605     0.2199
      4  C4       -13.0990   66.6870   18.4410 C.3   2605  GLC2605     0.2144
      5  C5       -13.7780   67.5410   17.3680 C.3   2605  GLC2605     0.1836
      6  C6       -15.1830   68.0460   17.6930 C.3   2605  GLC2605     0.2142
      7  O1       -11.1390   69.7290   16.3300 O.3   2605  GLC2605    -0.1869
      8  O2        -9.5920   67.8150   17.9390 O.3   2605  GLC2605    -0.2148
      9  O3       -10.9670   65.6250   19.0410 O.3   2605  GLC2605    -0.2174
     10  O4       -13.6130   65.3810   18.3210 O.3   2605  GLC2605    -0.2176
     11  O5       -13.0460   68.6280   16.8240 O.3   2605  GLC2605    -0.3236
     12  O6       -15.3900   69.2070   16.9080 O.3   2605  GLC2605    -0.2176
@<TRIPOS>BOND
     1     7     1    1
     2    11     1    1
     3    11     5    1
     4    12     6    1
     5     1     2    1
     6     5     6    1
     7     5     4    1
     8     8     2    1
     9     2     3    1
    10     3     4    1
    11     3     9    1
    12    10     4    1
