@<TRIPOS>MOLECULE
1yw1_FMN_A_1.pdb
 31 33 0 0 0
SMALL
GASTEIGER

@<TRIPOS>ATOM
      1  N1       -11.0440   63.6410   16.0990 N.2   2606  FMN2606    -0.2887
      2  C2       -11.8700   64.4040   15.2930 C.1   2606  FMN2606     0.3669
      3  O2       -13.0640   64.1490   15.1180 O.2   2606  FMN2606    -0.1744
      4  N3       -11.3600   65.5020   14.6450 N.2   2606  FMN2606    -0.2300
      5  C4       -10.0370   65.8340   14.7950 C.1   2606  FMN2606     0.2513
      6  O4        -9.5140   66.7490   14.1660 O.2   2606  FMN2606    -0.2057
      7  C4A       -9.2030   65.0750   15.5930 C.2   2606  FMN2606     0.2706
      8  N5        -7.8780   65.4500   15.7100 N.2   2606  FMN2606    -0.3841
      9  C5A       -7.0130   64.7230   16.5180 C.2   2606  FMN2606     0.1452
     10  C6        -5.6640   65.1100   16.6360 C.2   2606  FMN2606     0.0252
     11  C7        -4.7320   64.4270   17.4290 C.2   2606  FMN2606    -0.0375
     12  C7M       -3.3540   65.0700   17.4650 C.3   2606  FMN2606     0.0268
     13  C8        -5.2320   63.2970   18.1220 C.3   2606  FMN2606     0.0417
     14  C8M       -4.4730   62.5640   19.1840 C.3   2606  FMN2606     0.0091
     15  C9        -6.5700   62.8910   18.0120 C.2   2606  FMN2606    -0.0049
     16  C9A       -7.4750   63.6020   17.2120 C.2   2606  FMN2606     0.0795
     17  N10       -8.8020   63.2540   17.0570 N.pl3 2606  FMN2606    -0.2545
     18  C10       -9.6990   63.9650   16.2640 C.2   2606  FMN2606     0.2449
     19  C1'       -9.3360   62.2370   18.0030 C.3   2606  FMN2606     0.1336
     20  C2'       -9.3330   60.8220   17.4310 C.3   2606  FMN2606     0.2048
     21  O2'      -10.4980   60.7780   16.6000 O.3   2606  FMN2606    -0.2185
     22  C3'       -9.1390   59.8990   18.6680 C.3   2606  FMN2606     0.2165
     23  O3'       -7.8650   60.1450   19.2660 O.3   2606  FMN2606    -0.2175
     24  C4'       -9.2880   58.3660   18.5550 C.3   2606  FMN2606     0.2147
     25  O4'       -8.4450   57.8360   17.5480 O.3   2606  FMN2606    -0.2176
     26  C5'      -10.7050   57.8030   18.3840 C.3   2606  FMN2606     0.1892
     27  O5'      -10.8450   56.9710   17.2440 O.3   2606  FMN2606    -0.2674
     28  P        -10.7590   55.3620   17.2910 P.3   2606  FMN2606     0.5327
     29  O1P      -11.0870   54.7700   15.9540 O.2   2606  FMN2606    -0.2224
     30  O2P       -9.3440   54.9030   17.5100 O.3   2606  FMN2606    -0.1145
     31  O3P      -11.8290   54.8850   18.2450 O.3   2606  FMN2606    -0.1145
@<TRIPOS>BOND
     1     6     5    2
     2     4     5    2
     3     4     2    2
     4     5     7    1
     5     3     2    2
     6     2     1    2
     7     7     8    2
     8     7    18    1
     9     8     9    2
    10    29    28    2
    11     1    18    2
    12    18    17    1
    13     9    10    1
    14     9    16    1
    15    21    20    1
    16    10    11    2
    17    17    16    1
    18    17    19    1
    19    16    15    2
    20    27    28    1
    21    27    26    1
    22    28    30    1
    23    28    31    1
    24    11    12    1
    25    11    13    1
    26    20    19    1
    27    20    22    1
    28    25    24    1
    29    15    13    1
    30    13    14    1
    31    26    24    1
    32    24    22    1
    33    22    23    1
