@<TRIPOS>MOLECULE
1yw2_PGJ_A_1.pdb
 31 34 0 0 0
SMALL
GASTEIGER

@<TRIPOS>ATOM
      1  C1        18.9280   39.5250   18.0270 C.ar  2001  PGJ2001     0.1329
      2  N2        17.9780   40.2500   18.9180 N.ar  2001  PGJ2001    -0.1581
      3  O3        17.9890   39.3980   20.1640 O.2   2001  PGJ2001    -0.3309
      4  C4        18.8450   38.3680   20.0140 C.ar  2001  PGJ2001     0.3667
      5  C5        19.4550   38.4770   18.6750 C.ar  2001  PGJ2001     0.0990
      6  C6        18.3990   41.6210   19.2220 C.3   2001  PGJ2001     0.2892
      7  O7        17.2530   42.4450   19.3390 O.3   2001  PGJ2001    -0.3302
      8  C10       17.4700   43.7910   19.6960 C.3   2001  PGJ2001     0.1446
      9  C11       18.9580   43.9990   19.9310 C.3   2001  PGJ2001     0.0347
     10  C17       18.9470   39.8220   16.6010 C.2   2001  PGJ2001     0.1661
     11  C18       18.9530   38.8140   15.6490 C.2   2001  PGJ2001     0.0562
     12  C19       18.9870   39.1840   14.3120 C.2   2001  PGJ2001     0.1161
     13  N20       19.0150   40.4630   13.9340 N.2   2001  PGJ2001    -0.1512
     14  C21       18.9890   41.4940   14.8530 C.1   2001  PGJ2001     0.2572
     15  N22       18.9450   41.0860   16.1780 N.2   2001  PGJ2001    -0.3190
     16  O23       18.9560   42.7830   14.4180 O.3   2001  PGJ2001    -0.3800
     17  C24       18.2970   43.7360   15.1860 C.ar  2001  PGJ2001     0.1989
     18  C25       18.9840   44.8820   15.5540 C.ar  2001  PGJ2001     0.0420
     19  C26       18.3670   45.8610   16.3230 C.ar  2001  PGJ2001     0.0034
     20  C27       17.0540   45.6910   16.7280 C.ar  2001  PGJ2001     0.0035
     21  C28       16.3580   44.5390   16.3860 C.ar  2001  PGJ2001     0.0453
     22  C29       16.9650   43.5790   15.5880 C.ar  2001  PGJ2001     0.2310
     23  O34       16.2520   42.4510   15.2450 O.3   2001  PGJ2001    -0.2833
     24  C35       20.3800   37.4220   18.2580 C.ar  2001  PGJ2001     0.0080
     25  C36       19.9630   36.1010   18.4570 C.ar  2001  PGJ2001     0.0026
     26  C37       20.7810   35.0530   18.0590 C.ar  2001  PGJ2001     0.0296
     27  C38       22.0190   35.3510   17.5050 C.ar  2001  PGJ2001     0.1401
     28  C39       22.4680   36.6480   17.3440 C.ar  2001  PGJ2001     0.0296
     29  C40       21.5920   37.6960   17.6380 C.ar  2001  PGJ2001     0.0026
     30  F45       22.8030   34.3150   17.1900 F     2001  PGJ2001    -0.2042
     31  O47       19.1420   37.5410   20.8230 O.2   2001  PGJ2001    -0.2426
@<TRIPOS>BOND
     1    13    12    1
     2    13    14    2
     3    12    11    2
     4    16    14    1
     5    16    17    1
     6    14    15    2
     7    17    18   ar
     8    17    22   ar
     9    23    22    1
    10    18    19   ar
    11    22    21   ar
    12    11    10    1
    13    15    10    2
    14    19    20   ar
    15    21    20   ar
    16    10     1    1
    17    30    27    1
    18    28    27   ar
    19    28    29   ar
    20    27    26   ar
    21    29    24   ar
    22     1     5   ar
    23     1     2   ar
    24    26    25   ar
    25    24    25   ar
    26    24     5    1
    27     5     4   ar
    28     2     6    1
    29     2     3   ar
    30     6     7    1
    31     7     8    1
    32     8     9    1
    33     4     3   ar
    34     4    31    2
