@<TRIPOS>MOLECULE
1yw7_A41_A_1.pdb
 20 21 0 0 0
SMALL
GASTEIGER

@<TRIPOS>ATOM
      1  C1        18.3980   27.9220   21.5180 C.ar  482  A41482      0.0001
      2  C2        17.9200   29.2550   21.4410 C.ar  482  A41482      0.0014
      3  C3        16.8110   29.5640   20.6140 C.ar  482  A41482      0.0202
      4  C4        16.1820   28.5390   19.8650 C.ar  482  A41482      0.1270
      5  C5        16.6570   27.2050   19.9400 C.ar  482  A41482      0.0202
      6  C6        17.7640   26.8990   20.7670 C.ar  482  A41482      0.0014
      7  S7        14.7920   28.9280   18.8220 S.O2  482  A41482      0.0928
      8  N8        15.4180   29.1300   17.3190 N.pl3 482  A41482     -0.0963
      9  O9        14.2360   30.1930   19.2310 O.2   482  A41482     -0.1483
     10  O10       13.9270   27.7770   18.7920 O.2   482  A41482     -0.1483
     11  C11       16.1920   30.2060   16.9140 C.ar  482  A41482      0.0973
     12  C12       15.5740   31.4630   16.6610 C.ar  482  A41482      0.0179
     13  C13       16.3350   32.5830   16.2500 C.ar  482  A41482     -0.0029
     14  C14       17.7380   32.4800   16.0770 C.ar  482  A41482     -0.0216
     15  C15       18.3660   31.2360   16.3230 C.ar  482  A41482      0.0037
     16  C16       17.6240   30.0910   16.7380 C.ar  482  A41482      0.0961
     17  C17       18.3960   28.8410   16.9660 C.2   482  A41482      0.3890
     18  O18       19.3470   28.8430   17.6950 O.co2 482  A41482     -0.2405
     19  O19       17.8460   27.6820   16.5470 O.co2 482  A41482     -0.2405
     20  C20       18.5480   33.6740   15.6400 C.3   482  A41482      0.0310
@<TRIPOS>BOND
     1    20    14    1
     2    14    13   ar
     3    14    15   ar
     4    13    12   ar
     5    15    16   ar
     6    19    17   ar
     7    12    11   ar
     8    16    11   ar
     9    16    17    1
    10    11     8    1
    11    17    18   ar
    12     8     7    1
    13    10     7    2
    14     7     9    2
    15     7     4    1
    16     4     5   ar
    17     4     3   ar
    18     5     6   ar
    19     3     2   ar
    20     6     1   ar
    21     2     1   ar
