@<TRIPOS>MOLECULE
1yw8_A75_A_1.pdb
 23 25 0 0 0
SMALL
GASTEIGER

@<TRIPOS>ATOM
      1  C1        19.9950   33.6860   15.9840 C.3   104  A75104      0.0050
      2  C2        18.4750   33.8110   15.7830 C.3   104  A75104      0.0260
      3  C3        17.6970   32.5680   16.2150 C.ar  104  A75104     -0.0258
      4  C4        18.3490   31.2780   16.3780 C.ar  104  A75104     -0.0184
      5  C5        19.8570   31.1110   16.1190 C.3   104  A75104      0.0263
      6  C6        20.5540   32.3390   15.4920 C.3   104  A75104      0.0050
      7  C7        16.3040   32.6770   16.4650 C.ar  104  A75104     -0.0032
      8  C8        15.5450   31.5600   16.8640 C.ar  104  A75104      0.0179
      9  C9        16.1640   30.3100   17.0250 C.ar  104  A75104      0.0970
     10  C10       17.5520   30.1590   16.7870 C.ar  104  A75104      0.0922
     11  C11       18.2050   28.7390   16.9860 C.2   104  A75104      0.3887
     12  O12       17.8100   27.7650   16.1510 O.co2 104  A75104     -0.2405
     13  O13       19.0090   28.5400   17.8610 O.co2 104  A75104     -0.2405
     14  N14       15.3100   29.1880   17.4440 N.pl3 104  A75104     -0.0963
     15  S15       14.6710   28.8650   18.9180 S.O2  104  A75104      0.0928
     16  C16       16.0490   28.5550   20.0060 C.ar  104  A75104      0.1270
     17  O17       13.9090   27.6410   18.7820 O.2   104  A75104     -0.1483
     18  O18       13.9740   30.0600   19.3630 O.2   104  A75104     -0.1483
     19  C19       16.6550   29.6490   20.7590 C.ar  104  A75104      0.0202
     20  C20       17.7760   29.3800   21.6450 C.ar  104  A75104      0.0014
     21  C21       18.2910   28.0260   21.7780 C.ar  104  A75104      0.0001
     22  C22       17.6830   26.9370   21.0250 C.ar  104  A75104      0.0014
     23  C23       16.5640   27.1980   20.1400 C.ar  104  A75104      0.0202
@<TRIPOS>BOND
     1     6     1    1
     2     6     5    1
     3     2     1    1
     4     2     3    1
     5     5     4    1
     6    12    11   ar
     7     3     4   ar
     8     3     7   ar
     9     4    10   ar
    10     7     8   ar
    11    10    11    1
    12    10     9   ar
    13     8     9   ar
    14    11    13   ar
    15     9    14    1
    16    14    15    1
    17    17    15    2
    18    15    18    2
    19    15    16    1
    20    16    23   ar
    21    16    19   ar
    22    23    22   ar
    23    19    20   ar
    24    22    21   ar
    25    20    21   ar
