@<TRIPOS>MOLECULE
1ywa_HEM_A_1.pdb
 43 50 0 0 0
SMALL
GASTEIGER

@<TRIPOS>ATOM
      1 FE         10.6430   20.2990   36.4250 Fe    185  HEM185      0.0000
      2  CHA       11.1420   23.3250   35.0090 C.2   185  HEM185      0.0000
      3  CHB        7.2970   20.6740   36.0670 C.2   185  HEM185      0.0000
      4  CHC       10.1320   17.5510   38.3560 C.2   185  HEM185      0.0000
      5  CHD       13.9760   19.7980   36.5380 C.2   185  HEM185      0.0000
      6  NA         9.4530   21.6920   35.6870 N.ar  185  HEM185      0.0000
      7  C1A        9.8550   22.9480   35.2060 C.ar  185  HEM185      0.0000
      8  C2A        8.6980   23.7350   34.8870 C.ar  185  HEM185      0.0000
      9  C3A        7.6040   22.9970   35.1900 C.ar  185  HEM185      0.0000
     10  C4A        8.0620   21.7020   35.6680 C.ar  185  HEM185      0.0000
     11  CMA        6.1570   23.4020   35.0860 C.3   185  HEM185      0.0000
     12  CAA        8.7140   25.1200   34.3210 C.3   185  HEM185      0.0000
     13  CBA        8.7350   26.1830   35.3840 C.3   185  HEM185      0.0000
     14  CGA        8.5450   27.5710   34.8910 C.2   185  HEM185      0.0000
     15  O1A        9.2620   28.0050   33.9410 O.co2 185  HEM185      0.0000
     16  O2A        7.6260   28.2690   35.3880 O.co2 185  HEM185      0.0000
     17  NB         9.0570   19.2780   37.0490 N.2   185  HEM185      0.0000
     18  C1B        7.7160   19.5360   36.7340 C.2   185  HEM185      0.0000
     19  C2B        6.8610   18.5350   37.2850 C.2   185  HEM185      0.0000
     20  C3B        7.6650   17.7050   38.0150 C.2   185  HEM185      0.0000
     21  C4B        9.0100   18.1850   37.8370 C.2   185  HEM185      0.0000
     22  CMB        5.3650   18.4780   37.0760 C.3   185  HEM185      0.0000
     23  CAB        7.2660   16.5290   38.7950 C.2   185  HEM185      0.0000
     24  CBB        6.2790   16.2490   39.5410 C.2   185  HEM185      0.0000
     25  NC        11.8330   18.9360   37.2860 N.ar  185  HEM185      0.0000
     26  C1C       11.4550   17.8890   38.0670 C.ar  185  HEM185      0.0000
     27  C2C       12.6220   17.1170   38.4990 C.ar  185  HEM185      0.0000
     28  C3C       13.7260   17.7210   37.9150 C.ar  185  HEM185      0.0000
     29  C4C       13.1920   18.8780   37.1720 C.ar  185  HEM185      0.0000
     30  CMC       12.5950   15.9510   39.4320 C.3   185  HEM185      0.0000
     31  CAC       15.1040   17.3770   37.9950 C.2   185  HEM185      0.0000
     32  CBC       15.6490   16.3580   38.1580 C.2   185  HEM185      0.0000
     33  ND        12.2230   21.3110   35.8300 N.2   185  HEM185      0.0000
     34  C1D       13.5570   20.9270   35.9290 C.2   185  HEM185      0.0000
     35  C2D       14.4080   21.9850   35.4020 C.2   185  HEM185      0.0000
     36  C3D       13.6290   23.0130   35.0130 C.2   185  HEM185      0.0000
     37  C4D       12.2630   22.5590   35.2780 C.2   185  HEM185      0.0000
     38  CMD       15.9210   21.8970   35.3930 C.3   185  HEM185      0.0000
     39  CAD       14.0120   24.3090   34.4290 C.3   185  HEM185      0.0000
     40  CBD       13.8930   24.2960   32.8980 C.3   185  HEM185      0.0000
     41  CGD       14.2320   25.6120   32.2920 C.2   185  HEM185      0.0000
     42  O1D       13.7800   26.0280   31.3290 O.co2 185  HEM185      0.0000
     43  O2D       15.1170   26.3480   32.8990 O.co2 185  HEM185      0.0000
@<TRIPOS>BOND
     1    42    41   ar
     2    41    40    1
     3    41    43   ar
     4    40    39    1
     5    15    14   ar
     6    12     8    1
     7    12    13    1
     8    39    36    1
     9     8     9   ar
    10     8     7   ar
    11    14    13    1
    12    14    16   ar
    13     2     7    2
    14     2    37    1
    15    36    37    1
    16    36    35    2
    17    11     9    1
    18     9    10   ar
    19     7     6   ar
    20    37    33    2
    21    38    35    1
    22    35    34    1
    23    10     6   ar
    24    10     3    2
    25     6     1    1
    26    33    34    1
    27    33     1    1
    28    34     5    2
    29     3    18    1
    30     1    17    1
    31     1    25    1
    32     5    29    1
    33    18    17    2
    34    18    19    1
    35    17    21    1
    36    22    19    1
    37    29    25   ar
    38    29    28   ar
    39    19    20    2
    40    25    26   ar
    41    21    20    1
    42    21     4    2
    43    28    31    1
    44    28    27   ar
    45    31    32    2
    46    20    23    1
    47    26     4    1
    48    26    27   ar
    49    27    30    1
    50    23    24    2
