@<TRIPOS>MOLECULE
1ywb_HEM_A_1.pdb
 43 50 0 0 0
SMALL
GASTEIGER

@<TRIPOS>ATOM
      1 FE         10.5370   20.1860   36.3920 Fe    185  HEM185      0.0000
      2  CHA       11.0940   23.2450   35.0250 C.2   185  HEM185      0.0000
      3  CHB        7.1960   20.6880   36.0570 C.2   185  HEM185      0.0000
      4  CHC        9.9990   17.5320   38.4050 C.2   185  HEM185      0.0000
      5  CHD       13.8710   19.6460   36.5290 C.2   185  HEM185      0.0000
      6  NA         9.3900   21.6520   35.6980 N.ar  185  HEM185      0.0000
      7  C1A        9.7930   22.9020   35.2300 C.ar  185  HEM185      0.0000
      8  C2A        8.6470   23.7170   34.9010 C.ar  185  HEM185      0.0000
      9  C3A        7.5170   22.9790   35.1710 C.ar  185  HEM185      0.0000
     10  C4A        8.0080   21.6700   35.6590 C.ar  185  HEM185      0.0000
     11  CMA        6.1410   23.3740   35.0360 C.3   185  HEM185      0.0000
     12  CAA        8.6910   25.1160   34.3160 C.3   185  HEM185      0.0000
     13  CBA        8.6660   26.1320   35.4180 C.3   185  HEM185      0.0000
     14  CGA        8.4820   27.5910   34.9050 C.2   185  HEM185      0.0000
     15  O1A        9.2570   27.9590   34.0170 O.co2 185  HEM185      0.0000
     16  O2A        7.6230   28.2970   35.4180 O.co2 185  HEM185      0.0000
     17  NB         8.9080   19.2490   37.0800 N.2   185  HEM185      0.0000
     18  C1B        7.6250   19.5250   36.7280 C.2   185  HEM185      0.0000
     19  C2B        6.7350   18.5510   37.2890 C.2   185  HEM185      0.0000
     20  C3B        7.5090   17.7220   38.0390 C.2   185  HEM185      0.0000
     21  C4B        8.8800   18.1580   37.8600 C.2   185  HEM185      0.0000
     22  CMB        5.2480   18.5180   37.0600 C.3   185  HEM185      0.0000
     23  CAB        7.1020   16.5850   38.8260 C.2   185  HEM185      0.0000
     24  CBB        7.2740   16.1700   39.8510 C.2   185  HEM185      0.0000
     25  NC        11.7190   18.8570   37.3130 N.ar  185  HEM185      0.0000
     26  C1C       11.3390   17.8450   38.0860 C.ar  185  HEM185      0.0000
     27  C2C       12.4670   17.0550   38.5390 C.ar  185  HEM185      0.0000
     28  C3C       13.5420   17.5630   37.9190 C.ar  185  HEM185      0.0000
     29  C4C       13.0540   18.7630   37.1800 C.ar  185  HEM185      0.0000
     30  CMC       12.3830   15.8830   39.4220 C.3   185  HEM185      0.0000
     31  CAC       14.8400   17.1210   37.9900 C.2   185  HEM185      0.0000
     32  CBC       15.8270   17.3060   37.8840 C.2   185  HEM185      0.0000
     33  ND        12.1700   21.2420   35.8240 N.2   185  HEM185      0.0000
     34  C1D       13.4530   20.8210   35.9200 C.2   185  HEM185      0.0000
     35  C2D       14.3400   21.8270   35.3810 C.2   185  HEM185      0.0000
     36  C3D       13.5840   22.8390   34.9900 C.2   185  HEM185      0.0000
     37  C4D       12.1850   22.4760   35.2860 C.2   185  HEM185      0.0000
     38  CMD       15.8440   21.6680   35.3100 C.3   185  HEM185      0.0000
     39  CAD       14.0350   24.1350   34.3700 C.3   185  HEM185      0.0000
     40  CBD       13.7610   24.1050   32.8450 C.3   185  HEM185      0.0000
     41  CGD       14.1550   25.3250   32.1870 C.2   185  HEM185      0.0000
     42  O1D       13.6060   25.7860   31.3560 O.co2 185  HEM185      0.0000
     43  O2D       15.0390   26.0860   32.7840 O.co2 185  HEM185      0.0000
@<TRIPOS>BOND
     1    42    41   ar
     2    41    43   ar
     3    41    40    1
     4    40    39    1
     5    15    14   ar
     6    12     8    1
     7    12    13    1
     8    39    36    1
     9     8     9   ar
    10     8     7   ar
    11    14    13    1
    12    14    16   ar
    13    36    37    1
    14    36    35    2
    15     2     7    2
    16     2    37    1
    17    11     9    1
    18     9    10   ar
    19     7     6   ar
    20    37    33    2
    21    38    35    1
    22    35    34    1
    23    10     6   ar
    24    10     3    2
    25     6     1    1
    26    33    34    1
    27    33     1    1
    28    34     5    2
    29     3    18    1
    30     1    17    1
    31     1    25    1
    32     5    29    1
    33    18    17    2
    34    18    19    1
    35    22    19    1
    36    17    21    1
    37    29    25   ar
    38    29    28   ar
    39    19    20    2
    40    25    26   ar
    41    21    20    1
    42    21     4    2
    43    32    31    2
    44    28    31    1
    45    28    27   ar
    46    20    23    1
    47    26     4    1
    48    26    27   ar
    49    27    30    1
    50    23    24    2
