@<TRIPOS>MOLECULE
1ywc_HEM_A_1.pdb
 43 50 0 0 0
SMALL
GASTEIGER

@<TRIPOS>ATOM
      1 FE         10.9150   20.2130   36.3980 Fe    185  HEM185      0.0000
      2  CHA       11.3960   23.2480   34.8850 C.2   185  HEM185      0.0000
      3  CHB        7.5790   20.6040   36.0390 C.2   185  HEM185      0.0000
      4  CHC       10.4620   17.5010   38.3230 C.2   185  HEM185      0.0000
      5  CHD       14.2760   19.6750   36.4360 C.2   185  HEM185      0.0000
      6  NA         9.7330   21.6010   35.6230 N.ar  185  HEM185      0.0000
      7  C1A       10.1080   22.8460   35.1230 C.ar  185  HEM185      0.0000
      8  C2A        8.9330   23.6690   34.7720 C.ar  185  HEM185      0.0000
      9  C3A        7.8790   22.8930   35.0750 C.ar  185  HEM185      0.0000
     10  C4A        8.3850   21.6100   35.5850 C.ar  185  HEM185      0.0000
     11  CMA        6.3750   23.2750   34.9240 C.3   185  HEM185      0.0000
     12  CAA        8.9570   25.0360   34.2570 C.3   185  HEM185      0.0000
     13  CBA        8.8330   26.0720   35.2900 C.3   185  HEM185      0.0000
     14  CGA        8.7140   27.4920   34.8000 C.2   185  HEM185      0.0000
     15  O1A        9.5020   27.8740   33.8790 O.co2 185  HEM185      0.0000
     16  O2A        7.8830   28.2380   35.3260 O.co2 185  HEM185      0.0000
     17  NB         9.3400   19.2270   37.0100 N.2   185  HEM185      0.0000
     18  C1B        7.9970   19.4620   36.7500 C.2   185  HEM185      0.0000
     19  C2B        7.1640   18.4750   37.3130 C.2   185  HEM185      0.0000
     20  C3B        7.9980   17.6290   38.0410 C.2   185  HEM185      0.0000
     21  C4B        9.2860   18.1090   37.8630 C.2   185  HEM185      0.0000
     22  CMB        5.6690   18.4150   37.1100 C.3   185  HEM185      0.0000
     23  CAB        7.5920   16.4480   38.8270 C.2   185  HEM185      0.0000
     24  CBB        6.6190   16.2260   39.5950 C.2   185  HEM185      0.0000
     25  NC        12.1370   18.8850   37.2270 N.ar  185  HEM185      0.0000
     26  C1C       11.7310   17.8250   38.0450 C.ar  185  HEM185      0.0000
     27  C2C       12.8870   17.0900   38.4730 C.ar  185  HEM185      0.0000
     28  C3C       13.9870   17.6730   37.8270 C.ar  185  HEM185      0.0000
     29  C4C       13.5030   18.8270   37.0820 C.ar  185  HEM185      0.0000
     30  CMC       12.9090   15.8980   39.3730 C.3   185  HEM185      0.0000
     31  CAC       15.2970   17.2290   37.8560 C.1   185  HEM185      0.0000
     32  CBC       16.3140   17.2590   37.7030 C.1   185  HEM185      0.0000
     33  ND        12.4920   21.2210   35.7470 N.2   185  HEM185      0.0000
     34  C1D       13.8280   20.8570   35.8290 C.2   185  HEM185      0.0000
     35  C2D       14.6380   21.8810   35.2600 C.2   185  HEM185      0.0000
     36  C3D       13.8560   22.9030   34.8520 C.2   185  HEM185      0.0000
     37  C4D       12.5040   22.5030   35.1610 C.2   185  HEM185      0.0000
     38  CMD       16.2090   21.8380   35.2650 C.3   185  HEM185      0.0000
     39  CAD       14.2640   24.1850   34.2170 C.3   185  HEM185      0.0000
     40  CBD       14.0350   24.0900   32.6500 C.3   185  HEM185      0.0000
     41  CGD       14.5730   25.3440   32.0860 C.2   185  HEM185      0.0000
     42  O1D       13.8970   26.2970   31.9380 O.co2 185  HEM185      0.0000
     43  O2D       15.6690   25.4950   31.5640 O.co2 185  HEM185      0.0000
@<TRIPOS>BOND
     1    43    41   ar
     2    42    41   ar
     3    41    40    1
     4    40    39    1
     5    15    14   ar
     6    39    36    1
     7    12     8    1
     8    12    13    1
     9     8     9   ar
    10     8     7   ar
    11    14    13    1
    12    14    16   ar
    13    36    37    1
    14    36    35    2
    15     2     7    2
    16     2    37    1
    17    11     9    1
    18     9    10   ar
    19     7     6   ar
    20    37    33    2
    21    35    38    1
    22    35    34    1
    23    10     6   ar
    24    10     3    2
    25     6     1    1
    26    33    34    1
    27    33     1    1
    28    34     5    2
    29     3    18    1
    30     1    17    1
    31     1    25    1
    32     5    29    1
    33    18    17    2
    34    18    19    1
    35    17    21    1
    36    29    25   ar
    37    29    28   ar
    38    22    19    1
    39    25    26   ar
    40    19    20    2
    41    32    31    3
    42    28    31    1
    43    28    27   ar
    44    21    20    1
    45    21     4    2
    46    20    23    1
    47    26     4    1
    48    26    27   ar
    49    27    30    1
    50    23    24    2
