@<TRIPOS>MOLECULE
1ywd_HEM_A_1.pdb
 43 50 0 0 0
SMALL
GASTEIGER

@<TRIPOS>ATOM
      1 FE         10.9640   20.3460   36.3340 Fe    185  HEM185      0.0000
      2  CHA       11.4680   23.3210   34.7120 C.2   185  HEM185      0.0000
      3  CHB        7.5750   20.7190   35.8590 C.2   185  HEM185      0.0000
      4  CHC       10.4540   17.4240   38.0200 C.2   185  HEM185      0.0000
      5  CHD       14.3730   19.7780   36.3830 C.2   185  HEM185      0.0000
      6  NA         9.7860   21.7110   35.4350 N.ar  185  HEM185      0.0000
      7  C1A       10.1950   22.9380   34.9330 C.ar  185  HEM185      0.0000
      8  C2A        9.0210   23.7140   34.5670 C.ar  185  HEM185      0.0000
      9  C3A        7.9390   22.9630   34.8900 C.ar  185  HEM185      0.0000
     10  C4A        8.4180   21.7230   35.4250 C.ar  185  HEM185      0.0000
     11  CMA        6.4710   23.3180   34.7510 C.3   185  HEM185      0.0000
     12  CAA        9.0330   25.1320   33.9760 C.3   185  HEM185      0.0000
     13  CBA        8.7250   26.1360   35.0810 C.3   185  HEM185      0.0000
     14  CGA        8.6820   27.6090   34.6050 C.2   185  HEM185      0.0000
     15  O1A        9.4680   27.9820   33.6630 O.co2 185  HEM185      0.0000
     16  O2A        7.8590   28.3320   35.0880 O.co2 185  HEM185      0.0000
     17  NB         9.3960   19.2420   36.7720 N.2   185  HEM185      0.0000
     18  C1B        8.0190   19.5570   36.5240 C.2   185  HEM185      0.0000
     19  C2B        7.1270   18.5060   37.0470 C.2   185  HEM185      0.0000
     20  C3B        7.9950   17.6130   37.6380 C.2   185  HEM185      0.0000
     21  C4B        9.3550   18.1180   37.5310 C.2   185  HEM185      0.0000
     22  CMB        5.6800   18.4950   36.8680 C.3   185  HEM185      0.0000
     23  CAB        7.5470   16.3740   38.4510 C.2   185  HEM185      0.0000
     24  CBB        6.8140   15.7760   39.0470 C.2   185  HEM185      0.0000
     25  NC        12.1730   18.9060   37.0250 N.ar  185  HEM185      0.0000
     26  C1C       11.8180   17.8130   37.7400 C.ar  185  HEM185      0.0000
     27  C2C       13.0170   17.0230   38.1540 C.ar  185  HEM185      0.0000
     28  C3C       14.0440   17.6610   37.6990 C.ar  185  HEM185      0.0000
     29  C4C       13.5340   18.8170   36.9490 C.ar  185  HEM185      0.0000
     30  CMC       12.9430   15.8120   39.0980 C.3   185  HEM185      0.0000
     31  CAC       15.4140   17.1310   37.7830 C.3   185  HEM185      0.0000
     32  CBC       15.7320   16.4400   36.6640 C.3   185  HEM185      0.0000
     33  ND        12.5410   21.3310   35.6290 N.2   185  HEM185      0.0000
     34  C1D       13.8980   20.9830   35.7110 C.2   185  HEM185      0.0000
     35  C2D       14.7560   21.9560   35.1400 C.2   185  HEM185      0.0000
     36  C3D       13.9510   22.9160   34.6680 C.2   185  HEM185      0.0000
     37  C4D       12.6130   22.5680   34.9510 C.2   185  HEM185      0.0000
     38  CMD       16.2780   21.7780   35.0070 C.3   185  HEM185      0.0000
     39  CAD       14.3610   24.2650   33.9910 C.3   185  HEM185      0.0000
     40  CBD       13.9310   24.1230   32.3950 C.3   185  HEM185      0.0000
     41  CGD       14.4820   25.2390   31.6580 C.2   185  HEM185      0.0000
     42  O1D       15.4580   25.1430   30.8510 O.co2 185  HEM185      0.0000
     43  O2D       13.9870   26.2930   31.8320 O.co2 185  HEM185      0.0000
@<TRIPOS>BOND
     1    42    41   ar
     2    41    43   ar
     3    41    40    1
     4    40    39    1
     5    15    14   ar
     6    12     8    1
     7    12    13    1
     8    39    36    1
     9     8     9   ar
    10     8     7   ar
    11    14    13    1
    12    14    16   ar
    13    36    37    1
    14    36    35    2
    15     2     7    2
    16     2    37    1
    17    11     9    1
    18     9    10   ar
    19     7     6   ar
    20    37    33    2
    21    38    35    1
    22    35    34    1
    23    10     6   ar
    24    10     3    2
    25     6     1    1
    26    33    34    1
    27    33     1    1
    28    34     5    2
    29     3    18    1
    30     1    17    1
    31     1    25    1
    32     5    29    1
    33    18    17    2
    34    18    19    1
    35    32    31    1
    36    17    21    1
    37    22    19    1
    38    29    25   ar
    39    29    28   ar
    40    25    26   ar
    41    19    20    2
    42    21    20    1
    43    21     4    2
    44    20    23    1
    45    28    31    1
    46    28    27   ar
    47    26     4    1
    48    26    27   ar
    49    27    30    1
    50    23    24    2
