@<TRIPOS>MOLECULE
1ywg_NAD_O_1.pdb
 44 48 0 0 0
SMALL
GASTEIGER

@<TRIPOS>ATOM
      1  PA        70.2960   23.8100   10.8060 P.3   401  NAD401      0.2189
      2  O1A       69.9740   22.3750   10.5310 O.2   401  NAD401     -0.5170
      3  O2A       69.2140   24.6040   11.4660 O.3   401  NAD401     -0.4371
      4  O5B       71.6650   23.8440   11.6900 O.3   401  NAD401     -0.3112
      5  C5B       72.0130   24.9480   12.5890 C.3   401  NAD401      0.1813
      6  C4B       72.6080   24.4310   13.9150 C.3   401  NAD401      0.1821
      7  O4B       72.9990   25.6070   14.6710 O.3   401  NAD401     -0.3135
      8  C3B       71.5860   23.7220   14.8250 C.3   401  NAD401      0.2184
      9  O3B       71.9590   22.3590   15.0930 O.3   401  NAD401     -0.2174
     10  C2B       71.5190   24.6360   16.0810 C.3   401  NAD401      0.2570
     11  O2B       71.1970   24.0060   17.3010 O.3   401  NAD401     -0.2130
     12  C1B       72.9160   25.2650   16.0230 C.3   401  NAD401      0.3186
     13  N9A       73.1970   26.5090   16.7980 N.pl3 401  NAD401     -0.1439
     14  C8A       72.3980   27.6170   16.9870 C.3   401  NAD401      0.3377
     15  N7A       73.0420   28.5060   17.7220 N.2   401  NAD401     -0.2095
     16  C5A       74.2770   28.0150   18.0380 C.2   401  NAD401      0.2526
     17  C6A       75.3930   28.5040   18.7660 C.2   401  NAD401      0.4393
     18  N6A       75.3740   29.6840   19.3420 N.pl3 401  NAD401      0.2180
     19  N1A       76.5190   27.7060   18.8770 N.2   401  NAD401      0.0021
     20  C2A       76.5710   26.4580   18.2780 C.3   401  NAD401      0.5254
     21  N3A       75.5210   25.9730   17.5770 N.2   401  NAD401     -0.0055
     22  C4A       74.3890   26.7540   17.4390 C.2   401  NAD401      0.3518
     23  O3        70.6540   24.5480    9.4700 O.3   401  NAD401     -0.2703
     24  PN        71.7200   24.1350    8.3120 P.3   401  NAD401      0.2189
     25  O1N       72.7880   23.2540    8.8730 O.3   401  NAD401     -0.4371
     26  O2N       70.9410   23.5870    7.1470 O.2   401  NAD401     -0.5170
     27  O5D       72.2400   25.6210    7.9110 O.3   401  NAD401     -0.3112
     28  C5D       73.5290   26.1800    8.4060 C.3   401  NAD401      0.1813
     29  C4D       74.1770   27.0830    7.3640 C.3   401  NAD401      0.1799
     30  O4D       74.7960   26.4110    6.2260 O.3   401  NAD401     -0.3327
     31  C3D       73.1900   28.1450    6.8200 C.3   401  NAD401      0.2158
     32  O3D       73.7280   29.4550    6.8890 O.3   401  NAD401     -0.2175
     33  C2D       72.8490   27.6970    5.4050 C.3   401  NAD401      0.2309
     34  O2D       73.1010   28.6860    4.4520 O.3   401  NAD401     -0.2158
     35  C1D       73.7450   26.4670    5.2800 C.3   401  NAD401      0.2263
     36  N1N       73.5990   25.6040    4.0830 N.pl3 401  NAD401     -0.2787
     37  C2N       72.4170   24.9190    4.0630 C.3   401  NAD401      0.1244
     38  C3N       72.1040   24.0640    3.0250 C.2   401  NAD401      0.0544
     39  C7N       70.7850   23.3560    3.0830 C.2   401  NAD401      0.2818
     40  O7N       70.1340   23.2690    2.0290 O.2   401  NAD401     -0.2670
     41  N7N       70.2750   22.8340    4.2300 N.am  401  NAD401     -0.0839
     42  C4N       73.0400   23.9050    1.9660 C.2   401  NAD401      0.0033
     43  C5N       74.2770   24.6240    1.9950 C.2   401  NAD401      0.0157
     44  C6N       74.5480   25.4890    3.0840 C.2   401  NAD401      0.0633
@<TRIPOS>BOND
     1    42    43    1
     2    42    38    2
     3    43    44    2
     4    40    39    2
     5    38    39    1
     6    38    37    1
     7    39    41   am
     8    44    36    1
     9    37    36    1
    10    36    35    1
    11    34    33    1
    12    35    33    1
    13    35    30    1
    14    33    31    1
    15    30    29    1
    16    31    32    1
    17    31    29    1
    18    26    24    2
    19    29    28    1
    20    27    24    1
    21    27    28    1
    22    24    25    1
    23    24    23    1
    24    23     1    1
    25     2     1    2
    26     1     3    1
    27     1     4    1
    28     4     5    1
    29     5     6    1
    30     6     7    1
    31     6     8    1
    32     7    12    1
    33     8     9    1
    34     8    10    1
    35    12    10    1
    36    12    13    1
    37    10    11    1
    38    13    14    1
    39    13    22    1
    40    14    15    1
    41    22    21    2
    42    22    16    1
    43    21    20    1
    44    15    16    2
    45    16    17    1
    46    20    19    1
    47    17    19    2
    48    17    18    1
