@<TRIPOS>MOLECULE
1ywh_FUC_A_1.pdb
 10 10 0 0 0
SMALL
GASTEIGER

@<TRIPOS>ATOM
      1  C1        32.3840   27.7420   43.6510 C.3   316  FUC316      0.1776
      2  C2        32.9700   28.7820   44.6030 C.3   316  FUC316      0.2141
      3  C3        32.6120   28.3910   46.0380 C.3   316  FUC316      0.2172
      4  C4        31.8800   27.0430   46.1040 C.3   316  FUC316      0.2116
      5  C5        32.4870   25.9610   45.1980 C.3   316  FUC316      0.1483
      6  C6        31.4630   24.8660   44.9140 C.3   316  FUC316      0.0349
      7  O2        32.4800   30.0770   44.3140 O.3   316  FUC316     -0.2176
      8  O3        33.7870   28.3530   46.8140 O.3   316  FUC316     -0.2175
      9  O4        31.8590   26.5680   47.4310 O.3   316  FUC316     -0.2177
     10  O5        32.9660   26.4910   43.9680 O.3   316  FUC316     -0.3508
@<TRIPOS>BOND
     1     1    10    1
     2     1     2    1
     3    10     5    1
     4     7     2    1
     5     2     3    1
     6     6     5    1
     7     5     4    1
     8     3     4    1
     9     3     8    1
    10     4     9    1
