@<TRIPOS>MOLECULE
1ywn_LIF_A_1.pdb
 39 43 0 0 0
SMALL
GASTEIGER

@<TRIPOS>ATOM
      1  F1         4.6410   41.8490   18.2980 F     301  LIF301     -0.1659
      2  C2         4.9500   42.2660   17.1000 C.3   301  LIF301      0.4186
      3  F3         5.3160   43.5080   17.1920 F     301  LIF301     -0.1659
      4  F4         5.9440   41.5700   16.6620 F     301  LIF301     -0.1659
      5  C5         3.7680   42.1300   16.1740 C.ar  301  LIF301      0.0729
      6  C6         3.4300   40.8830   15.6470 C.ar  301  LIF301      0.0228
      7  C10        3.0150   43.2480   15.8690 C.ar  301  LIF301      0.0062
      8  C9         1.8980   43.1380   15.0300 C.ar  301  LIF301      0.0309
      9  C8         1.5660   41.8970   14.5170 C.ar  301  LIF301      0.1554
     10  F11        0.4930   41.7770   13.7130 F     301  LIF301     -0.2028
     11  C7         2.2980   40.7560   14.7990 C.ar  301  LIF301      0.1023
     12  N12        1.8040   39.5650   14.3130 N.am  301  LIF301     -0.1584
     13  C13        2.0040   38.3420   14.8260 C.2   301  LIF301      0.3478
     14  O14        2.6380   38.2020   15.8760 O.2   301  LIF301     -0.2484
     15  N15        1.4190   37.2820   14.1990 N.am  301  LIF301     -0.1607
     16  C16        1.3300   35.9900   14.6510 C.ar  301  LIF301      0.0750
     17  C17        2.0570   35.4300   15.6960 C.ar  301  LIF301      0.0166
     18  C18        1.8540   34.1140   16.0970 C.ar  301  LIF301      0.0011
     19  C19        0.9030   33.3070   15.4740 C.ar  301  LIF301      0.0001
     20  C20        0.1820   33.8440   14.4180 C.ar  301  LIF301      0.0011
     21  C21        0.3970   35.1490   14.0510 C.ar  301  LIF301      0.0166
     22  C22        0.7000   31.9510   16.0320 C.2   301  LIF301      0.0328
     23  C23       -0.4420   31.4990   16.6070 C.2   301  LIF301      0.1437
     24  C32       -1.8180   32.0870   16.7400 C.ar  301  LIF301      0.0345
     25  C33       -2.0930   33.4320   16.6940 C.ar  301  LIF301      0.0061
     26  C34       -3.4090   33.8810   16.8200 C.ar  301  LIF301      0.0370
     27  C35       -4.4260   32.9430   16.9900 C.ar  301  LIF301      0.1387
     28  C36       -4.1400   31.5900   17.0170 C.ar  301  LIF301      0.0370
     29  C37       -2.8380   31.1590   16.8950 C.ar  301  LIF301      0.0061
     30  O38       -5.7100   33.4020   17.1220 O.3   301  LIF301     -0.4714
     31  C39       -6.7840   32.5470   17.5240 C.3   301  LIF301      0.2525
     32  O24       -0.2560   30.1620   17.1170 O.2   301  LIF301     -0.4395
     33  C25        0.9640   29.8560   16.9000 C.2   301  LIF301      0.2207
     34  N26        1.5350   28.7010   17.2190 N.2   301  LIF301     -0.1873
     35  C30        1.6690   30.8600   16.2560 C.3   301  LIF301      0.2147
     36  C29        3.0060   30.6780   15.9110 C.2   301  LIF301      0.4015
     37  N31        3.7420   31.6120   15.2690 N.pl3 301  LIF301      0.2115
     38  N28        3.5510   29.4970   16.2800 N.2   301  LIF301     -0.0324
     39  C27        2.8460   28.5390   16.9040 C.3   301  LIF301      0.3940
@<TRIPOS>BOND
     1    10     9    1
     2    21    20   ar
     3    21    16   ar
     4    15    16    1
     5    15    13   am
     6    12    11    1
     7    12    13   am
     8    20    19   ar
     9     9    11   ar
    10     9     8   ar
    11    16    17   ar
    12    11     6   ar
    13    13    14    2
    14     8     7   ar
    15    37    36    1
    16    19    22    1
    17    19    18   ar
    18     6     5   ar
    19    17    18   ar
    20     7     5   ar
    21    36    35    1
    22    36    38    2
    23    22    35    1
    24    22    23    2
    25     5     2    1
    26    35    33    1
    27    38    39    1
    28    23    24    1
    29    23    32    1
    30     4     2    1
    31    25    24   ar
    32    25    26   ar
    33    24    29   ar
    34    26    27   ar
    35    29    28   ar
    36    33    32    1
    37    33    34    2
    38    39    34    1
    39    27    28   ar
    40    27    30    1
    41     2     3    1
    42     2     1    1
    43    30    31    1
