@<TRIPOS>MOLECULE
1ywq_FMN_A_1.pdb
 31 33 0 0 0
SMALL
GASTEIGER

@<TRIPOS>ATOM
      1  N1        26.4370   21.2100   -7.8290 N.2   201  FMN201     -0.2887
      2  C2        27.1830   21.3990   -8.9650 C.1   201  FMN201      0.3669
      3  O2        27.6370   20.4760   -9.6150 O.2   201  FMN201     -0.1744
      4  N3        27.3870   22.7490   -9.3430 N.2   201  FMN201     -0.2300
      5  C4        26.9020   23.9270   -8.6700 C.1   201  FMN201      0.2513
      6  O4        27.1530   25.0430   -9.1190 O.2   201  FMN201     -0.2057
      7  C4A       26.1380   23.6670   -7.5180 C.2   201  FMN201      0.2703
      8  N5        25.5330   24.6160   -6.6920 N.2   201  FMN201     -0.3882
      9  C5A       24.7330   24.4660   -5.5490 C.2   201  FMN201      0.1277
     10  C6        24.1530   25.6140   -4.8150 C.3   201  FMN201      0.0820
     11  C7        23.2920   25.3490   -3.6360 C.2   201  FMN201     -0.0408
     12  C7M       22.6980   26.5490   -2.9060 C.3   201  FMN201      0.0265
     13  C8        23.0390   23.9540   -3.2240 C.2   201  FMN201     -0.0280
     14  C8M       22.1490   23.5110   -2.0170 C.3   201  FMN201      0.0304
     15  C9        23.6490   22.9000   -3.9820 C.2   201  FMN201      0.0123
     16  C9A       24.5060   23.1480   -5.1590 C.2   201  FMN201      0.0793
     17  N10       25.1260   22.1530   -5.9680 N.pl3 201  FMN201     -0.2545
     18  C10       25.9290   22.2880   -7.1310 C.2   201  FMN201      0.2449
     19  C1'       24.8370   20.7960   -5.4930 C.3   201  FMN201      0.1336
     20  C2'       25.6250   20.2790   -4.2790 C.3   201  FMN201      0.2048
     21  O2'       27.0160   20.1090   -4.5620 O.3   201  FMN201     -0.2185
     22  C3'       24.9500   19.0110   -4.0580 C.3   201  FMN201      0.2165
     23  O3'       23.5570   19.2730   -3.8030 O.3   201  FMN201     -0.2175
     24  C4'       25.4020   18.1010   -2.9250 C.3   201  FMN201      0.2147
     25  O4'       26.8120   17.8270   -2.9260 O.3   201  FMN201     -0.2176
     26  C5'       24.6440   16.9760   -3.3290 C.3   201  FMN201      0.1892
     27  O5'       24.6580   15.8560   -2.6870 O.3   201  FMN201     -0.2674
     28  P         23.7100   14.9270   -3.4150 P.3   201  FMN201      0.5327
     29  O1P       24.1690   13.9620   -4.4370 O.2   201  FMN201     -0.2224
     30  O2P       22.4030   14.7410   -2.7220 O.3   201  FMN201     -0.1145
     31  O3P       24.2270   14.1010   -2.3220 O.3   201  FMN201     -0.1145
@<TRIPOS>BOND
     1     3     2    2
     2     4     2    2
     3     4     5    2
     4     6     5    2
     5     2     1    2
     6     5     7    1
     7     1    18    2
     8     7    18    1
     9     7     8    2
    10    18    17    1
    11     8     9    2
    12    17    19    1
    13    17    16    1
    14     9    16    1
    15     9    10    1
    16    19    20    1
    17    16    15    2
    18    10    11    1
    19    21    20    1
    20    29    28    2
    21    20    22    1
    22    22    23    1
    23    22    24    1
    24    15    13    1
    25    11    13    2
    26    11    12    1
    27    28    30    1
    28    28    27    1
    29    28    31    1
    30    26    24    1
    31    26    27    1
    32    13    14    1
    33    25    24    1
