@<TRIPOS>MOLECULE
1ywr_LI9_A_1.pdb
 35 39 0 0 0
SMALL
GASTEIGER

@<TRIPOS>ATOM
      1  C1         5.4490   -0.5080   18.6240 C.ar  361  LI9361      0.0025
      2  C2         4.5650   -0.8100   16.0060 C.ar  361  LI9361      0.0296
      3  C3         4.1820   -1.0730   18.3820 C.ar  361  LI9361      0.0063
      4  C4         6.2850   -0.0910   17.5860 C.ar  361  LI9361      0.0296
      5  C5         5.8100   -0.2570   16.2890 C.ar  361  LI9361      0.1401
      6  C6         3.7370   -1.2240   17.0600 C.ar  361  LI9361      0.0025
      7  C7         3.3810   -1.4790   19.5430 C.ar  361  LI9361      0.0772
      8  F9         6.5990    0.1370   15.2950 F     361  LI9361     -0.2042
      9  N10        2.1750   -2.9890   20.8490 N.ar  361  LI9361     -0.2381
     10  C11        1.4800   -4.1590   21.3750 C.3   361  LI9361      0.1093
     11  C12        1.5760   -1.6340   22.7780 C.3   361  LI9361      0.1519
     12  C13        2.9080   -0.8680   20.6510 C.ar  361  LI9361      0.1112
     13  C14        3.0750    0.5310   21.0580 C.2   361  LI9361      0.1629
     14  O15        3.0970   -3.8030   18.8770 O.2   361  LI9361     -0.2655
     15  C16        2.8950   -2.9020   19.6670 C.ar  361  LI9361      0.2763
     16  N17        2.1780   -1.7310   21.4660 N.ar  361  LI9361     -0.2633
     17  C18       -0.5900   -5.5720   21.2130 C.3   361  LI9361      0.0907
     18  C19        1.5360   -6.6780   21.4960 C.3   361  LI9361      0.0907
     19  C20        2.3150   -5.4200   21.1320 C.3   361  LI9361      0.0432
     20  C21        0.0810   -4.2770   20.7600 C.3   361  LI9361      0.0432
     21  N22        0.2420   -6.7070   20.8160 N.3   361  LI9361     -0.2179
     22  N23        3.2280    0.8200   22.3590 N.2   361  LI9361     -0.3348
     23  C24        3.2290    2.8090   20.5140 C.2   361  LI9361      0.1145
     24  N25        3.5370    2.4650   23.9890 N.pl3 361  LI9361     -0.1594
     25  C26        3.0690    1.5140   20.0850 C.2   361  LI9361      0.0561
     26  C27        3.3780    2.1050   22.6890 C.1   361  LI9361      0.1655
     27  N28        3.3840    3.1140   21.8130 N.2   361  LI9361     -0.1686
     28  C29        3.4450    1.5650   25.0990 C.3   361  LI9361      0.1269
     29  C30        2.1050    0.8860   25.2920 C.ar  361  LI9361     -0.0018
     30  C31        3.7960    2.3060   26.4050 C.3   361  LI9361      0.0291
     31  C32       -0.3270   -0.4290   25.6950 C.ar  361  LI9361     -0.0000
     32  C33        2.0630   -0.3090   26.0290 C.ar  361  LI9361     -0.0026
     33  C34        0.9180    1.4030   24.7670 C.ar  361  LI9361     -0.0026
     34  C35       -0.2990    0.7500   24.9650 C.ar  361  LI9361     -0.0003
     35  C36        0.8460   -0.9520   26.2220 C.ar  361  LI9361     -0.0003
@<TRIPOS>BOND
     1     8     5    1
     2     2     5   ar
     3     2     6   ar
     4     5     4   ar
     5     6     3   ar
     6     4     1   ar
     7     3     1   ar
     8     3     7    1
     9    14    15    2
    10     7    15   ar
    11     7    12   ar
    12    15     9   ar
    13    25    23    2
    14    25    13    1
    15    23    27    1
    16    12    13    1
    17    12    16   ar
    18    20    17    1
    19    20    10    1
    20    21    17    1
    21    21    18    1
    22     9    10    1
    23     9    16   ar
    24    13    22    2
    25    19    10    1
    26    19    18    1
    27    16    11    1
    28    27    26    2
    29    22    26    2
    30    26    24    1
    31    24    28    1
    32    33    34   ar
    33    33    29   ar
    34    34    31   ar
    35    28    29    1
    36    28    30    1
    37    29    32   ar
    38    31    35   ar
    39    32    35   ar
