@<TRIPOS>MOLECULE
1ywt_III_C_1.pdb
 50 52 0 0 0
SMALL
GASTEIGER

@<TRIPOS>ATOM
      1  N         33.6650   37.9590   66.6020 N.3     4  SER4       -0.1202
      2  CA        33.0330   39.3070   66.7240 C.3     4  SER4        0.2020
      3  C         31.6120   39.2700   66.1900 C.2     4  SER4        0.2619
      4  O         31.2930   38.4790   65.3030 O.2     4  SER4       -0.2717
      5  CB        33.8450   40.3500   65.9510 C.3     4  SER4        0.2103
      6  OG        35.1880   40.3750   66.4050 O.3     4  SER4       -0.2182
      7  N         30.7570   40.1270   66.7330 N.am    5  HIS5       -0.1961
      8  CA        29.3680   40.1800   66.3070 C.3     5  HIS5        0.1784
      9  C         29.1150   41.1560   65.1770 C.2     5  HIS5        0.2621
     10  O         29.6270   42.2690   65.1760 O.2     5  HIS5       -0.2715
     11  CB        28.5110   40.5510   67.5140 C.3     5  HIS5        0.0745
     12  CG        28.2630   39.4080   68.4470 C.2     5  HIS5        0.0653
     13  ND1       27.2150   38.5270   68.2810 N.2     5  HIS5       -0.2310
     14  CD2       28.9510   38.9760   69.5310 C.3     5  HIS5        0.1683
     15  CE1       27.2670   37.6030   69.2230 C.2     5  HIS5        0.1939
     16  NE2       28.3110   37.8520   69.9940 N.2     5  HIS5       -0.2440
     17  N         28.3220   40.7140   64.2100 N.am    6  SER6       -0.1937
     18  CA        27.9500   41.5310   63.0700 C.3     6  SER6        0.2027
     19  CB        28.7120   41.0280   61.8410 C.3     6  SER6        0.1847
     20  OG        28.1380   39.8520   61.2960 O.3     6  SER6       -0.2679
     21  C         26.4460   41.4670   62.8530 C.2     6  SER6        0.2642
     22  O         25.7890   40.5430   63.3230 O.2     6  SER6       -0.2714
     23  P         28.8510   39.2630   60.2190 P.3     6  SER6        0.5327
     24  O1P       30.4270   39.2400   60.5560 O.3     6  SER6       -0.1145
     25  O2P       28.5880   40.1300   58.8870 O.2     6  SER6       -0.2224
     26  O3P       28.3260   37.7570   60.0150 O.3     6  SER6       -0.1145
     27  N         25.8960   42.4510   62.1570 N.am    7  TYR7       -0.1960
     28  CA        24.4610   42.4830   61.9240 C.3     7  TYR7        0.1756
     29  C         24.0900   42.7890   60.4820 C.2     7  TYR7        0.2461
     30  O         24.6200   43.7180   59.8820 O.2     7  TYR7       -0.2730
     31  CB        23.8710   43.5170   62.8790 C.3     7  TYR7        0.0574
     32  CG        22.4760   43.9760   62.5320 C.ar    7  TYR7       -0.0198
     33  CD1       22.2670   44.9530   61.5590 C.ar    7  TYR7       -0.0009
     34  CD2       21.3660   43.4560   63.1940 C.ar    7  TYR7       -0.0009
     35  CE1       20.9860   45.4080   61.2560 C.ar    7  TYR7        0.0417
     36  CE2       20.0770   43.9010   62.8970 C.ar    7  TYR7        0.0417
     37  CZ        19.8960   44.8810   61.9290 C.ar    7  TYR7        0.1957
     38  OH        18.6310   45.3490   61.6460 O.3     7  TYR7       -0.2866
     39  N         23.1620   42.0050   59.9060 N.am    8  PRO8       -0.2716
     40  CA        22.4650   40.8750   60.5360 C.3     8  PRO8        0.1536
     41  C         23.3990   39.7050   60.8640 C.2     8  PRO8        0.2598
     42  O         24.5230   39.6470   60.3660 O.2     8  PRO8       -0.2715
     43  CB        21.4100   40.5060   59.4970 C.3     8  PRO8        0.0310
     44  CG        22.1220   40.7940   58.2060 C.3     8  PRO8        0.0237
     45  CD        22.7760   42.1330   58.4880 C.3     8  PRO8        0.0939
     46  N         22.9290   38.7760   61.6940 N.am    9  ALA9       -0.1978
     47  CA        23.7340   37.6200   62.0900 C.3     9  ALA9        0.1597
     48  C         23.4770   36.3720   61.2460 C.2     9  ALA9        0.2287
     49  O         22.6340   36.4270   60.3250 O.2     9  ALA9       -0.2864
     50  CB        23.4960   37.3040   63.5600 C.3     9  ALA9        0.0319
@<TRIPOS>BOND
     1    44    45    1
     2    44    43    1
     3    45    39    1
     4    25    23    2
     5    43    40    1
     6    30    29    2
     7    39    29   am
     8    39    40    1
     9    26    23    1
    10    23    24    1
    11    23    20    1
    12    49    48    2
    13    42    41    2
    14    29    28    1
    15    40    41    1
    16    41    46   am
    17    48    47    1
    18    35    33   ar
    19    35    37   ar
    20    20    19    1
    21    33    32   ar
    22    38    37    1
    23    46    47    1
    24    19    18    1
    25    28    27    1
    26    28    31    1
    27    37    36   ar
    28    47    50    1
    29    27    21   am
    30    32    31    1
    31    32    34   ar
    32    21    18    1
    33    21    22    2
    34    36    34   ar
    35    18    17    1
    36    17     9   am
    37    10     9    2
    38     9     8    1
    39     4     3    2
    40     5     6    1
    41     5     2    1
    42     3     2    1
    43     3     7   am
    44     8     7    1
    45     8    11    1
    46     1     2    1
    47    11    12    1
    48    13    12    2
    49    13    15    1
    50    12    14    1
    51    15    16    2
    52    14    16    1
