@<TRIPOS>MOLECULE
1yxd_LYS_B_1.pdb
 10 9 0 0 0
SMALL
GASTEIGER

@<TRIPOS>ATOM
      1  N        -42.7470   25.1820    5.3700 N.3   1300  LYS1300    -0.1208
      2  CA       -43.1380   24.5490    6.6710 C.3   1300  LYS1300     0.1943
      3  C        -41.9400   24.3840    7.5560 C.2   1300  LYS1300     0.3819
      4  O        -40.7960   24.5660    7.1240 O.co2 1300  LYS1300    -0.2441
      5  CB       -43.8030   23.1790    6.4790 C.3   1300  LYS1300     0.0307
      6  CG       -42.8940   22.0770    5.9150 C.3   1300  LYS1300     0.0036
      7  CD       -43.7420   20.8480    5.5670 C.3   1300  LYS1300     0.0206
      8  CE       -43.0160   19.5230    5.5360 C.3   1300  LYS1300     0.1093
      9  NZ       -41.8270   19.5670    4.7040 N.3   1300  LYS1300    -0.1314
     10  OXT      -42.0740   24.0590    8.7390 O.co2 1300  LYS1300    -0.2441
@<TRIPOS>BOND
     1     9     8    1
     2     1     2    1
     3     8     7    1
     4     7     6    1
     5     6     5    1
     6     5     2    1
     7     2     3    1
     8     4     3   ar
     9     3    10   ar
