@<TRIPOS>MOLECULE
1yxi_F6P_A_1.pdb
 16 16 0 0 0
SMALL
GASTEIGER

@<TRIPOS>ATOM
      1  O1        10.9670    9.3020   26.8540 O.3   339  F6P339     -0.2148
      2  C1         9.5960    9.6670   26.8650 C.3   339  F6P339      0.2434
      3  C2         8.7120    8.4850   27.2190 C.3   339  F6P339      0.2807
      4  O2         9.0990    7.3420   26.4800 O.3   339  F6P339     -0.1896
      5  C3         7.2220    8.7700   27.0500 C.3   339  F6P339      0.2409
      6  O3         6.7950    8.5140   25.7280 O.3   339  F6P339     -0.2149
      7  C4         6.5910    7.8400   28.0790 C.3   339  F6P339      0.2167
      8  O4         5.3800    8.4150   28.5520 O.3   339  F6P339     -0.2175
      9  C5         7.6360    7.7970   29.1890 C.3   339  F6P339      0.1808
     10  O5         8.9050    8.1740   28.5830 O.3   339  F6P339     -0.3254
     11  C6         7.7760    6.4340   29.8320 C.3   339  F6P339      0.1859
     12  O6         8.8360    6.5040   30.8090 O.3   339  F6P339     -0.2675
     13  P          8.9100    5.4180   32.0260 P.3   339  F6P339      0.5327
     14  O1P        9.8060    6.0700   33.0710 O.3   339  F6P339     -0.1145
     15  O2P        9.5220    4.1610   31.4380 O.2   339  F6P339     -0.2224
     16  O3P        7.4860    5.1870   32.5100 O.3   339  F6P339     -0.1145
@<TRIPOS>BOND
     1     6     5    1
     2     4     3    1
     3     1     2    1
     4     2     3    1
     5     5     3    1
     6     5     7    1
     7     3    10    1
     8     7     8    1
     9     7     9    1
    10    10     9    1
    11     9    11    1
    12    11    12    1
    13    12    13    1
    14    15    13    2
    15    13    16    1
    16    13    14    1
