@<TRIPOS>MOLECULE
1yxq_ATP_A_1.pdb
 31 33 0 0 0
SMALL
GASTEIGER

@<TRIPOS>ATOM
      1  PG         8.7750   -0.8270   45.3830 P.3   1380  ATP1380     0.5373
      2  O1G        8.2070   -1.9460   46.1800 O.3   1380  ATP1380    -0.1143
      3  O2G        9.9210   -0.1230   46.0860 O.3   1380  ATP1380    -0.1143
      4  O3G        9.2440   -1.2310   43.9630 O.2   1380  ATP1380    -0.2221
      5  PB         6.8420    0.9150   44.0900 P.3   1380  ATP1380     0.2277
      6  O1B        5.5180    1.2650   44.5300 O.3   1380  ATP1380    -0.4368
      7  O2B        7.0240    0.1350   42.7900 O.2   1380  ATP1380    -0.5168
      8  O3B        7.5350    0.2130   45.3520 O.3   1380  ATP1380    -0.2258
      9  PA         7.6900    3.3390   42.7930 P.3   1380  ATP1380     0.2189
     10  O1A        8.5740    2.9230   41.6850 O.2   1380  ATP1380    -0.5170
     11  O2A        6.2390    3.5740   42.4320 O.3   1380  ATP1380    -0.4371
     12  O3A        7.7030    2.2660   43.9820 O.3   1380  ATP1380    -0.2700
     13  O5'        8.3600    4.5590   43.5670 O.3   1380  ATP1380    -0.3112
     14  C5'        7.6560    5.3270   44.5320 C.3   1380  ATP1380     0.1813
     15  C4'        8.5460    6.5270   44.8180 C.3   1380  ATP1380     0.1821
     16  O4'        8.8200    7.1900   43.5750 O.3   1380  ATP1380    -0.3135
     17  C3'        7.8930    7.5050   45.7600 C.3   1380  ATP1380     0.2184
     18  O3'        8.8320    7.8650   46.7350 O.3   1380  ATP1380    -0.2174
     19  C2'        7.5530    8.6780   44.8570 C.3   1380  ATP1380     0.2570
     20  O2'        7.5320    9.9160   45.5610 O.3   1380  ATP1380    -0.2130
     21  C1'        8.7070    8.5740   43.8430 C.3   1380  ATP1380     0.3186
     22  N9         8.4780    9.3050   42.5900 N.pl3 1380  ATP1380    -0.1439
     23  C8         7.4220    9.1660   41.7160 C.3   1380  ATP1380     0.3377
     24  N7         7.5970   10.0560   40.7060 N.2   1380  ATP1380    -0.2095
     25  C5         8.7390   10.7550   40.9510 C.2   1380  ATP1380     0.2526
     26  C6         9.3740   11.7790   40.2680 C.2   1380  ATP1380     0.4393
     27  N6         8.8250   12.3600   39.1870 N.pl3 1380  ATP1380     0.2180
     28  N1        10.5510   12.2750   40.7980 N.2   1380  ATP1380     0.0021
     29  C2        11.0670   11.7950   41.9860 C.3   1380  ATP1380     0.5254
     30  N3        10.4280   10.7870   42.6710 N.2   1380  ATP1380    -0.0055
     31  C4         9.2780   10.3000   42.1400 C.2   1380  ATP1380     0.3518
@<TRIPOS>BOND
     1    27    26    1
     2    26    28    2
     3    26    25    1
     4    24    25    2
     5    24    23    1
     6    28    29    1
     7    25    31    1
     8    10     9    2
     9    23    22    1
    10    29    30    1
    11    31    22    1
    12    31    30    2
    13    11     9    1
    14    22    21    1
    15     7     5    2
    16     9    13    1
    17     9    12    1
    18    13    14    1
    19    16    21    1
    20    16    15    1
    21    21    19    1
    22     4     1    2
    23    12     5    1
    24     5     6    1
    25     5     8    1
    26    14    15    1
    27    15    17    1
    28    19    20    1
    29    19    17    1
    30     8     1    1
    31     1     3    1
    32     1     2    1
    33    17    18    1
