@<TRIPOS>MOLECULE
1yxt_ANP_A_1.pdb
 31 34 0 0 0
SMALL
GASTEIGER

@<TRIPOS>ATOM
      1  PG        73.3750   27.8660    2.7440 P.3   322  ANP322      0.4885
      2  O1G       72.8720   26.4130    3.3510 O.2   322  ANP322     -0.2331
      3  O2G       73.0270   28.0080    1.2780 O.3   322  ANP322     -0.1233
      4  O3G       72.9650   29.0880    3.8320 O.3   322  ANP322     -0.1240
      5  PB        76.3880   28.4670    1.8730 P.3   322  ANP322      0.4700
      6  O1B       77.3690   27.5870    1.0400 O.2   322  ANP322     -0.2350
      7  O2B       77.2990   29.1030    3.0430 O.3   322  ANP322     -0.1252
      8  N3B       75.1450   27.5920    2.7050 N.3   322  ANP322     -0.0162
      9  PA        74.7220   30.4020    0.6070 P.3   322  ANP322      0.5133
     10  O1A       74.6610   30.6050   -0.9510 O.2   322  ANP322     -0.2243
     11  O2A       73.5950   29.6470    1.4270 O.3   322  ANP322     -0.1164
     12  O3A       76.0980   29.7180    0.9330 O.3   322  ANP322     -0.1916
     13  O5'       74.8740   31.8550    1.2410 O.3   322  ANP322     -0.2688
     14  C5'       75.2530   31.8450    2.6020 C.3   322  ANP322      0.1859
     15  C4'       74.5110   32.9850    3.2510 C.3   322  ANP322      0.1823
     16  O4'       74.8160   34.2710    2.6860 O.3   322  ANP322     -0.3135
     17  C3'       72.9980   32.8680    3.2630 C.3   322  ANP322      0.2184
     18  O3'       72.4290   32.1260    4.3120 O.3   322  ANP322     -0.2174
     19  C2'       72.5390   34.2910    3.0390 C.3   322  ANP322      0.2570
     20  O2'       72.3740   34.8250    4.3570 O.3   322  ANP322     -0.2130
     21  C1'       73.6790   35.0980    2.5200 C.3   322  ANP322      0.3186
     22  N9        73.5090   35.2970    1.0670 N.pl3 322  ANP322     -0.1439
     23  C8        73.7790   34.3810    0.1080 C.3   322  ANP322      0.3377
     24  N7        73.5420   34.8540   -1.1580 N.2   322  ANP322     -0.2095
     25  C5        73.0770   36.0880   -1.0120 C.2   322  ANP322      0.2526
     26  C6        72.6170   37.1870   -1.8640 C.2   322  ANP322      0.4393
     27  N6        72.5890   37.0010   -3.2000 N.pl3 322  ANP322      0.2180
     28  N1        72.2440   38.3540   -1.2970 N.2   322  ANP322      0.0021
     29  C2        72.2500   38.5500    0.0290 C.3   322  ANP322      0.5254
     30  N3        72.6460   37.6120    0.9150 N.2   322  ANP322     -0.0055
     31  C4        73.0750   36.3510    0.4020 C.2   322  ANP322      0.3518
@<TRIPOS>BOND
     1    27    26    1
     2    26    28    2
     3    26    25    1
     4    28    29    1
     5    24    25    2
     6    24    23    1
     7    25    31    1
     8    10     9    2
     9    29    30    1
    10    23    22    1
    11    31    30    2
    12    31    22    1
    13     9    12    1
    14     9    13    1
    15     9    11    1
    16    12     5    1
    17     6     5    2
    18    22    21    1
    19    13    14    1
    20     3    11    1
    21     3     1    1
    22     5     8    1
    23     5     7    1
    24    21    16    1
    25    21    19    1
    26    14    15    1
    27    16    15    1
    28     8     1    1
    29     1     2    2
    30     1     4    1
    31    19    17    1
    32    19    20    1
    33    15    17    1
    34    17    18    1
