@<TRIPOS>MOLECULE
1yxu_AMP_A_1.pdb
 23 25 0 0 0
SMALL
GASTEIGER

@<TRIPOS>ATOM
      1  P         12.0270   90.0790   22.4690 P.3   550  AMP550      0.5327
      2  O1P       13.3700   90.6090   22.0640 O.3   550  AMP550     -0.1145
      3  O2P       11.3540   89.1530   21.4090 O.2   550  AMP550     -0.2224
      4  O3P       11.0840   91.2940   22.6890 O.3   550  AMP550     -0.1145
      5  O5'       12.2410   89.2310   23.8400 O.3   550  AMP550     -0.2675
      6  C5'       11.2130   88.4060   24.3620 C.3   550  AMP550      0.1860
      7  C4'       11.0430   88.6970   25.8610 C.3   550  AMP550      0.1823
      8  O4'        9.6910   88.8200   26.3050 O.3   550  AMP550     -0.3135
      9  C3'       11.5930   87.5770   26.6710 C.3   550  AMP550      0.2184
     10  O3'       12.1610   88.1850   27.8010 O.3   550  AMP550     -0.2174
     11  C2'       10.3550   86.7300   26.9530 C.3   550  AMP550      0.2570
     12  O2'       10.5120   85.9250   28.1000 O.3   550  AMP550     -0.2130
     13  C1'        9.2220   87.7350   27.0890 C.3   550  AMP550      0.3186
     14  N9         7.9150   87.2450   26.5710 N.pl3 550  AMP550     -0.1439
     15  C8         6.7310   87.0480   27.2720 C.3   550  AMP550      0.3377
     16  N7         5.7670   86.6050   26.4090 N.2   550  AMP550     -0.2095
     17  C5         6.3230   86.5180   25.1690 C.2   550  AMP550      0.2526
     18  C6         5.8220   86.1260   23.9290 C.2   550  AMP550      0.4393
     19  N6         4.5500   85.7450   23.8300 N.pl3 550  AMP550      0.2180
     20  N1         6.6480   86.1580   22.8020 N.2   550  AMP550      0.0021
     21  C2         7.9780   86.5690   22.8850 C.3   550  AMP550      0.5254
     22  N3         8.4750   86.9460   24.1270 N.2   550  AMP550     -0.0055
     23  C4         7.6660   86.9270   25.2460 C.2   550  AMP550      0.3518
@<TRIPOS>BOND
     1     3     1    2
     2     2     1    1
     3     1     4    1
     4     1     5    1
     5    20    21    1
     6    20    18    2
     7    21    22    1
     8    19    18    1
     9     5     6    1
    10    18    17    1
    11    22    23    2
    12     6     7    1
    13    17    23    1
    14    17    16    2
    15    23    14    1
    16     7     8    1
    17     7     9    1
    18     8    13    1
    19    16    15    1
    20    14    13    1
    21    14    15    1
    22     9    11    1
    23     9    10    1
    24    11    13    1
    25    11    12    1
