@<TRIPOS>MOLECULE
1yxv_LI6_A_1.pdb
 14 15 0 0 0
SMALL
GASTEIGER

@<TRIPOS>ATOM
      1  C4        74.0870   37.5300   -1.2750 C.ar  323  LI6323      0.0174
      2  C5        74.5790   36.2600   -0.9600 C.ar  323  LI6323      0.0658
      3  C6        74.9190   35.9720    0.4580 C.ar  323  LI6323      0.0582
      4  C7        75.4370   34.6360    0.8230 C.ar  323  LI6323      0.2404
      5  C8        75.6130   33.6140   -0.2330 C.ar  323  LI6323      0.2898
      6  O12       75.3930   33.0960   -2.5260 O.2   323  LI6323     -0.2633
      7  C9        75.2530   33.9680   -1.6350 C.ar  323  LI6323      0.3033
      8  O13       76.0810   32.3990    0.0780 O.3   323  LI6323     -0.2780
      9  N10       74.7490   35.2600   -1.9480 N.ar  323  LI6323     -0.2907
     10  C11       74.3950   35.5920   -3.3270 C.3   323  LI6323      0.1336
     11  O14       75.7440   34.3700    2.0830 O.3   323  LI6323     -0.2829
     12  C3        73.9300   38.4760   -0.2650 C.ar  323  LI6323      0.0015
     13  C2        74.2550   38.1940    1.0630 C.ar  323  LI6323      0.0002
     14  C1        74.7460   36.9490    1.4320 C.ar  323  LI6323      0.0047
@<TRIPOS>BOND
     1    10     9    1
     2     6     7    2
     3     9     7   ar
     4     9     2   ar
     5     7     5   ar
     6     1     2   ar
     7     1    12   ar
     8     2     3   ar
     9    12    13   ar
    10     5     8    1
    11     5     4   ar
    12     3     4   ar
    13     3    14   ar
    14     4    11    1
    15    13    14   ar
