@<TRIPOS>MOLECULE
1yxw_TYR_A_1.pdb
 12 12 0 0 0
SMALL
GASTEIGER

@<TRIPOS>ATOM
      1  N         48.5140   -8.0170   62.6490 N.3   5292  TYR5292    -0.1241
      2  CA        49.7000   -8.5940   61.9470 C.3   5292  TYR5292     0.1605
      3  C         50.3420   -7.5730   61.0260 C.2   5292  TYR5292     0.2264
      4  O         50.5000   -6.4080   61.3870 O.2   5292  TYR5292    -0.2867
      5  CB        49.3070   -9.8260   61.1130 C.3   5292  TYR5292     0.0534
      6  CG        48.2910   -9.5960   59.9980 C.ar  5292  TYR5292    -0.0201
      7  CD1       48.2010   -8.3710   59.3130 C.ar  5292  TYR5292    -0.0009
      8  CD2       47.4490  -10.6290   59.5900 C.ar  5292  TYR5292    -0.0009
      9  CE1       47.3080   -8.1910   58.2600 C.ar  5292  TYR5292     0.0417
     10  CE2       46.5510  -10.4560   58.5370 C.ar  5292  TYR5292     0.0417
     11  CZ        46.4850   -9.2380   57.8800 C.ar  5292  TYR5292     0.1957
     12  OH        45.5780   -9.0820   56.8500 O.3   5292  TYR5292    -0.2866
@<TRIPOS>BOND
     1    12    11    1
     2    11     9   ar
     3    11    10   ar
     4     9     7   ar
     5    10     8   ar
     6     7     6   ar
     7     8     6   ar
     8     6     5    1
     9     3     4    2
    10     3     2    1
    11     5     2    1
    12     2     1    1
