@<TRIPOS>MOLECULE
1yxw_TRP_A_1.pdb
 15 16 0 0 0
SMALL
GASTEIGER

@<TRIPOS>ATOM
      1  N         51.9980   -7.8240   56.5630 N.3   5294  TRP5294    -0.1205
      2  CA        52.7620   -8.5400   55.5570 C.3   5294  TRP5294     0.1987
      3  C         54.1650   -7.9190   55.5290 C.2   5294  TRP5294     0.3822
      4  O         54.7480   -7.7320   54.4370 O.co2 5294  TRP5294    -0.2440
      5  CB        52.0630   -8.4070   54.1980 C.3   5294  TRP5294     0.0585
      6  CG        52.3340   -7.1160   53.5130 C.2   5294  TRP5294     0.0001
      7  CD1       52.4530   -5.8870   54.0950 C.2   5294  TRP5294     0.0946
      8  CD2       52.6100   -6.9300   52.1210 C.2   5294  TRP5294     0.0113
      9  NE1       52.8020   -4.9440   53.1550 N.2   5294  TRP5294    -0.2442
     10  CE2       52.9030   -5.5600   51.9320 C.2   5294  TRP5294     0.0804
     11  CE3       52.6410   -7.7880   51.0120 C.2   5294  TRP5294    -0.0202
     12  CZ2       53.2250   -5.0280   50.6820 C.2   5294  TRP5294     0.0148
     13  CZ3       52.9610   -7.2550   49.7640 C.3   5294  TRP5294     0.0521
     14  CH2       53.2490   -5.8850   49.6140 C.2   5294  TRP5294    -0.0199
     15  OXT       54.6790   -7.6290   56.6310 O.co2 5294  TRP5294    -0.2440
@<TRIPOS>BOND
     1    14    13    1
     2    14    12    2
     3    13    11    1
     4    12    10    1
     5    11     8    2
     6    10     8    1
     7    10     9    2
     8     8     6    1
     9     9     7    1
    10     6     7    2
    11     6     5    1
    12     5     2    1
    13     4     3   ar
    14     3     2    1
    15     3    15   ar
    16     2     1    1
