@<TRIPOS>MOLECULE
1yxx_LI7_A_1.pdb
 18 20 0 0 0
SMALL
GASTEIGER

@<TRIPOS>ATOM
      1  C4        73.9770   36.3200    2.6490 C.2   323  LI7323     -0.0126
      2  C5        73.7700   36.8520    1.3790 C.3   323  LI7323      0.1277
      3  C6        73.3650   38.2400    1.1020 C.2   323  LI7323      0.1320
      4  C8        73.5270   37.3200   -0.9200 C.1   323  LI7323      0.2191
      5  C13       74.8720   31.7760   -1.9220 C.ar  323  LI7323      0.0436
      6  C15       73.9610   33.4550   -3.4080 C.ar  323  LI7323      0.0436
      7  O18       73.4780   37.2380   -2.2100 O.2   323  LI7323     -0.2081
      8  C9        73.8790   36.2200    0.0580 C.2   323  LI7323      0.1631
      9  N7        73.2240   38.4850   -0.2770 N.2   323  LI7323     -0.3357
     10  C3        73.7880   37.1740    3.7320 C.2   323  LI7323     -0.0037
     11  C2        73.4040   38.5150    3.5300 C.2   323  LI7323      0.0020
     12  C1        73.1950   39.0500    2.2410 C.2   323  LI7323      0.0292
     13  N10       74.3010   34.9220   -0.0340 N.2   323  LI7323     -0.2363
     14  C11       74.4000   34.0400   -1.1170 C.ar  323  LI7323      0.0820
     15  C12       74.8380   32.7220   -0.8780 C.ar  323  LI7323      0.0224
     16  C14       74.4220   32.1630   -3.1960 C.ar  323  LI7323      0.1958
     17  O17       74.3950   31.3520   -4.2300 O.3   323  LI7323     -0.2866
     18  C16       73.9350   34.3910   -2.3840 C.ar  323  LI7323      0.0224
@<TRIPOS>BOND
     1    17    16    1
     2     6    16   ar
     3     6    18   ar
     4    16     5   ar
     5    18    14   ar
     6     7     4    2
     7     5    15   ar
     8    14    15   ar
     9    14    13    1
    10     4     9    2
    11     4     8    1
    12     9     3    2
    13    13     8    2
    14     8     2    1
    15     3     2    1
    16     3    12    1
    17     2     1    1
    18    12    11    2
    19     1    10    2
    20    11    10    1
