@<TRIPOS>MOLECULE
1yy4_4NA_A_1.pdb
 19 21 0 0 0
SMALL
GASTEIGER

@<TRIPOS>ATOM
      1  C1        33.4230   36.2570   36.5760 C.ar  201  4NA201      0.2061
      2  C2        32.1680   36.8970   36.2850 C.ar  201  4NA201      0.0965
      3  C3        31.0180   36.6980   37.1690 C.ar  201  4NA201      0.0137
      4  C4        31.1960   35.8510   38.3850 C.ar  201  4NA201      0.0010
      5  C5        32.4550   35.2390   38.6280 C.ar  201  4NA201      0.0033
      6  C6        33.5550   35.4460   37.7440 C.ar  201  4NA201      0.0429
      7  C9        29.7320   37.3100   36.9460 C.ar  201  4NA201      0.0009
      8  C10       28.6550   37.0780   37.8610 C.ar  201  4NA201      0.0000
      9  C11       28.8040   36.2480   39.0450 C.ar  201  4NA201      0.0000
     10  C12       30.0970   35.6320   39.2830 C.ar  201  4NA201      0.0000
     11  C16       27.6250   36.0470   39.9980 C.ar  201  4NA201      0.0002
     12  C17       26.2660   36.1390   39.5170 C.ar  201  4NA201      0.0033
     13  C18       25.1600   35.9670   40.4020 C.ar  201  4NA201      0.0420
     14  C19       25.3940   35.7010   41.7850 C.ar  201  4NA201      0.1957
     15  C20       26.7260   35.6040   42.2980 C.ar  201  4NA201      0.0420
     16  C21       27.8340   35.7770   41.4080 C.ar  201  4NA201      0.0033
     17  O26       24.3080   35.5370   42.6310 O.3   201  4NA201     -0.2866
     18 CL27       32.1100   37.8660   34.8330 Cl    201  4NA201     -0.0789
     19  O28       34.5470   36.4020   35.7720 O.3   201  4NA201     -0.2857
@<TRIPOS>BOND
     1    18     2    1
     2    19     1    1
     3     2     1   ar
     4     2     3   ar
     5     1     6   ar
     6     7     3   ar
     7     7     8   ar
     8     3     4   ar
     9     6     5   ar
    10     8     9   ar
    11     4     5   ar
    12     4    10   ar
    13     9    10   ar
    14     9    11    1
    15    12    11   ar
    16    12    13   ar
    17    11    16   ar
    18    13    14   ar
    19    16    15   ar
    20    14    15   ar
    21    14    17    1
