@<TRIPOS>MOLECULE
1yyd_MAN_A_1.pdb
 11 11 0 0 0
SMALL
GASTEIGER

@<TRIPOS>ATOM
      1  C1        43.8280   28.0770   15.7510 C.3   364  MAN364      0.1777
      2  C2        42.4040   27.7550   15.2880 C.3   364  MAN364      0.2141
      3  C3        42.4420   26.5180   14.3750 C.3   364  MAN364      0.2173
      4  C4        43.3930   26.7570   13.1900 C.3   364  MAN364      0.2142
      5  C5        44.7720   27.2110   13.6980 C.3   364  MAN364      0.1810
      6  C6        45.7710   27.6120   12.6130 C.3   364  MAN364      0.2141
      7  O2        41.8860   28.8600   14.5640 O.3   364  MAN364     -0.2176
      8  O3        41.1420   26.2900   13.8790 O.3   364  MAN364     -0.2175
      9  O4        43.4950   25.5670   12.4270 O.3   364  MAN364     -0.2176
     10  O5        44.6490   28.3140   14.5930 O.3   364  MAN364     -0.3481
     11  O6        47.0280   27.9580   13.1070 O.3   364  MAN364     -0.2176
@<TRIPOS>BOND
     1     9     4    1
     2     6    11    1
     3     6     5    1
     4     4     5    1
     5     4     3    1
     6     5    10    1
     7     8     3    1
     8     3     2    1
     9     7     2    1
    10    10     1    1
    11     2     1    1
