@<TRIPOS>MOLECULE
1yyd_HEM_A_1.pdb
 43 50 0 0 0
SMALL
GASTEIGER

@<TRIPOS>ATOM
      1  CHA       58.0020   24.1110   35.6600 C.2   396  HEM396      0.0000
      2  CHB       59.8650   19.6810   36.3290 C.2   396  HEM396      0.0000
      3  CHC       56.6620   18.7840   39.8530 C.2   396  HEM396      0.0000
      4  CHD       54.9410   23.3620   39.3860 C.2   396  HEM396      0.0000
      5  C1A       58.8060   22.9800   35.5230 C.ar  396  HEM396      0.0000
      6  C2A       59.9860   22.8570   34.6810 C.ar  396  HEM396      0.0000
      7  C3A       60.4940   21.6150   34.8480 C.ar  396  HEM396      0.0000
      8  C4A       59.6840   20.9970   35.8990 C.ar  396  HEM396      0.0000
      9  CMA       61.7430   20.9910   34.2240 C.3   396  HEM396      0.0000
     10  CAA       60.5040   23.9300   33.7170 C.3   396  HEM396      0.0000
     11  CBA       61.4200   24.9460   34.3970 C.3   396  HEM396      0.0000
     12  CGA       62.2150   25.8030   33.4260 C.2   396  HEM396      0.0000
     13  O1A       63.0410   25.2920   32.6460 O.co2 396  HEM396      0.0000
     14  O2A       61.9160   27.0270   33.4010 O.co2 396  HEM396      0.0000
     15  C1B       59.0910   19.0020   37.2790 C.2   396  HEM396      0.0000
     16  C2B       59.3440   17.6540   37.7640 C.2   396  HEM396      0.0000
     17  C3B       58.3710   17.3580   38.6600 C.2   396  HEM396      0.0000
     18  C4B       57.5730   18.5690   38.8310 C.2   396  HEM396      0.0000
     19  CMB       60.4890   16.7520   37.3140 C.3   396  HEM396      0.0000
     20  CAB       58.0640   16.1690   39.3180 C.3   396  HEM396      0.0000
     21  CBB       58.4390   14.8160   39.0230 C.3   396  HEM396      0.0000
     22  C1C       56.0160   20.0060   40.1110 C.ar  396  HEM396      0.0000
     23  C2C       55.0390   20.2320   41.1540 C.ar  396  HEM396      0.0000
     24  C3C       54.6210   21.5160   41.0820 C.ar  396  HEM396      0.0000
     25  C4C       55.2770   22.0910   39.9230 C.ar  396  HEM396      0.0000
     26  CMC       54.7060   19.1670   42.1900 C.3   396  HEM396      0.0000
     27  CAC       53.8120   22.2310   41.9770 C.3   396  HEM396      0.0000
     28  CBC       52.7220   21.7330   42.8000 C.3   396  HEM396      0.0000
     29  C1D       55.5780   23.8950   38.2670 C.2   396  HEM396      0.0000
     30  C2D       55.2540   25.2030   37.7340 C.2   396  HEM396      0.0000
     31  C3D       56.0690   25.3890   36.6680 C.2   396  HEM396      0.0000
     32  C4D       56.9220   24.2230   36.5370 C.2   396  HEM396      0.0000
     33  CMD       54.0540   26.0350   38.1610 C.3   396  HEM396      0.0000
     34  CAD       56.0230   26.5940   35.7300 C.3   396  HEM396      0.0000
     35  CBD       56.9860   27.7530   35.9960 C.3   396  HEM396      0.0000
     36  CGD       56.7700   28.8800   34.9900 C.2   396  HEM396      0.0000
     37  O1D       57.4000   29.9500   35.0990 O.co2 396  HEM396      0.0000
     38  O2D       55.9350   28.7500   34.0460 O.co2 396  HEM396      0.0000
     39  NA        58.6110   21.8080   36.2240 N.ar  396  HEM396      0.0000
     40  NB        58.0640   19.5700   38.0090 N.2   396  HEM396      0.0000
     41  NC        56.1120   21.1440   39.3420 N.ar  396  HEM396      0.0000
     42  ND        56.6320   23.3430   37.5690 N.2   396  HEM396      0.0000
     43 FE         57.2230   21.3820   37.6960 Fe    396  HEM396      0.0000
@<TRIPOS>BOND
     1    13    12   ar
     2    14    12   ar
     3    12    11    1
     4    10    11    1
     5    10     6    1
     6    38    36   ar
     7     9     7    1
     8     6     7   ar
     9     6     5   ar
    10     7     8   ar
    11    36    37   ar
    12    36    35    1
    13     5     1    2
    14     5    39   ar
    15     1    32    1
    16    34    35    1
    17    34    31    1
    18     8    39   ar
    19     8     2    2
    20    39    43    1
    21     2    15    1
    22    32    31    1
    23    32    42    2
    24    31    30    2
    25    15    16    1
    26    15    40    2
    27    19    16    1
    28    42    43    1
    29    42    29    1
    30    43    40    1
    31    43    41    1
    32    30    33    1
    33    30    29    1
    34    16    17    2
    35    40    18    1
    36    29     4    2
    37    17    18    1
    38    17    20    1
    39    18     3    2
    40    21    20    1
    41    41    25   ar
    42    41    22   ar
    43     4    25    1
    44     3    22    1
    45    25    24   ar
    46    22    23   ar
    47    24    23   ar
    48    24    27    1
    49    23    26    1
    50    27    28    1
