@<TRIPOS>MOLECULE
1yye_196_A_1.pdb
 21 23 0 0 0
SMALL
GASTEIGER

@<TRIPOS>ATOM
      1  C1        26.2360   36.2130   41.8980 C.ar  531  196531      0.2229
      2  C2        26.1850   36.5960   40.5190 C.ar  531  196531      0.1788
      3  C3        27.3570   36.6940   39.7290 C.ar  531  196531      0.0330
      4  C4        28.6380   36.4010   40.3130 C.ar  531  196531      0.0025
      5  C5        28.6880   36.0150   41.7110 C.ar  531  196531      0.0034
      6  C6        27.5000   35.9160   42.5040 C.ar  531  196531      0.0444
      7  O10       25.0840   36.1150   42.6680 O.3   531  196531     -0.2842
      8  F11       24.9920   36.8690   39.9840 F     531  196531     -0.2008
      9  C12       29.9010   36.5060   39.4650 C.ar  531  196531      0.0007
     10  C13       31.1260   35.8350   39.8240 C.ar  531  196531      0.0000
     11  C14       32.3060   35.9350   39.0280 C.ar  531  196531      0.0009
     12  C15       32.2740   36.7940   37.8050 C.ar  531  196531      0.0128
     13  C16       31.0360   37.4590   37.4330 C.ar  531  196531      0.0685
     14  C17       29.8930   37.3150   38.2720 C.ar  531  196531      0.0103
     15  C20       33.5020   35.2620   39.4230 C.ar  531  196531      0.0033
     16  C21       34.6740   35.3910   38.6130 C.ar  531  196531      0.0420
     17  C22       34.6630   36.1980   37.4270 C.ar  531  196531      0.1958
     18  C23       33.4820   36.8830   37.0130 C.ar  531  196531      0.0427
     19  C27       30.8940   38.2980   36.2690 C.1   531  196531      0.1004
     20  N28       30.7900   38.9480   35.3170 N.1   531  196531     -0.1908
     21  O29       35.8180   36.3020   36.6720 O.3   531  196531     -0.2866
@<TRIPOS>BOND
     1    20    19    3
     2    19    13    1
     3    21    17    1
     4    18    17   ar
     5    18    12   ar
     6    17    16   ar
     7    13    12   ar
     8    13    14   ar
     9    12    11   ar
    10    14     9   ar
    11    16    15   ar
    12    11    15   ar
    13    11    10   ar
    14     9    10   ar
    15     9     4    1
    16     3     4   ar
    17     3     2   ar
    18     8     2    1
    19     4     5   ar
    20     2     1   ar
    21     5     6   ar
    22     1     6   ar
    23     1     7    1
