@<TRIPOS>MOLECULE
1yyf_ADP_A_1.pdb
 27 29 0 0 0
SMALL
GASTEIGER

@<TRIPOS>ATOM
      1  PB        76.6990   21.4120  124.1300 P.3   905  ADP905      0.5373
      2  O1B       75.6560   22.1030  123.3700 O.2   905  ADP905     -0.2221
      3  O2B       75.9980   20.7690  125.3340 O.3   905  ADP905     -0.1143
      4  O3B       77.8090   22.4640  124.3510 O.3   905  ADP905     -0.1143
      5  PA        77.5040   19.9670  121.7260 P.3   905  ADP905      0.2231
      6  O1A       76.2180   20.1340  120.9550 O.2   905  ADP905     -0.5169
      7  O2A       78.6680   20.8600  121.1260 O.3   905  ADP905     -0.4370
      8  O3A       77.2690   20.1350  123.3490 O.3   905  ADP905     -0.2261
      9  O5'       78.0060   18.4160  121.6490 O.3   905  ADP905     -0.3111
     10  C5'       79.2250   18.0680  122.2830 C.3   905  ADP905      0.1813
     11  C4'       80.0210   17.0250  121.5200 C.3   905  ADP905      0.1821
     12  O4'       79.9180   15.8670  122.2830 O.3   905  ADP905     -0.3135
     13  C3'       79.4070   16.7260  120.1520 C.3   905  ADP905      0.2184
     14  O3'       80.3920   16.6560  119.1440 O.3   905  ADP905     -0.2174
     15  C2'       78.6550   15.4150  120.2780 C.3   905  ADP905      0.2570
     16  O2'       79.1450   14.2830  119.5620 O.3   905  ADP905     -0.2130
     17  C1'       78.8380   15.1180  121.7390 C.3   905  ADP905      0.3186
     18  N9        77.5270   15.3290  122.3930 N.pl3 905  ADP905     -0.1439
     19  C8        77.2340   16.2260  123.3940 C.3   905  ADP905      0.3377
     20  N7        75.9320   16.0450  123.7290 N.2   905  ADP905     -0.2095
     21  C5        75.3800   15.0460  122.9740 C.2   905  ADP905      0.2526
     22  C6        74.1050   14.4660  122.9420 C.2   905  ADP905      0.4393
     23  N6        73.4450   14.4460  124.0930 N.pl3 905  ADP905      0.2180
     24  N1        73.8310   13.4450  122.0460 N.2   905  ADP905      0.0021
     25  C2        74.8290   12.9910  121.2160 C.3   905  ADP905      0.5254
     26  N3        76.0960   13.5530  121.2580 N.2   905  ADP905     -0.0055
     27  C4        76.3790   14.5760  122.1250 C.2   905  ADP905      0.3518
@<TRIPOS>BOND
     1    14    13    1
     2    16    15    1
     3    13    15    1
     4    13    11    1
     5    15    17    1
     6     6     5    2
     7     7     5    1
     8    25    26    1
     9    25    24    1
    10    26    27    2
    11    11    12    1
    12    11    10    1
    13     9     5    1
    14     9    10    1
    15     5     8    1
    16    17    12    1
    17    17    18    1
    18    24    22    2
    19    27    18    1
    20    27    21    1
    21    18    19    1
    22    22    21    1
    23    22    23    1
    24    21    20    2
    25     8     1    1
    26     2     1    2
    27    19    20    1
    28     1     4    1
    29     1     3    1
