@<TRIPOS>MOLECULE
1yyg_MAN_A_1.pdb
 11 11 0 0 0
SMALL
GASTEIGER

@<TRIPOS>ATOM
      1  C1        43.6290   27.9660   15.6460 C.3   364  MAN364      0.1777
      2  C2        42.1920   27.6460   15.2030 C.3   364  MAN364      0.2141
      3  C3        42.1770   26.4400   14.2530 C.3   364  MAN364      0.2173
      4  C4        43.1420   26.6670   13.0830 C.3   364  MAN364      0.2142
      5  C5        44.5310   27.1180   13.5620 C.3   364  MAN364      0.1810
      6  C6        45.4380   27.5830   12.4190 C.3   364  MAN364      0.2141
      7  O2        41.6230   28.7610   14.5520 O.3   364  MAN364     -0.2176
      8  O3        40.8650   26.2170   13.7790 O.3   364  MAN364     -0.2175
      9  O4        43.2630   25.4750   12.3230 O.3   364  MAN364     -0.2176
     10  O5        44.4510   28.1880   14.4890 O.3   364  MAN364     -0.3481
     11  O6        46.7730   27.7510   12.8440 O.3   364  MAN364     -0.2176
@<TRIPOS>BOND
     1     9     4    1
     2     6    11    1
     3     6     5    1
     4     4     5    1
     5     4     3    1
     6     5    10    1
     7     8     3    1
     8     3     2    1
     9    10     1    1
    10     7     2    1
    11     2     1    1
