@<TRIPOS>MOLECULE
1yyg_HEM_A_1.pdb
 43 50 0 0 0
SMALL
GASTEIGER

@<TRIPOS>ATOM
      1  CHA       57.5180   24.0400   35.5020 C.2   396  HEM396      0.0000
      2  CHB       59.3950   19.6380   36.2680 C.2   396  HEM396      0.0000
      3  CHC       56.1390   18.8170   39.7540 C.2   396  HEM396      0.0000
      4  CHD       54.4420   23.3190   39.1780 C.2   396  HEM396      0.0000
      5  C1A       58.3500   22.9240   35.4300 C.ar  396  HEM396      0.0000
      6  C2A       59.5030   22.7920   34.5760 C.ar  396  HEM396      0.0000
      7  C3A       59.9760   21.5350   34.7230 C.ar  396  HEM396      0.0000
      8  C4A       59.2000   20.9260   35.7780 C.ar  396  HEM396      0.0000
      9  CMA       61.2240   20.9350   34.0810 C.3   396  HEM396      0.0000
     10  CAA       60.0660   23.8560   33.6450 C.3   396  HEM396      0.0000
     11  CBA       60.9420   24.8950   34.3240 C.3   396  HEM396      0.0000
     12  CGA       61.6880   25.7910   33.3530 C.2   396  HEM396      0.0000
     13  O1A       62.5640   25.3150   32.5970 O.co2 396  HEM396      0.0000
     14  O2A       61.4170   27.0150   33.3620 O.co2 396  HEM396      0.0000
     15  C1B       58.5440   18.9800   37.1570 C.2   396  HEM396      0.0000
     16  C2B       58.7690   17.6260   37.6200 C.2   396  HEM396      0.0000
     17  C3B       57.7500   17.3330   38.4660 C.2   396  HEM396      0.0000
     18  C4B       57.0890   18.5960   38.7610 C.2   396  HEM396      0.0000
     19  CMB       60.0100   16.8200   37.2600 C.3   396  HEM396      0.0000
     20  CAB       57.4860   16.1660   39.1720 C.3   396  HEM396      0.0000
     21  CBB       57.8690   14.8200   38.7830 C.3   396  HEM396      0.0000
     22  C1C       55.5000   20.0350   39.9800 C.ar  396  HEM396      0.0000
     23  C2C       54.5050   20.2480   41.0030 C.ar  396  HEM396      0.0000
     24  C3C       54.0720   21.5230   40.8870 C.ar  396  HEM396      0.0000
     25  C4C       54.8010   22.1080   39.7820 C.ar  396  HEM396      0.0000
     26  CMC       54.1360   19.2080   42.0580 C.3   396  HEM396      0.0000
     27  CAC       53.3310   22.3000   41.7730 C.3   396  HEM396      0.0000
     28  CBC       52.1980   21.9340   42.5890 C.3   396  HEM396      0.0000
     29  C1D       55.0340   23.8600   38.0340 C.2   396  HEM396      0.0000
     30  C2D       54.7140   25.1400   37.4450 C.2   396  HEM396      0.0000
     31  C3D       55.5510   25.3100   36.3970 C.2   396  HEM396      0.0000
     32  C4D       56.4080   24.1510   36.3300 C.2   396  HEM396      0.0000
     33  CMD       53.5320   26.0200   37.8250 C.3   396  HEM396      0.0000
     34  CAD       55.5760   26.5020   35.4570 C.3   396  HEM396      0.0000
     35  CBD       56.4580   27.6640   35.8730 C.3   396  HEM396      0.0000
     36  CGD       56.4080   28.7810   34.8440 C.2   396  HEM396      0.0000
     37  O1D       57.0770   29.8020   35.0870 O.co2 396  HEM396      0.0000
     38  O2D       55.6780   28.6140   33.8410 O.co2 396  HEM396      0.0000
     39  NA        58.1650   21.7540   36.1400 N.ar  396  HEM396      0.0000
     40  NB        57.5320   19.5660   37.8860 N.2   396  HEM396      0.0000
     41  NC        55.5380   21.1290   39.1460 N.ar  396  HEM396      0.0000
     42  ND        56.1260   23.3100   37.3890 N.2   396  HEM396      0.0000
     43 FE         56.7370   21.3970   37.5390 Fe    396  HEM396      0.0000
@<TRIPOS>BOND
     1    13    12   ar
     2    12    14   ar
     3    12    11    1
     4    10    11    1
     5    10     6    1
     6    38    36   ar
     7     9     7    1
     8     6     7   ar
     9     6     5   ar
    10     7     8   ar
    11    36    37   ar
    12    36    35    1
    13     5     1    2
    14     5    39   ar
    15    34    35    1
    16    34    31    1
    17     1    32    1
    18     8    39   ar
    19     8     2    2
    20    39    43    1
    21     2    15    1
    22    32    31    1
    23    32    42    2
    24    31    30    2
    25    15    16    1
    26    15    40    2
    27    19    16    1
    28    42    43    1
    29    42    29    1
    30    30    33    1
    31    30    29    1
    32    43    40    1
    33    43    41    1
    34    16    17    2
    35    40    18    1
    36    29     4    2
    37    17    18    1
    38    17    20    1
    39    18     3    2
    40    21    20    1
    41    41    25   ar
    42    41    22   ar
    43     4    25    1
    44     3    22    1
    45    25    24   ar
    46    22    23   ar
    47    24    23   ar
    48    24    27    1
    49    23    26    1
    50    27    28    1
