@<TRIPOS>MOLECULE
1yyn_SIA_A_1.pdb
 20 20 0 0 0
SMALL
GASTEIGER

@<TRIPOS>ATOM
      1  C1       -23.7850   -6.0300   45.2310 C.2   2000  SIA2000     0.3914
      2  C2       -24.7930   -6.3600   46.3240 C.3   2000  SIA2000     0.2203
      3  C3       -25.0500   -5.1010   47.1680 C.3   2000  SIA2000     0.0760
      4  C4       -25.7180   -4.0130   46.3270 C.3   2000  SIA2000     0.1773
      5  C5       -26.9690   -4.5840   45.6600 C.3   2000  SIA2000     0.1552
      6  C6       -26.5840   -5.8050   44.8210 C.3   2000  SIA2000     0.1710
      7  C7       -27.7990   -6.3800   44.0850 C.3   2000  SIA2000     0.2134
      8  C8       -27.3740   -7.4470   43.0740 C.3   2000  SIA2000     0.2173
      9  C9       -28.5750   -7.8880   42.2310 C.3   2000  SIA2000     0.2175
     10  C10      -28.5480   -2.8010   45.3710 C.2   2000  SIA2000     0.2420
     11  C11      -28.2940   -1.3040   45.3520 C.3   2000  SIA2000     0.0964
     12  N5       -27.6160   -3.5830   44.8380 N.am  2000  SIA2000    -0.2020
     13  O1A      -22.7170   -5.4720   45.5510 O.co2 2000  SIA2000    -0.2430
     14  O1B      -24.0690   -6.3110   44.0480 O.co2 2000  SIA2000    -0.2430
     15  O4       -26.0670   -2.9180   47.1600 O.3   2000  SIA2000    -0.2211
     16  O6       -26.0020   -6.8080   45.6840 O.3   2000  SIA2000    -0.3429
     17  O7       -28.7030   -6.9500   45.0200 O.3   2000  SIA2000    -0.2176
     18  O8       -26.3590   -6.9270   42.2280 O.3   2000  SIA2000    -0.2175
     19  O9       -28.2130   -8.9780   41.3940 O.3   2000  SIA2000    -0.2175
     20  O10      -29.5790   -3.2430   45.8790 O.2   2000  SIA2000    -0.2733
@<TRIPOS>BOND
     1    19     9    1
     2    18     8    1
     3     9     8    1
     4     8     7    1
     5    14     1   ar
     6     7     6    1
     7     7    17    1
     8     6     5    1
     9     6    16    1
    10    12    10   am
    11    12     5    1
    12     1    13   ar
    13     1     2    1
    14    11    10    1
    15    10    20    2
    16     5     4    1
    17    16     2    1
    18     2     3    1
    19     4    15    1
    20     4     3    1
