@<TRIPOS>MOLECULE
1yyr_SAZ_A_1.pdb
 15 15 0 0 0
SMALL
GASTEIGER

@<TRIPOS>ATOM
      1  C01       -8.4130   91.9230   37.4120 C.3   709  SAZ709      0.0622
      2  C02       -8.3940   93.4590   37.8320 C.3   709  SAZ709      0.0206
      3  C03       -7.4380   91.6700   36.2070 C.3   709  SAZ709      0.0413
      4  C05       -6.9500   93.9240   38.2430 C.3   709  SAZ709      0.0231
      5  C07       -6.0310   92.1620   36.5980 C.2   709  SAZ709     -0.0332
      6  C08       -9.1810   90.1360   40.4550 C.2   709  SAZ709     -0.0331
      7  C09       -9.5390   89.7080   39.0270 C.3   709  SAZ709      0.0427
      8  C10      -10.3920   90.7800   38.2680 C.3   709  SAZ709      0.0768
      9  C13       -7.9790   90.4650   41.0150 C.2   709  SAZ709     -0.0478
     10  C16       -6.6350   90.4850   40.3170 C.3   709  SAZ709      0.0260
     11  C17       -7.9090   90.8600   42.4830 C.3   709  SAZ709      0.0260
     12  C25       -5.8060   93.1720   37.5210 C.2   709  SAZ709     -0.0481
     13  C26       -4.4290   93.6070   37.8890 C.3   709  SAZ709      0.0260
     14  N35       -9.7820   91.3830   37.0760 N.3   709  SAZ709     -0.2721
     15  C36      -10.7870   92.3580   36.5640 C.3   709  SAZ709      0.0896
@<TRIPOS>BOND
     1     3     5    1
     2     3     1    1
     3    15    14    1
     4     5    12    2
     5    14     1    1
     6    14     8    1
     7     1     2    1
     8    12    13    1
     9    12     4    1
    10     2     4    1
    11     8     7    1
    12     7     6    1
    13    10     9    1
    14     6     9    2
    15     9    11    1
