@<TRIPOS>MOLECULE
1yys_SAZ_A_1.pdb
 15 15 0 0 0
SMALL
GASTEIGER

@<TRIPOS>ATOM
      1  C01       51.8580   13.2410   63.5180 C.3   709  SAZ709      0.0622
      2  C02       52.3200   11.7900   63.1370 C.3   709  SAZ709      0.0206
      3  C03       53.1240   14.0850   63.9750 C.3   709  SAZ709      0.0413
      4  C05       53.5110   11.7130   62.1440 C.3   709  SAZ709      0.0231
      5  C07       54.4710   13.7030   63.3540 C.2   709  SAZ709     -0.0332
      6  C08       52.7490   15.4700   60.5080 C.2   709  SAZ709     -0.0331
      7  C09       51.4550   15.9920   61.0730 C.3   709  SAZ709      0.0427
      8  C10       50.9810   15.2650   62.3420 C.3   709  SAZ709      0.0768
      9  C13       52.9920   14.9620   59.2880 C.2   709  SAZ709     -0.0478
     10  C16       51.9800   14.7950   58.1710 C.3   709  SAZ709      0.0260
     11  C17       54.3790   14.5010   58.9300 C.3   709  SAZ709      0.0260
     12  C25       54.6580   12.6380   62.5290 C.2   709  SAZ709     -0.0481
     13  C26       56.0030   12.2960   61.9430 C.3   709  SAZ709      0.0260
     14  N35       51.1250   13.8130   62.4020 N.3   709  SAZ709     -0.2721
     15  C36       49.7750   13.2690   62.1450 C.3   709  SAZ709      0.0896
@<TRIPOS>BOND
     1    10     9    1
     2    11     9    1
     3     9     6    2
     4     6     7    1
     5     7     8    1
     6    13    12    1
     7     4    12    1
     8     4     2    1
     9    15    14    1
    10     8    14    1
    11    14     1    1
    12    12     5    2
    13     2     1    1
    14     5     3    1
    15     1     3    1
