@<TRIPOS>MOLECULE
1yyt_SAZ_A_1.pdb
 15 15 0 0 0
SMALL
GASTEIGER

@<TRIPOS>ATOM
      1  C01       46.7380   53.5730   12.8140 C.3   709  SAZ709      0.0622
      2  C02       45.3940   54.2300   12.3520 C.3   709  SAZ709      0.0206
      3  C03       46.4860   52.6840   14.0610 C.3   709  SAZ709      0.0413
      4  C05       44.3980   53.1290   11.8890 C.3   709  SAZ709      0.0231
      5  C07       45.3490   51.7030   13.7800 C.2   709  SAZ709     -0.0332
      6  C08       48.4540   53.2610    9.7230 C.2   709  SAZ709     -0.0331
      7  C09       49.1500   53.5470   11.0470 C.3   709  SAZ709      0.0427
      8  C10       48.5780   54.8000   11.7750 C.3   709  SAZ709      0.0768
      9  C13       47.6500   52.2120    9.3860 C.2   709  SAZ709     -0.0478
     10  C16       47.2560   51.0580   10.2860 C.3   709  SAZ709      0.0260
     11  C17       47.0510   52.1200    7.9940 C.3   709  SAZ709      0.0260
     12  C25       44.4010   51.8950   12.7970 C.2   709  SAZ709     -0.0481
     13  C26       43.3000   50.9020   12.5450 C.3   709  SAZ709      0.0260
     14  N35       47.8650   54.5230   13.0320 N.3   709  SAZ709     -0.2721
     15  C36       47.4810   55.8200   13.6210 C.3   709  SAZ709      0.0896
@<TRIPOS>BOND
     1    11     9    1
     2     9     6    2
     3     9    10    1
     4     6     7    1
     5     7     8    1
     6     8    14    1
     7     4     2    1
     8     4    12    1
     9     2     1    1
    10    13    12    1
    11    12     5    2
    12     1    14    1
    13     1     3    1
    14    14    15    1
    15     5     3    1
