@<TRIPOS>MOLECULE
1yyu_SAZ_B_1.pdb
 15 15 0 0 0
SMALL
GASTEIGER

@<TRIPOS>ATOM
      1  C01      -20.2300  109.3330   16.1780 C.3   709  SAZ709      0.0622
      2  C02      -18.9210  108.6600   15.6190 C.3   709  SAZ709      0.0206
      3  C03      -19.9890  110.8790   16.3870 C.3   709  SAZ709      0.0413
      4  C05      -18.2450  109.3600   14.4130 C.3   709  SAZ709      0.0231
      5  C07      -19.0200  111.5480   15.4180 C.2   709  SAZ709     -0.0332
      6  C08      -22.6180  111.4830   13.7540 C.2   709  SAZ709     -0.0331
      7  C09      -23.3530  110.3300   14.3670 C.3   709  SAZ709      0.0427
      8  C10      -22.6180  109.7100   15.5630 C.3   709  SAZ709      0.0768
      9  C13      -21.6300  111.4610   12.8460 C.2   709  SAZ709     -0.0478
     10  C16      -21.0240  110.2300   12.2240 C.3   709  SAZ709      0.0260
     11  C17      -21.0170  112.7470   12.3560 C.3   709  SAZ709      0.0260
     12  C25      -18.2310  110.8800   14.5280 C.2   709  SAZ709     -0.0481
     13  C26      -17.2910  111.6020   13.5910 C.3   709  SAZ709      0.0260
     14  N35      -21.3550  109.0190   15.3130 N.3   709  SAZ709     -0.2721
     15  C36      -21.7180  107.6020   15.1960 C.3   709  SAZ709      0.0896
@<TRIPOS>BOND
     1    10     9    1
     2    11     9    1
     3     9     6    2
     4    13    12    1
     5     6     7    1
     6     7     8    1
     7     4    12    1
     8     4     2    1
     9    12     5    2
    10    15    14    1
    11    14     8    1
    12    14     1    1
    13     5     3    1
    14     2     1    1
    15     1     3    1
