@<TRIPOS>MOLECULE
1yyu_RAZ_A_1.pdb
 15 15 0 0 0
SMALL
GASTEIGER

@<TRIPOS>ATOM
      1  C01       -8.9900   93.2040   37.3380 C.3   710  RAZ710      0.0622
      2  C02       -8.3660   94.0020   38.5350 C.3   710  RAZ710      0.0206
      3  C03       -7.9210   92.3620   36.5290 C.3   710  RAZ710      0.0413
      4  C05       -6.9540   94.5820   38.3190 C.3   710  RAZ710      0.0231
      5  C07       -6.4630   92.5910   36.8650 C.2   710  RAZ710     -0.0332
      6  N08      -10.0950   92.4250   37.8440 N.3   710  RAZ710     -0.2721
      7  C09       -7.9640   90.2720   39.5330 C.2   710  RAZ710     -0.0331
      8  C10       -9.4390   90.5210   39.4890 C.3   710  RAZ710      0.0427
      9  C11       -9.9190   90.9870   38.1100 C.3   710  RAZ710      0.0768
     10  C14       -7.0620   90.8470   40.3350 C.2   710  RAZ710     -0.0478
     11  C17       -7.3510   91.8890   41.3920 C.3   710  RAZ710      0.0260
     12  C18       -5.6110   90.4790   40.2340 C.3   710  RAZ710      0.0260
     13  C19      -11.3290   92.5410   37.0780 C.3   710  RAZ710      0.0896
     14  C31       -6.0110   93.5840   37.6680 C.2   710  RAZ710     -0.0481
     15  C32       -4.5430   93.7660   37.9690 C.3   710  RAZ710      0.0260
@<TRIPOS>BOND
     1     3     5    1
     2     3     1    1
     3     5    14    2
     4    13     6    1
     5     1     6    1
     6     1     2    1
     7    14    15    1
     8    14     4    1
     9     6     9    1
    10     9     8    1
    11     4     2    1
    12     8     7    1
    13     7    10    2
    14    12    10    1
    15    10    11    1
