@<TRIPOS>MOLECULE
1yyy_0KV_1_1.pdb
 28 29 0 0 0
SMALL
GASTEIGER

@<TRIPOS>ATOM
      1  S         24.1170    5.6950   29.9690 S.3     1  0KV1        0.0657
      2  O1S       23.2240    6.1850   28.9230 O.3     1  0KV1       -0.0598
      3  O2S       23.3720    4.9650   30.9930 O.3     1  0KV1       -0.0598
      4  N1        25.2070    4.6360   29.2610 N.3     1  0KV1       -0.0752
      5  C1        24.5160    2.2170   29.5080 C.2     1  0KV1        0.2435
      6  O1        23.7770    2.4060   28.5310 O.2     1  0KV1       -0.2733
      7  CA1       25.6080    3.3340   29.6730 C.3     1  0KV1        0.1731
      8  CB1       26.1630    3.3970   31.0710 C.3     1  0KV1        0.0304
      9  CD1       25.2270    1.0820   31.6160 C.3     1  0KV1        0.0937
     10  CG1       26.3840    2.0510   31.7140 C.3     1  0KV1        0.0235
     11  C2        22.3610    0.9520   30.3660 C.3     1  0KV1        0.2455
     12  N2        24.5500    1.1280   30.2950 N.am    1  0KV1       -0.2742
     13  O2        22.1550    1.3880   31.5460 O.3     1  0KV1       -0.2017
     14  CA2       23.5560    0.0650   29.9410 C.3     1  0KV1        0.1446
     15  C3        19.5200   -0.6460   31.0470 C.3     1  0KV1        0.1994
     16  N3        21.4210    0.2370   29.5930 N.3     1  0KV1       -0.1865
     17  O3        18.0960   -0.5750   31.1730 O.3     1  0KV1       -0.2189
     18  C4        19.7210    3.3550   29.0270 C.3     1  0KV1        0.0067
     19  C5        20.4380    4.6230   28.4460 C.3     1  0KV1        0.0406
     20  C6        21.2770    4.2670   27.2060 C.3     1  0KV1        0.1678
     21  CA3       20.0270    0.4370   30.0990 C.3     1  0KV1        0.1084
     22  CB3       19.1230    0.8780   28.9040 C.3     1  0KV1        0.0234
     23  CD3       20.1020    2.0220   26.7530 C.3     1  0KV1        0.1677
     24  NE3       20.4800    3.3890   26.2550 N.pl3   1  0KV1       -0.1885
     25  CG3       19.9660    2.0220   28.2830 C.3     1  0KV1        0.0389
     26  CZ3       20.0210    3.8610   24.9590 C.cat   1  0KV1        0.4954
     27  NH1       20.2210    5.1190   24.6300 N.pl3   1  0KV1        0.1298
     28  NH2       19.4280    2.9970   24.1840 N.pl3   1  0KV1        0.1298
@<TRIPOS>BOND
     1    28    26    2
     2    27    26    1
     3    26    24    1
     4    24    23    1
     5    24    20    1
     6    23    25    1
     7    20    19    1
     8    25    22    1
     9    25    18    1
    10    19    18    1
    11     6     5    2
    12    22    21    1
    13     2     1    1
    14     4     7    1
    15     4     1    1
    16     5     7    1
    17     5    12   am
    18    16    21    1
    19    16    11    1
    20     7     8    1
    21    14    12    1
    22    14    11    1
    23     1     3    1
    24    21    15    1
    25    12     9    1
    26    11    13    1
    27    15    17    1
    28     8    10    1
    29     9    10    1
