@<TRIPOS>MOLECULE
1yyz_AMP_A_1.pdb
 23 25 0 0 0
SMALL
GASTEIGER

@<TRIPOS>ATOM
      1  P          1.2440   32.9950    8.2970 P.3   435  AMP435      0.5327
      2  O1P        2.5540   32.8960    9.0630 O.3   435  AMP435     -0.1145
      3  O2P        1.0650   34.3460    7.6160 O.3   435  AMP435     -0.1145
      4  O3P        1.0180   31.8240    7.3570 O.2   435  AMP435     -0.2224
      5  O5'        0.0530   32.9030    9.4040 O.3   435  AMP435     -0.2675
      6  C5'       -0.0670   33.8930   10.4390 C.3   435  AMP435      0.1860
      7  C4'       -0.9530   33.3780   11.5450 C.3   435  AMP435      0.1823
      8  O4'       -2.2590   33.0450   11.0020 O.3   435  AMP435     -0.3135
      9  C3'       -0.4820   32.0900   12.2020 C.3   435  AMP435      0.2184
     10  O3'        0.4620   32.3630   13.2270 O.3   435  AMP435     -0.2174
     11  C2'       -1.7830   31.5390   12.7650 C.3   435  AMP435      0.2570
     12  O2'       -2.1720   32.2090   13.9460 O.3   435  AMP435     -0.2130
     13  C1'       -2.7570   31.8780   11.6350 C.3   435  AMP435      0.3186
     14  N9        -2.8210   30.8190   10.6310 N.pl3 435  AMP435     -0.1439
     15  C8        -2.1290   30.7500    9.4470 C.3   435  AMP435      0.3377
     16  N7        -2.3650   29.6600    8.7600 N.2   435  AMP435     -0.2095
     17  C5        -3.2780   28.9650    9.5400 C.2   435  AMP435      0.2526
     18  C6        -3.9170   27.7280    9.3680 C.2   435  AMP435      0.4393
     19  N6        -3.7140   26.9340    8.3150 N.pl3 435  AMP435      0.2180
     20  N1        -4.7780   27.3260   10.3280 N.2   435  AMP435      0.0021
     21  C2        -4.9700   28.1200   11.3890 C.3   435  AMP435      0.5254
     22  N3        -4.4230   29.3010   11.6680 N.2   435  AMP435     -0.0055
     23  C4        -3.5760   29.6720   10.6920 C.2   435  AMP435      0.3518
@<TRIPOS>BOND
     1     4     1    2
     2     3     1    1
     3     1     2    1
     4     1     5    1
     5    19    18    1
     6    16    15    1
     7    16    17    2
     8    18    17    1
     9    18    20    2
    10     5     6    1
    11    15    14    1
    12    17    23    1
    13    20    21    1
    14     6     7    1
    15    14    23    1
    16    14    13    1
    17    23    22    2
    18     8     7    1
    19     8    13    1
    20    21    22    1
    21     7     9    1
    22    13    11    1
    23     9    11    1
    24     9    10    1
    25    11    12    1
