@<TRIPOS>MOLECULE
1yyz_F6P_A_1.pdb
 16 16 0 0 0
SMALL
GASTEIGER

@<TRIPOS>ATOM
      1  O1        11.3310    8.8110   27.1570 O.3   339  F6P339     -0.2148
      2  C1         9.9850    9.2380   26.9990 C.3   339  F6P339      0.2434
      3  C2         9.0270    8.1050   27.3090 C.3   339  F6P339      0.2807
      4  O2         9.3630    6.9880   26.5200 O.3   339  F6P339     -0.1896
      5  C3         7.5520    8.4640   27.1390 C.3   339  F6P339      0.2409
      6  O3         7.1240    8.1690   25.8230 O.3   339  F6P339     -0.2149
      7  C4         6.8720    7.6030   28.1990 C.3   339  F6P339      0.2167
      8  O4         5.7120    8.2650   28.6890 O.3   339  F6P339     -0.2175
      9  C5         7.9250    7.5140   29.2970 C.3   339  F6P339      0.1808
     10  O5         9.2140    7.7190   28.6560 O.3   339  F6P339     -0.3254
     11  C6         7.9410    6.1890   30.0170 C.3   339  F6P339      0.1859
     12  O6         9.0270    6.2120   30.9650 O.3   339  F6P339     -0.2675
     13  P          9.0740    5.1230   32.1780 P.3   339  F6P339      0.5327
     14  O1P        9.9870    5.7440   33.2220 O.3   339  F6P339     -0.1145
     15  O2P        9.6150    3.8490   31.5530 O.2   339  F6P339     -0.2224
     16  O3P        7.6470    4.9550   32.6620 O.3   339  F6P339     -0.1145
@<TRIPOS>BOND
     1     6     5    1
     2     4     3    1
     3     2     1    1
     4     2     3    1
     5     5     3    1
     6     5     7    1
     7     3    10    1
     8     7     8    1
     9     7     9    1
    10    10     9    1
    11     9    11    1
    12    11    12    1
    13    12    13    1
    14    15    13    2
    15    13    16    1
    16    13    14    1
