@<TRIPOS>MOLECULE
1yz0_AMP_A_1.pdb
 23 25 0 0 0
SMALL
GASTEIGER

@<TRIPOS>ATOM
      1  P         35.1180   90.2030  -13.5430 P.3   1844  AMP1844     0.5327
      2  O1P       35.0130   89.3790  -14.8180 O.2   1844  AMP1844    -0.2224
      3  O2P       36.4340   90.9520  -13.4440 O.3   1844  AMP1844    -0.1145
      4  O3P       34.8130   89.3670  -12.3090 O.3   1844  AMP1844    -0.1145
      5  O5'       33.9520   91.3390  -13.6220 O.3   1844  AMP1844    -0.2675
      6  C5'       33.9700   92.3460  -14.6480 C.3   1844  AMP1844     0.1860
      7  C4'       33.2250   93.5760  -14.1860 C.3   1844  AMP1844     0.1823
      8  O4'       31.8390   93.2270  -13.9390 O.3   1844  AMP1844    -0.3135
      9  C3'       33.6990   94.1620  -12.8670 C.3   1844  AMP1844     0.2184
     10  O3'       34.8010   95.0360  -13.0540 O.3   1844  AMP1844    -0.2174
     11  C2'       32.4610   94.9090  -12.4020 C.3   1844  AMP1844     0.2570
     12  O2'       32.2810   96.1230  -13.0990 O.3   1844  AMP1844    -0.2130
     13  C1'       31.3650   93.9170  -12.7920 C.3   1844  AMP1844     0.3186
     14  N9        31.1390   92.9300  -11.7380 N.pl3 1844  AMP1844    -0.1439
     15  C8        31.6770   91.6710  -11.6470 C.3   1844  AMP1844     0.3377
     16  N7        31.3280   91.0230  -10.5660 N.2   1844  AMP1844    -0.2095
     17  C5        30.4960   91.9110   -9.8990 C.2   1844  AMP1844     0.2526
     18  C6        29.8120   91.8270   -8.6770 C.2   1844  AMP1844     0.4393
     19  N6        29.8730   90.7660   -7.8720 N.pl3 1844  AMP1844     0.2180
     20  N1        29.0620   92.8830   -8.3020 N.2   1844  AMP1844     0.0021
     21  C2        29.0200   93.9540   -9.1030 C.3   1844  AMP1844     0.5254
     22  N3        29.6270   94.1590  -10.2690 N.2   1844  AMP1844    -0.0055
     23  C4        30.3590   93.0850  -10.6160 C.2   1844  AMP1844     0.3518
@<TRIPOS>BOND
     1     2     1    2
     2     6     7    1
     3     6     5    1
     4     7     8    1
     5     7     9    1
     6     8    13    1
     7     5     1    1
     8     1     3    1
     9     1     4    1
    10    12    11    1
    11    10     9    1
    12     9    11    1
    13    13    11    1
    14    13    14    1
    15    14    15    1
    16    14    23    1
    17    15    16    1
    18    23    22    2
    19    23    17    1
    20    16    17    2
    21    22    21    1
    22    17    18    1
    23    21    20    1
    24    18    20    2
    25    18    19    1
