@<TRIPOS>MOLECULE
1yz0_F6P_A_1.pdb
 16 16 0 0 0
SMALL
GASTEIGER

@<TRIPOS>ATOM
      1  O1        44.0520  107.3560   10.9690 O.3   1843  F6P1843    -0.2148
      2  C1        43.3550  108.5690   10.7290 C.3   1843  F6P1843     0.2434
      3  C2        42.4090  108.8900   11.8680 C.3   1843  F6P1843     0.2807
      4  O2        42.5960  107.9810   12.9330 O.3   1843  F6P1843    -0.1896
      5  C3        40.9400  108.9140   11.4470 C.3   1843  F6P1843     0.2409
      6  O3        40.3410  107.6510   11.6540 O.3   1843  F6P1843    -0.2149
      7  C4        40.3620  110.0090   12.3310 C.3   1843  F6P1843     0.2167
      8  O4        39.2670  110.6270   11.6700 O.3   1843  F6P1843    -0.2175
      9  C5        41.5270  110.9840   12.4540 C.3   1843  F6P1843     0.1808
     10  O5        42.7300  110.1750   12.3640 O.3   1843  F6P1843    -0.3254
     11  C6        41.5390  111.7420   13.7580 C.3   1843  F6P1843     0.1859
     12  O6        42.7470  112.5300   13.8110 O.3   1843  F6P1843    -0.2675
     13  P         42.8650  113.7650   14.8700 P.3   1843  F6P1843     0.5327
     14  O1P       43.9520  114.6730   14.3240 O.2   1843  F6P1843    -0.2224
     15  O2P       43.2160  113.1660   16.2160 O.3   1843  F6P1843    -0.1145
     16  O3P       41.4980  114.4200   14.8790 O.3   1843  F6P1843    -0.1145
@<TRIPOS>BOND
     1     2     1    1
     2     2     3    1
     3     5     6    1
     4     5     3    1
     5     5     7    1
     6     8     7    1
     7     3    10    1
     8     3     4    1
     9     7     9    1
    10    10     9    1
    11     9    11    1
    12    11    12    1
    13    12    13    1
    14    14    13    2
    15    13    16    1
    16    13    15    1
