@<TRIPOS>MOLECULE
1yz3_SAH_A_1.pdb
 26 28 0 0 0
SMALL
GASTEIGER

@<TRIPOS>ATOM
      1  N         25.9920   52.5450   17.7820 N.3   2002  SAH2002    -0.1208
      2  CA        27.2350   52.0640   17.1910 C.3   2002  SAH2002     0.1952
      3  CB        28.3060   51.8630   18.2910 C.3   2002  SAH2002     0.0422
      4  CG        27.9590   50.8990   19.4440 C.3   2002  SAH2002     0.0597
      5  SD        29.4150   50.5570   20.5270 S.3   2002  SAH2002    -0.1375
      6  C         27.0080   50.7840   16.3660 C.2   2002  SAH2002     0.3819
      7  O         25.8270   50.4340   16.1490 O.co2 2002  SAH2002    -0.2441
      8  OXT       27.9980   50.1630   15.9210 O.co2 2002  SAH2002    -0.2441
      9  C5'       28.8650   51.2740   22.1280 C.3   2002  SAH2002     0.0899
     10  C4'       29.1330   52.7610   22.1810 C.3   2002  SAH2002     0.1630
     11  O4'       28.6510   53.3710   23.4130 O.3   2002  SAH2002    -0.3153
     12  C3'       30.5860   53.1900   22.0150 C.3   2002  SAH2002     0.2168
     13  O3'       30.7070   54.0940   20.9220 O.3   2002  SAH2002    -0.2175
     14  C2'       30.9340   53.8020   23.3740 C.3   2002  SAH2002     0.2569
     15  O2'       31.9110   54.8240   23.3280 O.3   2002  SAH2002    -0.2130
     16  C1'       29.5820   54.3510   23.8260 C.3   2002  SAH2002     0.3185
     17  N9        29.4610   54.5680   25.2740 N.pl3 2002  SAH2002    -0.1439
     18  C8        30.3620   54.1680   26.3140 C.3   2002  SAH2002     0.3377
     19  N7        29.9750   54.5490   27.5100 N.2   2002  SAH2002    -0.2095
     20  C5        28.7820   55.2170   27.2650 C.2   2002  SAH2002     0.2526
     21  C6        27.9090   55.8570   28.1870 C.2   2002  SAH2002     0.4393
     22  N6        28.1250   55.9170   29.5030 N.pl3 2002  SAH2002     0.2180
     23  N1        26.7860   56.4420   27.6820 N.2   2002  SAH2002     0.0021
     24  C2        26.5730   56.3850   26.3400 C.3   2002  SAH2002     0.5254
     25  N3        27.3400   55.8090   25.3800 N.2   2002  SAH2002    -0.0055
     26  C4        28.4430   55.2360   25.9180 C.2   2002  SAH2002     0.3518
@<TRIPOS>BOND
     1     8     6   ar
     2     7     6   ar
     3     6     2    1
     4     2     1    1
     5     2     3    1
     6     3     4    1
     7     4     5    1
     8     5     9    1
     9    13    12    1
    10    12    10    1
    11    12    14    1
    12     9    10    1
    13    10    11    1
    14    15    14    1
    15    14    16    1
    16    11    16    1
    17    16    17    1
    18    17    26    1
    19    17    18    1
    20    25    26    2
    21    25    24    1
    22    26    20    1
    23    18    19    1
    24    24    23    1
    25    20    19    2
    26    20    21    1
    27    23    21    2
    28    21    22    1
