@<TRIPOS>MOLECULE
1yz3_SKA_A_1.pdb
 12 13 0 0 0
SMALL
GASTEIGER

@<TRIPOS>ATOM
      1 CL4        26.6830   41.4430   16.4840 Cl    3001  SKA3001    -0.0817
      2  C4        27.2580   43.0760   16.4370 C.ar  3001  SKA3001     0.0653
      3  C5        27.8860   43.6150   17.5590 C.ar  3001  SKA3001     0.0027
      4  C11       28.0740   42.8070   18.8460 C.3   3001  SKA3001     0.1155
      5  N10       29.1060   43.4070   19.7110 N.3   3001  SKA3001    -0.2129
      6  C9        28.8180   44.8240   19.9750 C.3   3001  SKA3001     0.0937
      7  C8        29.0420   45.6150   18.6840 C.3   3001  SKA3001     0.0449
      8  C6        28.3320   44.9360   17.5080 C.ar  3001  SKA3001    -0.0225
      9  C1        28.1520   45.6970   16.3600 C.ar  3001  SKA3001    -0.0036
     10  C2        27.5240   45.1510   15.2430 C.ar  3001  SKA3001     0.0119
     11  C3        27.0760   43.8370   15.2820 C.ar  3001  SKA3001     0.0679
     12 CL3        26.3020   43.1920   13.8760 Cl    3001  SKA3001    -0.0814
@<TRIPOS>BOND
     1    12    11    1
     2    10    11   ar
     3    10     9   ar
     4    11     2   ar
     5     9     8   ar
     6     2     1    1
     7     2     3   ar
     8     8     3   ar
     9     8     7    1
    10     3     4    1
    11     7     6    1
    12     4     5    1
    13     5     6    1
