@<TRIPOS>MOLECULE
1yzg_GDP_A_1.pdb
 28 30 0 0 0
SMALL
GASTEIGER

@<TRIPOS>ATOM
      1  PB         6.7020   -4.3260    0.8410 P.3   181  GDP181      0.5373
      2  O1B        5.9780   -5.3540    1.6710 O.3   181  GDP181     -0.1143
      3  O2B        7.1730   -3.1310    1.6390 O.3   181  GDP181     -0.1143
      4  O3B        5.8400   -3.7750   -0.2660 O.2   181  GDP181     -0.2221
      5  O3A        8.1070   -4.8820    0.2680 O.3   181  GDP181     -0.2261
      6  PA         8.5030   -6.4130   -0.0310 P.3   181  GDP181      0.2231
      7  O1A        8.8440   -7.1150    1.2600 O.3   181  GDP181     -0.4370
      8  O2A        7.3910   -7.1200   -0.7550 O.2   181  GDP181     -0.5169
      9  O5'        9.7840   -6.1850   -0.9650 O.3   181  GDP181     -0.3111
     10  C5'        9.5510   -5.6260   -2.2600 C.3   181  GDP181      0.1813
     11  C4'       10.5630   -6.1080   -3.2850 C.3   181  GDP181      0.1799
     12  O4'       11.8980   -5.6490   -2.9570 O.3   181  GDP181     -0.3326
     13  C3'       10.6020   -7.6290   -3.3130 C.3   181  GDP181      0.2158
     14  O3'       10.8530   -8.0830   -4.6380 O.3   181  GDP181     -0.2175
     15  C2'       11.7950   -7.9440   -2.4330 C.3   181  GDP181      0.2310
     16  O2'       12.3920   -9.1980   -2.7490 O.3   181  GDP181     -0.2158
     17  C1'       12.7410   -6.7700   -2.6560 C.3   181  GDP181      0.2293
     18  N9        13.6010   -6.5080   -1.4800 N.pl3 181  GDP181     -0.2354
     19  C8        13.2110   -6.4550   -0.1820 C.3   181  GDP181      0.2246
     20  N7        14.2750   -6.1800    0.6200 N.2   181  GDP181     -0.2322
     21  C5        15.3610   -6.0690   -0.1790 C.2   181  GDP181      0.2182
     22  C6        16.7900   -5.7810    0.0200 C.1   181  GDP181      0.2372
     23  O6        17.2080   -5.5940    1.1740 O.2   181  GDP181     -0.2069
     24  N1        17.5970   -5.7360   -1.0590 N.2   181  GDP181     -0.2485
     25  C2        17.1290   -5.9290   -2.3130 C.1   181  GDP181      0.2531
     26  N2        17.9740   -5.8780   -3.3780 N.pl3 181  GDP181     -0.0226
     27  N3        15.8200   -6.2070   -2.5550 N.2   181  GDP181     -0.3074
     28  C4        14.9150   -6.2770   -1.5490 C.2   181  GDP181      0.2300
@<TRIPOS>BOND
     1    14    13    1
     2    26    25    1
     3    13    11    1
     4    13    15    1
     5    11    12    1
     6    11    10    1
     7    12    17    1
     8    16    15    1
     9    17    15    1
    10    17    18    1
    11    27    25    2
    12    27    28    2
    13    25    24    2
    14    10     9    1
    15    28    18    1
    16    28    21    1
    17    18    19    1
    18    24    22    2
    19     9     6    1
    20     8     6    2
    21     4     1    2
    22    19    20    1
    23    21    22    1
    24    21    20    2
    25     6     5    1
    26     6     7    1
    27    22    23    2
    28     5     1    1
    29     1     3    1
    30     1     2    1
