@<TRIPOS>MOLECULE
1yzi_HEM_A_1.pdb
 43 50 0 0 0
SMALL
GASTEIGER

@<TRIPOS>ATOM
      1 FE         50.7730   29.7880   12.1340 Fe    143  HEM143      0.0000
      2  CHA       50.7120   31.6600    9.2870 C.2   143  HEM143      0.0000
      3  CHB       49.7510   32.5350   14.0170 C.2   143  HEM143      0.0000
      4  CHC       50.8020   27.8880   14.8770 C.2   143  HEM143      0.0000
      5  CHD       51.9260   27.1040   10.2730 C.2   143  HEM143      0.0000
      6  NA        50.4590   31.7510   11.7610 N.2   143  HEM143      0.0000
      7  C1A       50.4370   32.3430   10.5330 C.2   143  HEM143      0.0000
      8  C2A       50.0840   33.7930   10.6790 C.2   143  HEM143      0.0000
      9  C3A       49.8650   33.9670   11.9500 C.2   143  HEM143      0.0000
     10  C4A       50.0310   32.7360   12.6220 C.2   143  HEM143      0.0000
     11  CMA       49.5000   35.2410   12.7350 C.3   143  HEM143      0.0000
     12  CAA       49.9870   34.7380    9.4230 C.3   143  HEM143      0.0000
     13  CBA       48.5410   34.7420    8.9570 C.3   143  HEM143      0.0000
     14  CGA       48.3290   35.4270    7.6270 C.2   143  HEM143      0.0000
     15  O1A       47.2460   35.2250    7.0420 O.co2 143  HEM143      0.0000
     16  O2A       49.2130   36.1620    7.1600 O.co2 143  HEM143      0.0000
     17  NB        50.3010   30.1270   14.0790 N.ar  143  HEM143      0.0000
     18  C1B       49.8800   31.3130   14.6990 C.ar  143  HEM143      0.0000
     19  C2B       49.5930   31.0990   16.0400 C.ar  143  HEM143      0.0000
     20  C3B       49.8980   29.7740   16.3040 C.ar  143  HEM143      0.0000
     21  C4B       50.3830   29.2170   15.0850 C.ar  143  HEM143      0.0000
     22  CMB       49.1900   32.0940   17.0740 C.3   143  HEM143      0.0000
     23  CAB       49.7470   29.0640   17.4980 C.2   143  HEM143      0.0000
     24  CBB       50.1950   29.5320   18.6990 C.2   143  HEM143      0.0000
     25  NC        51.1980   27.8310   12.5100 N.2   143  HEM143      0.0000
     26  C1C       51.1750   27.2270   13.7200 C.2   143  HEM143      0.0000
     27  C2C       51.8030   25.8850   13.6290 C.2   143  HEM143      0.0000
     28  C3C       52.2400   25.7010   12.3620 C.2   143  HEM143      0.0000
     29  C4C       51.7490   26.8920   11.6660 C.2   143  HEM143      0.0000
     30  CMC       51.8880   24.9000   14.7500 C.3   143  HEM143      0.0000
     31  CAC       53.0200   24.6460   11.7730 C.3   143  HEM143      0.0000
     32  CBC       53.9710   23.7340   12.4390 C.3   143  HEM143      0.0000
     33  ND        51.4610   29.5320   10.2120 N.ar  143  HEM143      0.0000
     34  C1D       51.8310   28.3480    9.6040 C.ar  143  HEM143      0.0000
     35  C2D       52.0300   28.4710    8.1400 C.ar  143  HEM143      0.0000
     36  C3D       51.7190   29.7270    7.9590 C.ar  143  HEM143      0.0000
     37  C4D       51.3210   30.3960    9.1720 C.ar  143  HEM143      0.0000
     38  CMD       52.5720   27.3960    7.1290 C.3   143  HEM143      0.0000
     39  CAD       51.8380   30.3190    6.6070 C.3   143  HEM143      0.0000
     40  CBD       53.2360   30.8210    6.3390 C.3   143  HEM143      0.0000
     41  CGD       53.2890   31.4830    4.9450 C.2   143  HEM143      0.0000
     42  O1D       53.1340   32.7150    4.8650 O.co2 143  HEM143      0.0000
     43  O2D       53.4460   30.7480    3.9430 O.co2 143  HEM143      0.0000
@<TRIPOS>BOND
     1    43    41   ar
     2    42    41   ar
     3    41    40    1
     4    40    39    1
     5    39    36    1
     6    15    14   ar
     7    38    35    1
     8    16    14   ar
     9    14    13    1
    10    36    35   ar
    11    36    37   ar
    12    35    34   ar
    13    13    12    1
    14    37     2    2
    15    37    33   ar
    16     2     7    1
    17    12     8    1
    18    34    33   ar
    19    34     5    2
    20    33     1    1
    21     5    29    1
    22     7     8    1
    23     7     6    2
    24     8     9    2
    25    29    28    1
    26    29    25    2
    27     6     1    1
    28     6    10    1
    29    31    28    1
    30    31    32    1
    31     9    10    1
    32     9    11    1
    33     1    25    1
    34     1    17    1
    35    28    27    2
    36    25    26    1
    37    10     3    2
    38    27    26    1
    39    27    30    1
    40    26     4    2
    41     3    18    1
    42    17    18   ar
    43    17    21   ar
    44    18    19   ar
    45     4    21    1
    46    21    20   ar
    47    19    20   ar
    48    19    22    1
    49    20    23    1
    50    23    24    2
