@<TRIPOS>MOLECULE
1yzk_GNP_A_1.pdb
 32 34 0 0 0
SMALL
GASTEIGER

@<TRIPOS>ATOM
      1  PG         9.7870   17.2960    5.0340 P.3   200  GNP200      0.4884
      2  O1G        9.9610   17.1090    3.5490 O.2   200  GNP200     -0.2331
      3  O2G        8.5640   16.5940    5.5850 O.3   200  GNP200     -0.1240
      4  O3G        9.7610   18.7890    5.2230 O.3   200  GNP200     -0.1240
      5  N3B       11.1040   16.6540    5.7430 N.3   200  GNP200     -0.0163
      6  PB        11.4670   16.5880    7.3220 P.3   200  GNP200      0.4669
      7  O1B       12.0680   17.8530    7.7840 O.2   200  GNP200     -0.2351
      8  O2B       10.2520   16.1350    8.0490 O.3   200  GNP200     -0.1253
      9  O3A       12.5730   15.5260    7.5260 O.3   200  GNP200     -0.2360
     10  PA        12.4460   14.0610    8.0600 P.3   200  GNP200      0.2220
     11  O1A       12.1550   14.0210    9.5120 O.3   200  GNP200     -0.4370
     12  O2A       11.5630   13.2780    7.1660 O.2   200  GNP200     -0.5170
     13  O5'       13.9250   13.5230    7.9620 O.3   200  GNP200     -0.3111
     14  C5'       14.5920   13.5270    6.6890 C.3   200  GNP200      0.1813
     15  C4'       15.7500   12.5480    6.6720 C.3   200  GNP200      0.1799
     16  O4'       16.7270   12.9390    7.6670 O.3   200  GNP200     -0.3326
     17  C3'       15.3720   11.1190    7.0230 C.3   200  GNP200      0.2158
     18  O3'       16.2030   10.2180    6.3280 O.3   200  GNP200     -0.2175
     19  C2'       15.6250   11.0510    8.5210 C.3   200  GNP200      0.2310
     20  O2'       15.8490    9.7360    9.0010 O.3   200  GNP200     -0.2158
     21  C1'       16.8850   11.8990    8.6180 C.3   200  GNP200      0.2293
     22  N9        17.1260   12.4910    9.9270 N.pl3 200  GNP200     -0.2354
     23  C8        16.2310   13.2020   10.7050 C.3   200  GNP200      0.2246
     24  N7        16.7370   13.6120   11.8390 N.2   200  GNP200     -0.2322
     25  C5        18.0490   13.1410   11.8030 C.2   200  GNP200      0.2182
     26  C6        19.0880   13.2620   12.7520 C.1   200  GNP200      0.2372
     27  O6        19.0650   13.8410   13.8490 O.2   200  GNP200     -0.2069
     28  N1        20.2660   12.6490   12.3290 N.2   200  GNP200     -0.2485
     29  C2        20.4210   11.9630   11.1470 C.1   200  GNP200      0.2531
     30  N2        21.6410   11.4440   10.9320 N.pl3 200  GNP200     -0.0226
     31  N3        19.4560   11.8370   10.2420 N.2   200  GNP200     -0.3074
     32  C4        18.3020   12.4470   10.6370 C.2   200  GNP200      0.2300
@<TRIPOS>BOND
     1     2     1    2
     2     1     4    1
     3     1     3    1
     4     1     5    1
     5     5     6    1
     6    18    17    1
     7    15    14    1
     8    15    17    1
     9    15    16    1
    10    14    13    1
    11    17    19    1
    12    12    10    2
    13     6     9    1
    14     6     7    2
    15     6     8    1
    16     9    10    1
    17    16    21    1
    18    13    10    1
    19    10    11    1
    20    19    21    1
    21    19    20    1
    22    21    22    1
    23    22    32    1
    24    22    23    1
    25    31    32    2
    26    31    29    2
    27    32    25    1
    28    23    24    1
    29    30    29    1
    30    29    28    2
    31    25    24    2
    32    25    26    1
    33    28    26    2
    34    26    27    2
