@<TRIPOS>MOLECULE
1yzl_GNP_A_1.pdb
 32 34 0 0 0
SMALL
GASTEIGER

@<TRIPOS>ATOM
      1  PG       -11.8060   49.6140   23.1580 P.3   400  GNP400      0.4884
      2  O1G      -11.8190   48.3550   22.3340 O.2   400  GNP400     -0.2331
      3  O2G      -12.4210   50.8120   22.4760 O.3   400  GNP400     -0.1240
      4  O3G      -10.4050   49.7720   23.6730 O.3   400  GNP400     -0.1240
      5  N3B      -12.7440   49.3130   24.4460 N.3   400  GNP400     -0.0163
      6  PB       -13.0020   50.2770   25.7020 P.3   400  GNP400      0.4669
      7  O1B      -11.9310   50.1240   26.7150 O.3   400  GNP400     -0.1253
      8  O2B      -13.2690   51.6470   25.2050 O.2   400  GNP400     -0.2351
      9  O3A      -14.2920   49.8090   26.4290 O.3   400  GNP400     -0.2360
     10  PA       -15.7030   50.4380   26.3480 P.3   400  GNP400      0.2220
     11  O1A      -15.8000   51.7170   27.0710 O.3   400  GNP400     -0.4370
     12  O2A      -16.1780   50.4250   24.9540 O.2   400  GNP400     -0.5170
     13  O5'      -16.6190   49.4520   27.1900 O.3   400  GNP400     -0.3111
     14  C5'      -16.6020   48.0640   26.9030 C.3   400  GNP400      0.1813
     15  C4'      -17.8270   47.3880   27.4910 C.3   400  GNP400      0.1799
     16  O4'      -17.7520   47.4490   28.9380 O.3   400  GNP400     -0.3326
     17  C3'      -19.1370   48.0490   27.1040 C.3   400  GNP400      0.2158
     18  O3'      -20.1520   47.0630   26.9790 O.3   400  GNP400     -0.2175
     19  C2'      -19.3710   49.0090   28.2630 C.3   400  GNP400      0.2310
     20  O2'      -20.7360   49.3370   28.4440 O.3   400  GNP400     -0.2158
     21  C1'      -18.8280   48.1990   29.4390 C.3   400  GNP400      0.2293
     22  N9       -18.3680   49.0060   30.5660 N.pl3 400  GNP400     -0.2354
     23  C8       -17.5340   50.1060   30.5360 C.3   400  GNP400      0.2246
     24  N7       -17.3100   50.6110   31.7110 N.2   400  GNP400     -0.2322
     25  C5       -18.0380   49.8010   32.5830 C.2   400  GNP400      0.2182
     26  C6       -18.1910   49.8380   33.9960 C.1   400  GNP400      0.2372
     27  O6       -17.7100   50.6280   34.8220 O.2   400  GNP400     -0.2069
     28  N1       -19.0230   48.8180   34.4710 N.2   400  GNP400     -0.2485
     29  C2       -19.6180   47.8700   33.6760 C.1   400  GNP400      0.2531
     30  N2       -20.3850   46.9610   34.3080 N.pl3 400  GNP400     -0.0226
     31  N3       -19.4860   47.8180   32.3600 N.2   400  GNP400     -0.3074
     32  C4       -18.6860   48.8070   31.8850 C.2   400  GNP400      0.2300
@<TRIPOS>BOND
     1     2     1    2
     2     3     1    1
     3     1     4    1
     4     1     5    1
     5     5     6    1
     6    12    10    2
     7     8     6    2
     8     6     9    1
     9     6     7    1
    10    10     9    1
    11    10    11    1
    12    10    13    1
    13    14    13    1
    14    14    15    1
    15    18    17    1
    16    17    15    1
    17    17    19    1
    18    15    16    1
    19    19    20    1
    20    19    21    1
    21    16    21    1
    22    21    22    1
    23    23    22    1
    24    23    24    1
    25    22    32    1
    26    24    25    2
    27    32    31    2
    28    32    25    1
    29    31    29    2
    30    25    26    1
    31    29    30    1
    32    29    28    2
    33    26    28    2
    34    26    27    2
