@<TRIPOS>MOLECULE
1yzn_GNP_A_1.pdb
 32 34 0 0 0
SMALL
GASTEIGER

@<TRIPOS>ATOM
      1  PG         3.4610   22.2550   10.8010 P.3   300  GNP300      0.4884
      2  O1G        2.2670   21.5830   11.4260 O.3   300  GNP300     -0.1240
      3  O2G        3.3260   22.6970    9.3670 O.2   300  GNP300     -0.2331
      4  O3G        4.6060   21.3180   11.0760 O.3   300  GNP300     -0.1240
      5  N3B        3.7220   23.6040   11.6390 N.3   300  GNP300     -0.0163
      6  PB         4.9270   24.6320   11.4240 P.3   300  GNP300      0.4669
      7  O1B        6.1300   24.1290   12.1300 O.3   300  GNP300     -0.1253
      8  O2B        5.0650   24.9690    9.9870 O.2   300  GNP300     -0.2351
      9  O3A        4.5670   25.9670   12.1130 O.3   300  GNP300     -0.2360
     10  PA         3.8080   27.1740   11.5110 P.3   300  GNP300      0.2220
     11  O1A        4.7210   28.0240   10.7190 O.2   300  GNP300     -0.5170
     12  O2A        2.5560   26.7480   10.8750 O.3   300  GNP300     -0.4370
     13  O5'        3.4340   28.0650   12.7670 O.3   300  GNP300     -0.3111
     14  C5'        2.6920   27.5170   13.8640 C.3   300  GNP300      0.1813
     15  C4'        2.0200   28.6190   14.6630 C.3   300  GNP300      0.1799
     16  O4'        3.0060   29.3840   15.4090 O.3   300  GNP300     -0.3326
     17  C3'        1.2380   29.6480   13.8570 C.3   300  GNP300      0.2158
     18  O3'        0.1180   30.0770   14.6310 O.3   300  GNP300     -0.2175
     19  C2'        2.2590   30.7590   13.6450 C.3   300  GNP300      0.2310
     20  O2'        1.6560   32.0240   13.4340 O.3   300  GNP300     -0.2158
     21  C1'        3.0300   30.7220   14.9670 C.3   300  GNP300      0.2293
     22  N9         4.4140   31.2030   14.8530 N.pl3 300  GNP300     -0.2354
     23  C8         5.3470   30.8220   13.9140 C.3   300  GNP300      0.2246
     24  N7         6.4970   31.4220   14.0340 N.2   300  GNP300     -0.2322
     25  C5         6.3190   32.2560   15.1350 C.2   300  GNP300      0.2182
     26  C6         7.2200   33.1630   15.7460 C.1   300  GNP300      0.2372
     27  O6         8.3940   33.4020   15.4220 O.2   300  GNP300     -0.2069
     28  N1         6.6520   33.8260   16.8400 N.2   300  GNP300     -0.2485
     29  C2         5.3610   33.6440   17.2830 C.1   300  GNP300      0.2531
     30  N2         4.9900   34.3670   18.3560 N.pl3 300  GNP300     -0.0226
     31  N3         4.5090   32.7900   16.7210 N.2   300  GNP300     -0.3074
     32  C4         5.0430   32.1360   15.6500 C.2   300  GNP300      0.2300
@<TRIPOS>BOND
     1     3     1    2
     2     8     6    2
     3    11    10    2
     4     1     4    1
     5     1     2    1
     6     1     5    1
     7    12    10    1
     8     6     5    1
     9     6     9    1
    10     6     7    1
    11    10     9    1
    12    10    13    1
    13    13    14    1
    14    20    19    1
    15    19    17    1
    16    19    21    1
    17    17    18    1
    18    17    15    1
    19    14    15    1
    20    23    24    1
    21    23    22    1
    22    24    25    2
    23    15    16    1
    24    22    21    1
    25    22    32    1
    26    21    16    1
    27    25    32    1
    28    25    26    1
    29    27    26    2
    30    32    31    2
    31    26    28    2
    32    31    29    2
    33    28    29    2
    34    29    30    1
