@<TRIPOS>MOLECULE
1yzp_HEM_A_1.pdb
 43 50 0 0 0
SMALL
GASTEIGER

@<TRIPOS>ATOM
      1  CHA       57.5880   23.9970   35.5200 C.2   396  HEM396      0.0000
      2  CHB       59.3800   19.5840   36.3210 C.2   396  HEM396      0.0000
      3  CHC       56.1020   18.7750   39.7640 C.2   396  HEM396      0.0000
      4  CHD       54.4180   23.2840   39.1180 C.2   396  HEM396      0.0000
      5  C1A       58.4630   22.9080   35.5200 C.ar  396  HEM396      0.0000
      6  C2A       59.6330   22.7670   34.6890 C.ar  396  HEM396      0.0000
      7  C3A       60.0430   21.4810   34.7800 C.ar  396  HEM396      0.0000
      8  C4A       59.1850   20.8400   35.7460 C.ar  396  HEM396      0.0000
      9  CMA       61.3590   20.8980   34.2670 C.3   396  HEM396      0.0000
     10  CAA       60.1290   23.8170   33.7010 C.3   396  HEM396      0.0000
     11  CBA       61.0310   24.8640   34.3480 C.3   396  HEM396      0.0000
     12  CGA       61.8350   25.6280   33.3120 C.2   396  HEM396      0.0000
     13  O1A       62.6500   25.0380   32.5780 O.co2 396  HEM396      0.0000
     14  O2A       61.5970   26.8540   33.2020 O.co2 396  HEM396      0.0000
     15  C1B       58.5670   18.9660   37.2630 C.2   396  HEM396      0.0000
     16  C2B       58.8140   17.6300   37.7700 C.2   396  HEM396      0.0000
     17  C3B       57.7740   17.3340   38.5880 C.2   396  HEM396      0.0000
     18  C4B       56.9720   18.5390   38.7050 C.2   396  HEM396      0.0000
     19  CMB       59.9990   16.7700   37.3540 C.3   396  HEM396      0.0000
     20  CAB       57.5010   16.1640   39.2670 C.3   396  HEM396      0.0000
     21  CBB       57.8570   14.8020   38.9110 C.3   396  HEM396      0.0000
     22  C1C       55.5520   20.0360   40.0330 C.ar  396  HEM396      0.0000
     23  C2C       54.5540   20.2730   41.0530 C.ar  396  HEM396      0.0000
     24  C3C       54.1280   21.5470   40.9260 C.ar  396  HEM396      0.0000
     25  C4C       54.7920   22.0890   39.7600 C.ar  396  HEM396      0.0000
     26  CMC       54.1400   19.2100   42.0650 C.3   396  HEM396      0.0000
     27  CAC       53.4030   22.3440   41.8100 C.3   396  HEM396      0.0000
     28  CBC       52.2720   21.9290   42.6060 C.3   396  HEM396      0.0000
     29  C1D       55.0680   23.8250   38.0170 C.2   396  HEM396      0.0000
     30  C2D       54.7890   25.1400   37.4790 C.2   396  HEM396      0.0000
     31  C3D       55.6550   25.3220   36.4540 C.2   396  HEM396      0.0000
     32  C4D       56.5010   24.1560   36.3650 C.2   396  HEM396      0.0000
     33  CMD       53.7360   26.1230   37.9780 C.3   396  HEM396      0.0000
     34  CAD       55.7040   26.5280   35.5270 C.3   396  HEM396      0.0000
     35  CBD       56.7980   27.5290   35.8800 C.3   396  HEM396      0.0000
     36  CGD       56.7760   28.6840   34.8900 C.2   396  HEM396      0.0000
     37  O1D       57.6360   29.5680   35.0090 O.co2 396  HEM396      0.0000
     38  O2D       55.9220   28.6500   33.9720 O.co2 396  HEM396      0.0000
     39  NA        58.1910   21.7040   36.1340 N.ar  396  HEM396      0.0000
     40  NB        57.5530   19.5600   37.9820 N.2   396  HEM396      0.0000
     41  NC        55.5680   21.1080   39.1730 N.ar  396  HEM396      0.0000
     42  ND        56.1380   23.2580   37.3480 N.2   396  HEM396      0.0000
     43 FE         56.8020   21.3990   37.5620 Fe    396  HEM396      0.0000
@<TRIPOS>BOND
     1    13    12   ar
     2    14    12   ar
     3    12    11    1
     4    10    11    1
     5    10     6    1
     6    38    36   ar
     7     9     7    1
     8     6     7   ar
     9     6     5   ar
    10     7     8   ar
    11    36    37   ar
    12    36    35    1
    13     5     1    2
    14     5    39   ar
    15     1    32    1
    16    34    35    1
    17    34    31    1
    18     8    39   ar
    19     8     2    2
    20    39    43    1
    21     2    15    1
    22    32    31    1
    23    32    42    2
    24    31    30    2
    25    15    16    1
    26    15    40    2
    27    42    43    1
    28    42    29    1
    29    19    16    1
    30    30    33    1
    31    30    29    1
    32    43    40    1
    33    43    41    1
    34    16    17    2
    35    40    18    1
    36    29     4    2
    37    17    18    1
    38    17    20    1
    39    18     3    2
    40    21    20    1
    41     4    25    1
    42    41    25   ar
    43    41    22   ar
    44    25    24   ar
    45     3    22    1
    46    22    23   ar
    47    24    23   ar
    48    24    27    1
    49    23    26    1
    50    27    28    1
