@<TRIPOS>MOLECULE
1yzp_MAN_A_1.pdb
 11 11 0 0 0
SMALL
GASTEIGER

@<TRIPOS>ATOM
      1  C1        43.7750   28.0680   15.6870 C.3   364  MAN364      0.1777
      2  C2        42.3230   27.7810   15.2980 C.3   364  MAN364      0.2141
      3  C3        42.2560   26.5730   14.3510 C.3   364  MAN364      0.2173
      4  C4        43.2050   26.7620   13.1680 C.3   364  MAN364      0.2142
      5  C5        44.6320   27.1400   13.6090 C.3   364  MAN364      0.1810
      6  C6        45.5000   27.5890   12.4230 C.3   364  MAN364      0.2141
      7  O2        41.7540   28.9070   14.6620 O.3   364  MAN364     -0.2176
      8  O3        40.9300   26.3960   13.9130 O.3   364  MAN364     -0.2175
      9  O4        43.2700   25.5640   12.4250 O.3   364  MAN364     -0.2176
     10  O5        44.6190   28.2080   14.5320 O.3   364  MAN364     -0.3481
     11  O6        46.8530   27.7510   12.7760 O.3   364  MAN364     -0.2176
@<TRIPOS>BOND
     1     6    11    1
     2     6     5    1
     3     9     4    1
     4     4     5    1
     5     4     3    1
     6     5    10    1
     7     8     3    1
     8     3     2    1
     9    10     1    1
    10     7     2    1
    11     2     1    1
