@<TRIPOS>MOLECULE
1yzq_GNP_A_1.pdb
 32 34 0 0 0
SMALL
GASTEIGER

@<TRIPOS>ATOM
      1  PG        22.8160   10.6040   14.2100 P.3   900  GNP900      0.4884
      2  O1G       23.2500   10.0060   12.8910 O.2   900  GNP900     -0.2331
      3  O2G       23.6670   10.2380   15.3920 O.3   900  GNP900     -0.1240
      4  O3G       21.3460   10.3030   14.2990 O.3   900  GNP900     -0.1240
      5  N3B       22.9320   12.1910   14.0590 N.3   900  GNP900     -0.0163
      6  PB        22.8670   13.2660   15.2390 P.3   900  GNP900      0.4669
      7  O1B       21.4640   13.7270   15.3920 O.2   900  GNP900     -0.2351
      8  O2B       23.5640   12.7300   16.4150 O.3   900  GNP900     -0.1253
      9  O3A       23.6170   14.5290   14.7840 O.3   900  GNP900     -0.2360
     10  PA        25.0640   14.9920   15.0890 P.3   900  GNP900      0.2220
     11  O1A       25.1940   15.5250   16.4610 O.3   900  GNP900     -0.4370
     12  O2A       26.0510   13.9310   14.7460 O.2   900  GNP900     -0.5170
     13  O5'       25.2910   16.2380   14.1740 O.3   900  GNP900     -0.3111
     14  C5'       25.0770   16.1170   12.7660 C.3   900  GNP900      0.1813
     15  C4'       25.8160   17.2260   12.0440 C.3   900  GNP900      0.1799
     16  O4'       25.1800   18.4920   12.3520 O.3   900  GNP900     -0.3326
     17  C3'       27.2900   17.3620   12.4200 C.3   900  GNP900      0.2158
     18  O3'       28.0810   17.6680   11.2610 O.3   900  GNP900     -0.2175
     19  C2'       27.2980   18.5150   13.4250 C.3   900  GNP900      0.2310
     20  O2'       28.5250   19.2180   13.3900 O.3   900  GNP900     -0.2158
     21  C1'       26.1220   19.3680   12.9400 C.3   900  GNP900      0.2293
     22  N9        25.4130   20.1000   13.9960 N.pl3 900  GNP900     -0.2354
     23  C8        24.8640   19.5940   15.1570 C.3   900  GNP900      0.2246
     24  N7        24.2920   20.5020   15.9050 N.2   900  GNP900     -0.2322
     25  C5        24.4700   21.6910   15.1970 C.2   900  GNP900      0.2182
     26  C6        24.0760   23.0210   15.5020 C.1   900  GNP900      0.2372
     27  O6        23.4480   23.4480   16.4820 O.2   900  GNP900     -0.2069
     28  N1        24.4460   23.9270   14.5020 N.2   900  GNP900     -0.2485
     29  C2        25.1290   23.5940   13.3520 C.1   900  GNP900      0.2531
     30  N2        25.4020   24.6120   12.5200 N.pl3 900  GNP900     -0.0226
     31  N3        25.5170   22.3540   13.0540 N.2   900  GNP900     -0.3074
     32  C4        25.1550   21.4540   14.0160 C.2   900  GNP900      0.2300
@<TRIPOS>BOND
     1    18    17    1
     2    15    16    1
     3    15    17    1
     4    15    14    1
     5    16    21    1
     6    17    19    1
     7    30    29    1
     8    14    13    1
     9     2     1    2
    10    21    19    1
    11    21    22    1
    12    31    29    2
    13    31    32    2
    14    29    28    2
    15    20    19    1
    16    22    32    1
    17    22    23    1
    18    32    25    1
    19     5     1    1
    20     5     6    1
    21    13    10    1
    22     1     4    1
    23     1     3    1
    24    28    26    2
    25    12    10    2
    26     9    10    1
    27     9     6    1
    28    10    11    1
    29    23    24    1
    30    25    26    1
    31    25    24    2
    32     6     7    2
    33     6     8    1
    34    26    27    2
