@<TRIPOS>MOLECULE
1yzr_HEM_A_1.pdb
 43 50 0 0 0
SMALL
GASTEIGER

@<TRIPOS>ATOM
      1  CHA       57.7690   24.0880   35.4490 C.2   396  HEM396      0.0000
      2  CHB       59.5630   19.6340   36.2170 C.2   396  HEM396      0.0000
      3  CHC       56.3280   18.9110   39.7430 C.2   396  HEM396      0.0000
      4  CHD       54.7250   23.4690   39.1480 C.2   396  HEM396      0.0000
      5  C1A       58.6080   22.9710   35.4000 C.ar  396  HEM396      0.0000
      6  C2A       59.7700   22.8050   34.5560 C.ar  396  HEM396      0.0000
      7  C3A       60.2370   21.5420   34.7270 C.ar  396  HEM396      0.0000
      8  C4A       59.4000   20.9290   35.7340 C.ar  396  HEM396      0.0000
      9  CMA       61.5700   20.9990   34.2040 C.3   396  HEM396      0.0000
     10  CAA       60.4060   23.8250   33.6380 C.3   396  HEM396      0.0000
     11  CBA       61.2700   24.8870   34.3100 C.3   396  HEM396      0.0000
     12  CGA       62.0020   25.7450   33.2840 C.2   396  HEM396      0.0000
     13  O1A       62.8610   25.2150   32.5630 O.co2 396  HEM396      0.0000
     14  O2A       61.6920   26.9620   33.2160 O.co2 396  HEM396      0.0000
     15  C1B       58.7690   19.0340   37.1980 C.2   396  HEM396      0.0000
     16  C2B       58.9960   17.6990   37.6990 C.2   396  HEM396      0.0000
     17  C3B       57.9970   17.4370   38.5790 C.2   396  HEM396      0.0000
     18  C4B       57.2010   18.6450   38.6940 C.2   396  HEM396      0.0000
     19  CMB       60.2170   16.8540   37.3380 C.3   396  HEM396      0.0000
     20  CAB       57.7490   16.2910   39.3200 C.3   396  HEM396      0.0000
     21  CBB       57.9980   14.9360   38.8470 C.3   396  HEM396      0.0000
     22  C1C       55.6670   20.1220   39.9360 C.ar  396  HEM396      0.0000
     23  C2C       54.6740   20.3740   40.9580 C.ar  396  HEM396      0.0000
     24  C3C       54.2980   21.6690   40.8470 C.ar  396  HEM396      0.0000
     25  C4C       55.0000   22.2130   39.7070 C.ar  396  HEM396      0.0000
     26  CMC       54.2810   19.3800   42.0450 C.3   396  HEM396      0.0000
     27  CAC       53.5060   22.4520   41.6730 C.3   396  HEM396      0.0000
     28  CBC       52.4960   22.1110   42.6440 C.3   396  HEM396      0.0000
     29  C1D       55.2440   23.9420   37.9520 C.2   396  HEM396      0.0000
     30  C2D       54.9870   25.2580   37.4060 C.2   396  HEM396      0.0000
     31  C3D       55.8490   25.4260   36.3780 C.2   396  HEM396      0.0000
     32  C4D       56.7110   24.2670   36.3230 C.2   396  HEM396      0.0000
     33  CMD       53.8610   26.1960   37.8220 C.3   396  HEM396      0.0000
     34  CAD       55.9410   26.6530   35.4890 C.3   396  HEM396      0.0000
     35  CBD       56.8870   27.7480   35.9860 C.3   396  HEM396      0.0000
     36  CGD       57.0020   28.8110   34.8940 C.2   396  HEM396      0.0000
     37  O1D       57.8840   29.6630   35.0440 O.co2 396  HEM396      0.0000
     38  O2D       56.1840   28.7660   33.9440 O.co2 396  HEM396      0.0000
     39  NA        58.3830   21.7900   36.0890 N.ar  396  HEM396      0.0000
     40  NB        57.7400   19.6240   37.8940 N.2   396  HEM396      0.0000
     41  NC        55.7900   21.2360   39.1370 N.ar  396  HEM396      0.0000
     42  ND        56.2990   23.3610   37.2810 N.2   396  HEM396      0.0000
     43 FE         56.9460   21.4650   37.4930 Fe    396  HEM396      0.0000
@<TRIPOS>BOND
     1    13    12   ar
     2    14    12   ar
     3    12    11    1
     4    10    11    1
     5    10     6    1
     6    38    36   ar
     7     9     7    1
     8     6     7   ar
     9     6     5   ar
    10     7     8   ar
    11    36    37   ar
    12    36    35    1
    13     5     1    2
    14     5    39   ar
    15     1    32    1
    16    34    35    1
    17    34    31    1
    18     8    39   ar
    19     8     2    2
    20    39    43    1
    21     2    15    1
    22    32    31    1
    23    32    42    2
    24    31    30    2
    25    15    16    1
    26    15    40    2
    27    42    43    1
    28    42    29    1
    29    19    16    1
    30    30    33    1
    31    30    29    1
    32    43    40    1
    33    43    41    1
    34    16    17    2
    35    40    18    1
    36    29     4    2
    37    17    18    1
    38    17    20    1
    39    18     3    2
    40    21    20    1
    41    41    25   ar
    42    41    22   ar
    43     4    25    1
    44    25    24   ar
    45     3    22    1
    46    22    23   ar
    47    24    23   ar
    48    24    27    1
    49    23    26    1
    50    27    28    1
