@<TRIPOS>MOLECULE
1yzr_MAN_A_1.pdb
 11 11 0 0 0
SMALL
GASTEIGER

@<TRIPOS>ATOM
      1  C1        43.7590   27.9670   15.6950 C.3   364  MAN364      0.1777
      2  C2        42.3370   27.6070   15.2650 C.3   364  MAN364      0.2141
      3  C3        42.3280   26.4550   14.2500 C.3   364  MAN364      0.2173
      4  C4        43.3580   26.6760   13.1450 C.3   364  MAN364      0.2142
      5  C5        44.7440   27.0250   13.7170 C.3   364  MAN364      0.1810
      6  C6        45.7460   27.4620   12.6310 C.3   364  MAN364      0.2141
      7  O2        41.6910   28.7530   14.7450 O.3   364  MAN364     -0.2176
      8  O3        41.0390   26.2950   13.6990 O.3   364  MAN364     -0.2175
      9  O4        43.4280   25.5450   12.3040 O.3   364  MAN364     -0.2176
     10  O5        44.6440   28.1520   14.5790 O.3   364  MAN364     -0.3481
     11  O6        46.9710   27.8360   13.2170 O.3   364  MAN364     -0.2176
@<TRIPOS>BOND
     1     9     4    1
     2     6    11    1
     3     6     5    1
     4     4     5    1
     5     4     3    1
     6     8     3    1
     7     5    10    1
     8     3     2    1
     9    10     1    1
    10     7     2    1
    11     2     1    1
