@<TRIPOS>MOLECULE
1yzt_GNP_A_1.pdb
 32 34 0 0 0
SMALL
GASTEIGER

@<TRIPOS>ATOM
      1  PG         3.6130   -8.3020   29.1060 P.3   701  GNP701      0.4884
      2  O1G        3.5140   -9.0100   27.7710 O.2   701  GNP701     -0.2331
      3  O2G        4.9860   -8.5110   29.6940 O.3   701  GNP701     -0.1240
      4  O3G        2.4890   -8.8480   29.9200 O.3   701  GNP701     -0.1240
      5  N3B        3.3430   -6.7240   28.8550 N.3   701  GNP701     -0.0163
      6  PB         3.7350   -5.4780   29.8040 P.3   701  GNP701      0.4669
      7  O1B        2.6200   -5.0460   30.6810 O.3   701  GNP701     -0.1253
      8  O2B        4.9970   -5.8380   30.5020 O.2   701  GNP701     -0.2351
      9  O3A        3.9570   -4.2340   28.8470 O.3   701  GNP701     -0.2360
     10  PA         5.2340   -3.5760   28.2320 P.3   701  GNP701      0.2220
     11  O1A        5.9310   -2.7520   29.2570 O.3   701  GNP701     -0.4370
     12  O2A        6.0830   -4.5160   27.4830 O.2   701  GNP701     -0.5170
     13  O5'        4.7470   -2.5140   27.1780 O.3   701  GNP701     -0.3111
     14  C5'        3.7670   -2.8480   26.1810 C.3   701  GNP701      0.1813
     15  C4'        3.6580   -1.7460   25.1310 C.3   701  GNP701      0.1799
     16  O4'        3.1280   -0.5520   25.7660 O.3   701  GNP701     -0.3326
     17  C3'        4.9800   -1.3570   24.4810 C.3   701  GNP701      0.2158
     18  O3'        4.8530   -1.1280   23.0770 O.3   701  GNP701     -0.2175
     19  C2'        5.3570   -0.0900   25.2340 C.3   701  GNP701      0.2310
     20  O2'        6.1940    0.8230   24.5470 O.3   701  GNP701     -0.2158
     21  C1'        3.9850    0.5210   25.4620 C.3   701  GNP701      0.2293
     22  N9         3.9490    1.4330   26.5890 N.pl3 701  GNP701     -0.2354
     23  C8         4.2390    1.1160   27.8860 C.3   701  GNP701      0.2246
     24  N7         4.1150    2.1240   28.6830 N.2   701  GNP701     -0.2322
     25  C5         3.7170    3.1810   27.8710 C.2   701  GNP701      0.2182
     26  C6         3.4440    4.5360   28.1860 C.1   701  GNP701      0.2372
     27  O6         3.4830    5.1170   29.2790 O.2   701  GNP701     -0.2069
     28  N1         3.0560    5.2530   27.0580 N.2   701  GNP701     -0.2485
     29  C2         2.9630    4.7480   25.7850 C.1   701  GNP701      0.2531
     30  N2         2.5990    5.6100   24.8420 N.pl3 701  GNP701     -0.0226
     31  N3         3.2420    3.4980   25.4640 N.2   701  GNP701     -0.3074
     32  C4         3.6080    2.7720   26.5620 C.2   701  GNP701      0.2300
@<TRIPOS>BOND
     1    18    17    1
     2    17    15    1
     3    17    19    1
     4    20    19    1
     5    30    29    1
     6    15    16    1
     7    15    14    1
     8    19    21    1
     9    21    16    1
    10    21    22    1
    11    31    29    2
    12    31    32    2
    13    29    28    2
    14    14    13    1
    15    32    22    1
    16    32    25    1
    17    22    23    1
    18    28    26    2
    19    13    10    1
    20    12    10    2
    21     2     1    2
    22    25    26    1
    23    25    24    2
    24    23    24    1
    25    26    27    2
    26    10     9    1
    27    10    11    1
    28     9     6    1
    29     5     1    1
    30     5     6    1
    31     1     3    1
    32     1     4    1
    33     6     8    2
    34     6     7    1
