@<TRIPOS>MOLECULE
1yzu_GNP_A_1.pdb
 32 34 0 0 0
SMALL
GASTEIGER

@<TRIPOS>ATOM
      1  PG        20.4490   10.5300   27.6650 P.3   301  GNP301      0.4884
      2  O1G       21.5170   10.7550   26.6000 O.2   301  GNP301     -0.2331
      3  O2G       19.9600    9.0970   27.7970 O.3   301  GNP301     -0.1240
      4  O3G       19.3230   11.5290   27.3320 O.3   301  GNP301     -0.1240
      5  N3B       21.0050   11.0780   29.0620 N.3   301  GNP301     -0.0163
      6  PB        20.3620   10.8450   30.5030 P.3   301  GNP301      0.4669
      7  O1B       19.4900   11.9720   30.9220 O.3   301  GNP301     -0.1253
      8  O2B       19.7110    9.5160   30.4410 O.2   301  GNP301     -0.2351
      9  O3A       21.5560   10.9070   31.4840 O.3   301  GNP301     -0.2360
     10  PA        22.3010    9.8140   32.2850 P.3   301  GNP301      0.2220
     11  O1A       21.3750    9.1740   33.2620 O.3   301  GNP301     -0.4370
     12  O2A       23.0300    8.9140   31.3740 O.2   301  GNP301     -0.5170
     13  O5'       23.4040   10.5820   33.1000 O.3   301  GNP301     -0.3111
     14  C5'       24.3200   11.3840   32.3280 C.3   301  GNP301      0.1813
     15  C4'       25.5460   11.7690   33.1260 C.3   301  GNP301      0.1799
     16  O4'       25.0720   12.4480   34.3100 O.3   301  GNP301     -0.3326
     17  C3'       26.3730   10.5800   33.6140 C.3   301  GNP301      0.2158
     18  O3'       27.7980   10.8790   33.7300 O.3   301  GNP301     -0.2175
     19  C2'       25.7170   10.2950   34.9620 C.3   301  GNP301      0.2310
     20  O2'       26.5320    9.5400   35.8130 O.3   301  GNP301     -0.2158
     21  C1'       25.4960   11.7340   35.4560 C.3   301  GNP301      0.2293
     22  N9        24.5060   11.8460   36.5300 N.pl3 301  GNP301     -0.2354
     23  C8        23.1860   11.4420   36.5170 C.3   301  GNP301      0.2246
     24  N7        22.5540   11.6560   37.6510 N.2   301  GNP301     -0.2322
     25  C5        23.5120   12.2550   38.4660 C.2   301  GNP301      0.2182
     26  C6        23.4370   12.7530   39.7960 C.1   301  GNP301      0.2372
     27  O6        22.4770   12.7490   40.6030 O.2   301  GNP301     -0.2069
     28  N1        24.6750   13.2530   40.2280 N.2   301  GNP301     -0.2485
     29  C2        25.8160   13.3550   39.4730 C.1   301  GNP301      0.2531
     30  N2        26.8970   13.8950   40.0730 N.pl3 301  GNP301     -0.0226
     31  N3        25.8880   12.9210   38.2260 N.2   301  GNP301     -0.3074
     32  C4        24.7200   12.3770   37.7880 C.2   301  GNP301      0.2300
@<TRIPOS>BOND
     1     2     1    2
     2     4     1    1
     3     1     3    1
     4     1     5    1
     5     5     6    1
     6     8     6    2
     7     6     7    1
     8     6     9    1
     9    12    10    2
    10     9    10    1
    11    10    13    1
    12    10    11    1
    13    14    13    1
    14    14    15    1
    15    15    17    1
    16    15    16    1
    17    17    18    1
    18    17    19    1
    19    16    21    1
    20    19    21    1
    21    19    20    1
    22    21    22    1
    23    23    22    1
    24    23    24    1
    25    22    32    1
    26    24    25    2
    27    32    31    2
    28    32    25    1
    29    31    29    2
    30    25    26    1
    31    29    30    1
    32    29    28    2
    33    26    28    2
    34    26    27    2
