@<TRIPOS>MOLECULE
1yzx_GSF_A_1.pdb
 22 21 0 0 0
SMALL
GASTEIGER

@<TRIPOS>ATOM
      1  CB1       16.5110   68.3410    3.5530 C.3   301  GSF301      0.0402
      2  CG1       16.4590   66.8610    2.9910 C.3   301  GSF301      0.0889
      3  CD1       15.0300   66.2610    2.9880 C.2   301  GSF301      0.2419
      4  OE1       14.0660   66.9370    3.4070 O.2   301  GSF301     -0.2733
      5  C1        18.5890   69.3130    2.3220 C.2   301  GSF301      0.3819
      6  O11       18.9750   68.2840    1.7230 O.co2 301  GSF301     -0.2441
      7  O12       18.7700   70.4570    1.9050 O.co2 301  GSF301     -0.2441
      8  N1        17.4770   70.4990    4.2320 N.3   301  GSF301     -0.1208
      9  CA1       17.8420   69.1520    3.6640 C.3   301  GSF301      0.1948
     10  N2        14.8750   64.9640    2.5160 N.am  301  GSF301     -0.1959
     11  CA2       13.5060   64.2630    2.4850 C.3   301  GSF301      0.1959
     12  CB2       13.3800   63.5370    1.1690 C.3   301  GSF301      0.1788
     13  SG2       13.2120   64.4930   -0.2720 S.3   301  GSF301     -0.0161
     14  O1S       14.4910   64.5320   -1.0580 O.3   301  GSF301     -0.0781
     15  O2S       12.1400   63.7430   -0.9380 O.3   301  GSF301     -0.0781
     16  C2        13.5890   63.4090    3.7400 C.2   301  GSF301      0.2635
     17  O2        13.9790   62.2240    3.7550 O.2   301  GSF301     -0.2714
     18  N3        13.1530   64.1190    4.8210 N.am  301  GSF301     -0.1917
     19  CA3       13.1120   63.5100    6.1870 C.3   301  GSF301      0.2285
     20  C3        12.5840   64.5110    7.1940 C.2   301  GSF301      0.3865
     21  O31       12.2840   64.0510    8.3050 O.co2 301  GSF301     -0.2437
     22  O32       12.4650   65.7260    6.8850 O.co2 301  GSF301     -0.2437
@<TRIPOS>BOND
     1    14    13    1
     2    15    13    1
     3    13    12    1
     4    12    11    1
     5     6     5   ar
     6     7     5   ar
     7     5     9    1
     8    11    10    1
     9    11    16    1
    10    10     3   am
    11     3     2    1
    12     3     4    2
    13     2     1    1
    14     1     9    1
    15     9     8    1
    16    16    17    2
    17    16    18   am
    18    18    19    1
    19    19    20    1
    20    22    20   ar
    21    20    21   ar
