@<TRIPOS>MOLECULE
1z03_OCH_A_1.pdb
 11 12 0 0 0
SMALL
GASTEIGER

@<TRIPOS>ATOM
      1  O1        -8.7180   24.3570   32.3410 O.2   4600  OCH4600    -0.2093
      2  N2        -8.0030   26.3420   33.3200 N.2   4600  OCH4600    -0.3367
      3  C3        -7.6750   27.1290   34.4530 C.2   4600  OCH4600     0.1297
      4  C4        -7.2230   28.4930   34.3080 C.2   4600  OCH4600     0.0292
      5  C5        -6.9100   29.2110   35.4620 C.2   4600  OCH4600     0.0020
      6  C6        -7.0300   28.6110   36.7550 C.2   4600  OCH4600    -0.0038
      7  C7        -7.4680   27.2960   36.8980 C.2   4600  OCH4600    -0.0150
      8  C8        -7.7950   26.5240   35.7770 C.3   4600  OCH4600     0.0979
      9  C9        -8.2640   25.1110   35.8990 C.2   4600  OCH4600    -0.0016
     10  C10       -8.5700   24.3820   34.8150 C.2   4600  OCH4600     0.1027
     11  C1        -8.4600   24.9620   33.3820 C.1   4600  OCH4600     0.2048
@<TRIPOS>BOND
     1     1    11    2
     2     2    11    2
     3     2     3    2
     4    11    10    1
     5     4     3    1
     6     4     5    2
     7     3     8    1
     8    10     9    2
     9     5     6    1
    10     8     9    1
    11     8     7    1
    12     6     7    2
