@<TRIPOS>MOLECULE
1z06_GNP_A_1.pdb
 32 34 0 0 0
SMALL
GASTEIGER

@<TRIPOS>ATOM
      1  PG        -4.0990   12.4820    5.9890 P.3   204  GNP204      0.4884
      2  O1G       -4.9040   11.7850    7.0680 O.3   204  GNP204     -0.1240
      3  O2G       -4.8850   12.8430    4.7680 O.2   204  GNP204     -0.2331
      4  O3G       -2.8920   11.6220    5.7290 O.3   204  GNP204     -0.1240
      5  N3B       -3.5770   13.8770    6.6120 N.3   204  GNP204     -0.0163
      6  PB        -2.5970   14.9810    5.9470 P.3   204  GNP204      0.4669
      7  O1B       -1.1600   14.6570    6.0910 O.3   204  GNP204     -0.1253
      8  O2B       -3.0930   15.2480    4.5820 O.2   204  GNP204     -0.2351
      9  O3A       -2.7870   16.2880    6.8020 O.3   204  GNP204     -0.2360
     10  PA        -3.5100   17.6380    6.4240 P.3   204  GNP204      0.2220
     11  O1A       -2.8380   18.2830    5.2710 O.2   204  GNP204     -0.5170
     12  O2A       -4.9640   17.4200    6.3680 O.3   204  GNP204     -0.4370
     13  O5'       -3.2120   18.6190    7.6230 O.3   204  GNP204     -0.3111
     14  C5'       -3.3560   18.1380    8.9550 C.3   204  GNP204      0.1813
     15  C4'       -3.5930   19.2720    9.9450 C.3   204  GNP204      0.1799
     16  O4'       -2.3770   20.0380   10.0950 O.3   204  GNP204     -0.3326
     17  C3'       -4.6630   20.2790    9.5480 C.3   204  GNP204      0.2158
     18  O3'       -5.3730   20.7440   10.7190 O.3   204  GNP204     -0.2175
     19  C2'       -3.8870   21.4100    8.8890 C.3   204  GNP204      0.2310
     20  O2'       -4.5520   22.6670    8.9950 O.3   204  GNP204     -0.2158
     21  C1'       -2.6050   21.3820    9.7010 C.3   204  GNP204      0.2293
     22  N9        -1.4080   21.8140    9.0010 N.pl3 204  GNP204     -0.2354
     23  C8        -0.8780   21.2940    7.8320 C.3   204  GNP204      0.2246
     24  N7         0.2220   21.8770    7.4630 N.2   204  GNP204     -0.2322
     25  C5         0.4510   22.8380    8.4440 C.2   204  GNP204      0.2182
     26  C6         1.4940   23.7860    8.5850 C.1   204  GNP204      0.2372
     27  O6         2.4880   23.9970    7.8640 O.2   204  GNP204     -0.2069
     28  N1         1.3420   24.5810    9.7210 N.2   204  GNP204     -0.2485
     29  C2         0.3140   24.4560   10.6180 C.1   204  GNP204      0.2531
     30  N2         0.3590   25.3280   11.6450 N.pl3 204  GNP204     -0.0226
     31  N3        -0.6890   23.5860   10.5040 N.2   204  GNP204     -0.3074
     32  C4        -0.5480   22.8030    9.3980 C.2   204  GNP204      0.2300
@<TRIPOS>BOND
     1     8     6    2
     2     3     1    2
     3    11    10    2
     4     4     1    1
     5     6     7    1
     6     6     5    1
     7     6     9    1
     8     1     5    1
     9     1     2    1
    10    12    10    1
    11    10     9    1
    12    10    13    1
    13    24    23    1
    14    24    25    2
    15    13    14    1
    16    23    22    1
    17    27    26    2
    18    25    26    1
    19    25    32    1
    20    26    28    2
    21    19    20    1
    22    19    17    1
    23    19    21    1
    24    14    15    1
    25    22    32    1
    26    22    21    1
    27    32    31    2
    28    17    15    1
    29    17    18    1
    30    21    16    1
    31    28    29    2
    32    15    16    1
    33    31    29    2
    34    29    30    1
