@<TRIPOS>MOLECULE
1z07_GNP_A_1.pdb
 32 34 0 0 0
SMALL
GASTEIGER

@<TRIPOS>ATOM
      1  PG         1.7390   33.4700   -9.8940 P.3   301  GNP301      0.4884
      2  O1G        1.1580   34.3640  -10.9650 O.2   301  GNP301     -0.2331
      3  O2G        1.8100   32.0220  -10.2930 O.3   301  GNP301     -0.1240
      4  O3G        0.8940   33.7590   -8.6830 O.3   301  GNP301     -0.1240
      5  N3B        3.2440   33.9210   -9.5650 N.3   301  GNP301     -0.0163
      6  PB         4.2370   33.2820   -8.4750 P.3   301  GNP301      0.4669
      7  O1B        3.9890   33.8690   -7.1360 O.3   301  GNP301     -0.1253
      8  O2B        4.1320   31.8060   -8.5830 O.2   301  GNP301     -0.2351
      9  O3A        5.6790   33.7020   -8.8350 O.3   301  GNP301     -0.2360
     10  PA         6.7960   32.9010   -9.5440 P.3   301  GNP301      0.2220
     11  O1A        7.2610   31.7980   -8.6810 O.3   301  GNP301     -0.4370
     12  O2A        6.4060   32.5320  -10.9250 O.2   301  GNP301     -0.5170
     13  O5'        8.0240   33.8980   -9.6510 O.3   301  GNP301     -0.3111
     14  C5'        7.9430   35.1200  -10.4020 C.3   301  GNP301      0.1813
     15  C4'        9.3090   35.5300  -10.9490 C.3   301  GNP301      0.1799
     16  O4'       10.1830   35.9370   -9.8610 O.3   301  GNP301     -0.3326
     17  C3'       10.0700   34.4500  -11.7170 C.3   301  GNP301      0.2158
     18  O3'       10.7700   35.0380  -12.8130 O.3   301  GNP301     -0.2175
     19  C2'       11.0160   33.8780  -10.6620 C.3   301  GNP301      0.2310
     20  O2'       12.1840   33.3030  -11.2150 O.3   301  GNP301     -0.2158
     21  C1'       11.3350   35.1150   -9.8190 C.3   301  GNP301      0.2293
     22  N9        11.6550   34.8290   -8.4180 N.pl3 301  GNP301     -0.2354
     23  C8        10.9590   34.0210   -7.5480 C.3   301  GNP301      0.2246
     24  N7        11.4870   33.9500   -6.3560 N.2   301  GNP301     -0.2322
     25  C5        12.6080   34.7630   -6.4340 C.2   301  GNP301      0.2182
     26  C6        13.5810   35.0840   -5.4480 C.1   301  GNP301      0.2372
     27  O6        13.6450   34.6990   -4.2700 O.2   301  GNP301     -0.2069
     28  N1        14.5570   35.9530   -5.9390 N.2   301  GNP301     -0.2485
     29  C2        14.5940   36.4540   -7.2240 C.1   301  GNP301      0.2531
     30  N2        15.6140   37.2810   -7.5150 N.pl3 301  GNP301     -0.0226
     31  N3        13.6880   36.1610   -8.1560 N.2   301  GNP301     -0.3074
     32  C4        12.7260   35.3140   -7.6970 C.2   301  GNP301      0.2300
@<TRIPOS>BOND
     1    18    17    1
     2    17    15    1
     3    17    19    1
     4    20    19    1
     5     2     1    2
     6    15    14    1
     7    15    16    1
     8    12    10    2
     9    19    21    1
    10    14    13    1
    11     3     1    1
    12     1     5    1
    13     1     4    1
    14    16    21    1
    15    21    22    1
    16    13    10    1
    17     5     6    1
    18    10     9    1
    19    10    11    1
    20     9     6    1
    21     8     6    2
    22     6     7    1
    23    22    32    1
    24    22    23    1
    25    31    32    2
    26    31    29    2
    27    32    25    1
    28    23    24    1
    29    30    29    1
    30    29    28    2
    31    25    24    2
    32    25    26    1
    33    28    26    2
    34    26    27    2
