@<TRIPOS>MOLECULE
1z08_GNP_A_1.pdb
 32 34 0 0 0
SMALL
GASTEIGER

@<TRIPOS>ATOM
      1  PG        81.7620    1.2420    0.3740 P.3   1200  GNP1200     0.4884
      2  O1G       83.0790    1.9810    0.4220 O.3   1200  GNP1200    -0.1240
      3  O2G       81.8550   -0.1860   -0.0970 O.3   1200  GNP1200    -0.1240
      4  O3G       80.8770    2.1360   -0.4490 O.2   1200  GNP1200    -0.2331
      5  N3B       81.1500    1.1930    1.8600 N.3   1200  GNP1200    -0.0163
      6  PB        79.8630    0.3960    2.3780 P.3   1200  GNP1200     0.4669
      7  O1B       78.6650    1.2620    2.3690 O.3   1200  GNP1200    -0.1253
      8  O2B       79.7540   -0.8790    1.6310 O.2   1200  GNP1200    -0.2351
      9  O3A       80.0830    0.0730    3.8660 O.3   1200  GNP1200    -0.2360
     10  PA        80.5320   -1.2490    4.5170 P.3   1200  GNP1200     0.2220
     11  O1A       79.4190   -2.2200    4.4970 O.3   1200  GNP1200    -0.4370
     12  O2A       81.8400   -1.7210    3.9990 O.2   1200  GNP1200    -0.5170
     13  O5'       80.7390   -0.8730    6.0310 O.3   1200  GNP1200    -0.3111
     14  C5'       81.5390    0.2540    6.3870 C.3   1200  GNP1200     0.1813
     15  C4'       81.8350    0.2260    7.8760 C.3   1200  GNP1200     0.1799
     16  O4'       80.6010    0.3650    8.6270 O.3   1200  GNP1200    -0.3326
     17  C3'       82.4970   -1.0510    8.3820 C.3   1200  GNP1200     0.2158
     18  O3'       83.4250   -0.6950    9.3890 O.3   1200  GNP1200    -0.2175
     19  C2'       81.3090   -1.8500    8.9170 C.3   1200  GNP1200     0.2310
     20  O2'       81.6440   -2.8120    9.8980 O.3   1200  GNP1200    -0.2158
     21  C1'       80.4600   -0.7300    9.5120 C.3   1200  GNP1200     0.2293
     22  N9        79.0480   -1.0760    9.6410 N.pl3 1200  GNP1200    -0.2354
     23  C8        78.1840   -1.4700    8.6440 C.3   1200  GNP1200     0.2246
     24  N7        76.9770   -1.7200    9.0710 N.2   1200  GNP1200    -0.2322
     25  C5        77.0430   -1.4750   10.4400 C.2   1200  GNP1200     0.2182
     26  C6        76.0460   -1.5730   11.4470 C.1   1200  GNP1200     0.2372
     27  O6        74.8600   -1.9040   11.3220 O.2   1200  GNP1200    -0.2069
     28  N1        76.5290   -1.2260   12.7140 N.2   1200  GNP1200    -0.2485
     29  C2        77.8250   -0.8420   12.9730 C.1   1200  GNP1200     0.2531
     30  N2        78.1200   -0.5480   14.2470 N.pl3 1200  GNP1200    -0.0226
     31  N3        78.7650   -0.7450   12.0420 N.2   1200  GNP1200    -0.3074
     32  C4        78.3120   -1.0790   10.8040 C.2   1200  GNP1200     0.2300
@<TRIPOS>BOND
     1     4     1    2
     2     3     1    1
     3     1     2    1
     4     1     5    1
     5     8     6    2
     6     5     6    1
     7     7     6    1
     8     6     9    1
     9     9    10    1
    10    12    10    2
    11    11    10    1
    12    10    13    1
    13    13    14    1
    14    14    15    1
    15    15    17    1
    16    15    16    1
    17    17    19    1
    18    17    18    1
    19    16    21    1
    20    23    24    1
    21    23    22    1
    22    19    21    1
    23    19    20    1
    24    24    25    2
    25    21    22    1
    26    22    32    1
    27    25    32    1
    28    25    26    1
    29    32    31    2
    30    27    26    2
    31    26    28    2
    32    31    29    2
    33    28    29    2
    34    29    30    1
