@<TRIPOS>MOLECULE
1z0a_GDP_A_1.pdb
 28 30 0 0 0
SMALL
GASTEIGER

@<TRIPOS>ATOM
      1  PB        67.2710   17.5860    3.4890 P.3   1200  GDP1200     0.5373
      2  O1B       67.1280   17.2860    4.9670 O.3   1200  GDP1200    -0.1143
      3  O2B       67.7910   18.9870    3.3090 O.3   1200  GDP1200    -0.1143
      4  O3B       68.2470   16.6040    2.9080 O.2   1200  GDP1200    -0.2221
      5  O3A       65.8420   17.4910    2.7800 O.3   1200  GDP1200    -0.2261
      6  PA        65.1810   18.5420    1.7480 P.3   1200  GDP1200     0.2231
      7  O1A       64.8750   19.8740    2.3620 O.3   1200  GDP1200    -0.4370
      8  O2A       66.0600   18.6450    0.5190 O.2   1200  GDP1200    -0.5169
      9  O5'       63.7950   17.7810    1.4480 O.3   1200  GDP1200    -0.3111
     10  C5'       63.8600   16.6140    0.6270 C.3   1200  GDP1200     0.1813
     11  C4'       62.6710   16.5770   -0.3140 C.3   1200  GDP1200     0.1799
     12  O4'       61.4870   16.3770    0.4500 O.3   1200  GDP1200    -0.3326
     13  C3'       62.4910   17.8850   -1.0720 C.3   1200  GDP1200     0.2158
     14  O3'       62.9770   17.7490   -2.4090 O.3   1200  GDP1200    -0.2175
     15  C2'       61.0060   18.1320   -1.0990 C.3   1200  GDP1200     0.2310
     16  O2'       60.5030   17.5480   -2.3060 O.3   1200  GDP1200    -0.2158
     17  C1'       60.4570   17.2830    0.0230 C.3   1200  GDP1200     0.2293
     18  N9        59.9470   17.9830    1.2320 N.pl3 1200  GDP1200    -0.2354
     19  C8        60.6470   18.5940    2.2120 C.3   1200  GDP1200     0.2246
     20  N7        59.8150   19.0460    3.1950 N.2   1200  GDP1200    -0.2322
     21  C5        58.5570   18.7020    2.8410 C.2   1200  GDP1200     0.2182
     22  C6        57.1960   18.8500    3.3950 C.1   1200  GDP1200     0.2372
     23  O6        57.0210   19.4430    4.4800 O.2   1200  GDP1200    -0.2069
     24  N1        56.1620   18.3270    2.7120 N.2   1200  GDP1200    -0.2485
     25  C2        56.3160   17.6820    1.5300 C.1   1200  GDP1200     0.2531
     26  N2        55.2390   17.1850    0.8740 N.pl3 1200  GDP1200    -0.0226
     27  N3        57.5290   17.5140    0.9680 N.2   1200  GDP1200    -0.3074
     28  C4        58.6570   17.9880    1.5600 C.2   1200  GDP1200     0.2300
@<TRIPOS>BOND
     1    14    13    1
     2    16    15    1
     3    15    13    1
     4    15    17    1
     5    13    11    1
     6    11    12    1
     7    11    10    1
     8    17    12    1
     9    17    18    1
    10     8     6    2
    11    10     9    1
    12    26    25    1
    13    27    25    2
    14    27    28    2
    15    18    28    1
    16    18    19    1
    17     9     6    1
    18    25    24    2
    19    28    21    1
    20     6     7    1
    21     6     5    1
    22    19    20    1
    23    24    22    2
    24     5     1    1
    25    21    20    2
    26    21    22    1
    27     4     1    2
    28     3     1    1
    29    22    23    2
    30     1     2    1
