@<TRIPOS>MOLECULE
1z0d_GDP_A_1.pdb
 28 30 0 0 0
SMALL
GASTEIGER

@<TRIPOS>ATOM
      1  PB         4.9690   15.2000   52.6700 P.3   700  GDP700      0.5373
      2  O1B        6.1440   16.1350   52.8040 O.3   700  GDP700     -0.1143
      3  O2B        3.6800   15.9610   52.8720 O.3   700  GDP700     -0.1143
      4  O3B        4.9710   14.5830   51.2870 O.2   700  GDP700     -0.2221
      5  O3A        5.1540   14.0680   53.7910 O.3   700  GDP700     -0.2261
      6  PA         3.9750   13.3530   54.6170 P.3   700  GDP700      0.2231
      7  O1A        3.4050   14.2510   55.6900 O.3   700  GDP700     -0.4370
      8  O2A        2.8940   12.8710   53.6790 O.2   700  GDP700     -0.5169
      9  O5'        4.7770   12.1410   55.2860 O.3   700  GDP700     -0.3111
     10  C5'        5.4110   11.1410   54.4890 C.3   700  GDP700      0.1813
     11  C4'        5.6780    9.9160   55.3520 C.3   700  GDP700      0.1799
     12  O4'        6.6090   10.2730   56.3700 O.3   700  GDP700     -0.3326
     13  C3'        4.4240    9.4060   56.0520 C.3   700  GDP700      0.2158
     14  O3'        4.4620    7.9760   56.0380 O.3   700  GDP700     -0.2175
     15  C2'        4.5420    9.9190   57.4750 C.3   700  GDP700      0.2310
     16  O2'        3.9320    9.0510   58.4470 O.3   700  GDP700     -0.2158
     17  C1'        6.0510    9.9810   57.6540 C.3   700  GDP700      0.2293
     18  N9         6.4480   11.0360   58.6050 N.pl3 700  GDP700     -0.2354
     19  C8         6.2200   12.3610   58.4950 C.3   700  GDP700      0.2246
     20  N7         6.7280   13.0310   59.5580 N.2   700  GDP700     -0.2322
     21  C5         7.3020   12.1110   60.3590 C.2   700  GDP700      0.2182
     22  C6         8.0340   12.1150   61.6420 C.1   700  GDP700      0.2372
     23  O6         8.2380   13.1800   62.2440 O.2   700  GDP700     -0.2069
     24  N1         8.4660   10.9450   62.1360 N.2   700  GDP700     -0.2485
     25  C2         8.2620    9.7720   61.5080 C.1   700  GDP700      0.2531
     26  N2         8.7230    8.6330   62.0750 N.pl3 700  GDP700     -0.0226
     27  N3         7.6060    9.6930   60.3240 N.2   700  GDP700     -0.3074
     28  C4         7.1190   10.8040   59.7230 C.2   700  GDP700      0.2300
@<TRIPOS>BOND
     1     4     1    2
     2     1     2    1
     3     1     3    1
     4     1     5    1
     5     8     6    2
     6     5     6    1
     7    10     9    1
     8    10    11    1
     9     6     9    1
    10     6     7    1
    11    11    13    1
    12    11    12    1
    13    14    13    1
    14    13    15    1
    15    12    17    1
    16    15    17    1
    17    15    16    1
    18    17    18    1
    19    19    18    1
    20    19    20    1
    21    18    28    1
    22    20    21    2
    23    28    27    2
    24    28    21    1
    25    27    25    2
    26    21    22    1
    27    25    26    1
    28    25    24    2
    29    22    24    2
    30    22    23    2
