@<TRIPOS>MOLECULE
1z0f_GDP_A_1.pdb
 28 30 0 0 0
SMALL
GASTEIGER

@<TRIPOS>ATOM
      1  PB         7.2390    8.4030    2.2030 P.3   200  GDP200      0.5373
      2  O1B        6.8160    6.9700    2.4070 O.3   200  GDP200     -0.1143
      3  O2B        8.7210    8.5270    2.4710 O.3   200  GDP200     -0.1143
      4  O3B        6.9400    8.7940    0.7660 O.2   200  GDP200     -0.2221
      5  O3A        6.3790    9.3340    3.1950 O.3   200  GDP200     -0.2261
      6  PA         6.9410   10.5310    4.1240 P.3   200  GDP200      0.2231
      7  O1A        7.8690   10.0070    5.1870 O.3   200  GDP200     -0.4370
      8  O2A        7.5990   11.6050    3.2990 O.2   200  GDP200     -0.5169
      9  O5'        5.5910   11.1000    4.7910 O.3   200  GDP200     -0.3111
     10  C5'        4.4860   11.5250    3.9850 C.3   200  GDP200      0.1813
     11  C4'        3.5810   12.4400    4.8040 C.3   200  GDP200      0.1799
     12  O4'        3.0340   11.7150    5.9160 O.3   200  GDP200     -0.3326
     13  C3'        4.3300   13.6290    5.3880 C.3   200  GDP200      0.2158
     14  O3'        3.5060   14.7920    5.2600 O.3   200  GDP200     -0.2175
     15  C2'        4.5210   13.2730    6.8540 C.3   200  GDP200      0.2310
     16  O2'        4.5380   14.4310    7.6940 O.3   200  GDP200     -0.2158
     17  C1'        3.3360   12.3660    7.1540 C.3   200  GDP200      0.2293
     18  N9         3.6170   11.3290    8.1800 N.pl3 200  GDP200     -0.2354
     19  C8         4.6330   10.4420    8.1590 C.3   200  GDP200      0.2246
     20  N7         4.5940    9.6210    9.2370 N.2   200  GDP200     -0.2322
     21  C5         3.5200    9.9750    9.9690 C.2   200  GDP200      0.2182
     22  C6         2.8930    9.5220   11.2320 C.1   200  GDP200      0.2372
     23  O6         3.3720    8.5750   11.8800 O.2   200  GDP200     -0.2069
     24  N1         1.7880   10.1490   11.6560 N.2   200  GDP200     -0.2485
     25  C2         1.2340   11.1760   10.9760 C.1   200  GDP200      0.2531
     26  N2         0.1190   11.7530   11.4840 N.pl3 200  GDP200     -0.0226
     27  N3         1.7530   11.6490    9.8090 N.2   200  GDP200     -0.3074
     28  C4         2.8760   11.1000    9.2690 C.2   200  GDP200      0.2300
@<TRIPOS>BOND
     1     4     1    2
     2     1     2    1
     3     1     3    1
     4     1     5    1
     5     5     6    1
     6     8     6    2
     7    10     9    1
     8    10    11    1
     9     6     9    1
    10     6     7    1
    11    11    13    1
    12    11    12    1
    13    14    13    1
    14    13    15    1
    15    12    17    1
    16    15    17    1
    17    15    16    1
    18    17    18    1
    19    19    18    1
    20    19    20    1
    21    18    28    1
    22    20    21    2
    23    28    27    2
    24    28    21    1
    25    27    25    2
    26    21    22    1
    27    25    26    1
    28    25    24    2
    29    22    24    2
    30    22    23    2
