@<TRIPOS>MOLECULE
1z0i_GDP_A_1.pdb
 28 30 0 0 0
SMALL
GASTEIGER

@<TRIPOS>ATOM
      1  PB        12.3350   27.4870    7.1310 P.3   200  GDP200      0.5373
      2  O1B       12.8400   26.0650    7.2970 O.3   200  GDP200     -0.1143
      3  O2B       11.2950   27.7200    8.1850 O.3   200  GDP200     -0.1143
      4  O3B       13.4760   28.4700    7.2820 O.2   200  GDP200     -0.2221
      5  O3A       11.6800   27.6030    5.6420 O.3   200  GDP200     -0.2261
      6  PA        12.4170   28.1950    4.3280 P.3   200  GDP200      0.2231
      7  O1A       12.5260   29.7220    4.3530 O.3   200  GDP200     -0.4370
      8  O2A       13.7630   27.6320    4.0420 O.2   200  GDP200     -0.5169
      9  O5'       11.4090   27.8210    3.1440 O.3   200  GDP200     -0.3111
     10  C5'       11.0840   26.4930    2.7650 C.3   200  GDP200      0.1813
     11  C4'       10.5770   26.4970    1.3120 C.3   200  GDP200      0.1799
     12  O4'        9.2870   27.1060    1.1610 O.3   200  GDP200     -0.3326
     13  C3'       11.4960   27.2440    0.3710 C.3   200  GDP200      0.2158
     14  O3'       11.3710   26.5950   -0.8800 O.3   200  GDP200     -0.2175
     15  C2'       10.8610   28.5970    0.1960 C.3   200  GDP200      0.2310
     16  O2'       11.2740   29.2120   -1.0400 O.3   200  GDP200     -0.2158
     17  C1'        9.3850   28.2250    0.2580 C.3   200  GDP200      0.2293
     18  N9         8.5410   29.3530    0.7180 N.pl3 200  GDP200     -0.2354
     19  C8         8.8020   30.1670    1.7550 C.3   200  GDP200      0.2246
     20  N7         7.8350   31.1070    1.9040 N.2   200  GDP200     -0.2322
     21  C5         6.9130   30.8830    0.9600 C.2   200  GDP200      0.2182
     22  C6         5.6380   31.5200    0.5760 C.1   200  GDP200      0.2372
     23  O6         5.1970   32.5090    1.2040 O.2   200  GDP200     -0.2069
     24  N1         4.9760   30.9910   -0.4640 N.2   200  GDP200     -0.2485
     25  C2         5.4420   29.9260   -1.1730 C.1   200  GDP200      0.2531
     26  N2         4.6910   29.4910   -2.2160 N.pl3 200  GDP200     -0.0226
     27  N3         6.6170   29.2890   -0.8810 N.2   200  GDP200     -0.3074
     28  C4         7.3750   29.7220    0.1690 C.2   200  GDP200      0.2300
@<TRIPOS>BOND
     1    26    25    1
     2    25    27    2
     3    25    24    2
     4    16    15    1
     5    27    28    2
     6    14    13    1
     7    24    22    2
     8    28    18    1
     9    28    21    1
    10    15    17    1
    11    15    13    1
    12    17    18    1
    13    17    12    1
    14    13    11    1
    15    22    21    1
    16    22    23    2
    17    18    19    1
    18    21    20    2
    19    12    11    1
    20    11    10    1
    21    19    20    1
    22    10     9    1
    23     9     6    1
    24     8     6    2
    25     6     7    1
    26     6     5    1
    27     5     1    1
    28     1     4    2
    29     1     2    1
    30     1     3    1
