@<TRIPOS>MOLECULE
1z0j_GTP_A_1.pdb
 32 34 0 0 0
SMALL
GASTEIGER

@<TRIPOS>ATOM
      1  PG        24.7410   -8.0270   14.1550 P.3   500  GTP500      0.5373
      2  O1G       25.3850   -9.1840   14.9180 O.3   500  GTP500     -0.1143
      3  O2G       24.5930   -8.3320   12.6930 O.2   500  GTP500     -0.2221
      4  O3G       25.4070   -6.7080   14.4430 O.3   500  GTP500     -0.1143
      5  O3B       23.2590   -7.9480   14.8380 O.3   500  GTP500     -0.2258
      6  PB        21.9690   -7.1230   14.2880 P.3   500  GTP500      0.2277
      7  O1B       21.9510   -5.7950   14.9570 O.3   500  GTP500     -0.4368
      8  O2B       21.9300   -7.1050   12.7710 O.2   500  GTP500     -0.5168
      9  O3A       20.7130   -7.9310   14.9100 O.3   500  GTP500     -0.2700
     10  PA        19.8270   -9.0370   14.1450 P.3   500  GTP500      0.2189
     11  O1A       18.9060   -8.3910   13.1330 O.2   500  GTP500     -0.5170
     12  O2A       20.6980  -10.1630   13.6540 O.3   500  GTP500     -0.4371
     13  O5'       18.8830   -9.5210   15.3440 O.3   500  GTP500     -0.3112
     14  C5'       19.3890  -10.1970   16.4880 C.3   500  GTP500      0.1813
     15  C4'       18.2990  -11.1010   17.0670 C.3   500  GTP500      0.1799
     16  O4'       17.2290  -10.3100   17.5450 O.3   500  GTP500     -0.3326
     17  C3'       17.7200  -12.0620   16.0430 C.3   500  GTP500      0.2158
     18  O3'       17.4110  -13.2890   16.6800 O.3   500  GTP500     -0.2175
     19  C2'       16.4230  -11.4040   15.6210 C.3   500  GTP500      0.2310
     20  O2'       15.4370  -12.3130   15.1970 O.3   500  GTP500     -0.2158
     21  C1'       16.0310  -10.6590   16.8920 C.3   500  GTP500      0.2293
     22  N9        15.2830   -9.4260   16.6560 N.pl3 500  GTP500     -0.2354
     23  C8        15.5740   -8.4200   15.7660 C.3   500  GTP500      0.2246
     24  N7        14.6490   -7.4490   15.8680 N.2   500  GTP500     -0.2322
     25  C5        13.7490   -7.8270   16.8130 C.2   500  GTP500      0.2182
     26  C6        12.5990   -7.2210   17.3240 C.1   500  GTP500      0.2372
     27  O6        12.1610   -6.1340   16.9350 O.2   500  GTP500     -0.2069
     28  N1        11.9080   -7.8910   18.3130 N.2   500  GTP500     -0.2485
     29  C2        12.3270   -9.1170   18.7970 C.1   500  GTP500      0.2531
     30  N2        11.6210   -9.6840   19.7640 N.pl3 500  GTP500     -0.0226
     31  N3        13.4630   -9.7200   18.2980 N.2   500  GTP500     -0.3074
     32  C4        14.1480   -9.0640   17.3180 C.2   500  GTP500      0.2300
@<TRIPOS>BOND
     1     3     1    2
     2     8     6    2
     3    11    10    2
     4    12    10    1
     5    10     9    1
     6    10    13    1
     7     1     4    1
     8     1     5    1
     9     1     2    1
    10     6     5    1
    11     6     9    1
    12     6     7    1
    13    20    19    1
    14    13    14    1
    15    19    17    1
    16    19    21    1
    17    23    24    1
    18    23    22    1
    19    24    25    2
    20    17    18    1
    21    17    15    1
    22    14    15    1
    23    22    21    1
    24    22    32    1
    25    25    32    1
    26    25    26    1
    27    21    16    1
    28    27    26    2
    29    15    16    1
    30    32    31    2
    31    26    28    2
    32    31    29    2
    33    28    29    2
    34    29    30    1
