@<TRIPOS>MOLECULE
1z0k_GTP_A_1.pdb
 32 34 0 0 0
SMALL
GASTEIGER

@<TRIPOS>ATOM
      1  PG        16.8760   68.1590   20.1660 P.3   1200  GTP1200     0.5373
      2  O1G       17.9760   68.5930   21.1150 O.3   1200  GTP1200    -0.1143
      3  O2G       15.7500   67.5570   20.9470 O.3   1200  GTP1200    -0.1143
      4  O3G       17.4330   67.1220   19.2200 O.2   1200  GTP1200    -0.2221
      5  O3B       16.2970   69.5060   19.4970 O.3   1200  GTP1200    -0.2258
      6  PB        15.1360   69.5440   18.3960 P.3   1200  GTP1200     0.2277
      7  O1B       15.7570   69.3150   17.0420 O.2   1200  GTP1200    -0.5168
      8  O2B       14.0040   68.5940   18.7030 O.3   1200  GTP1200    -0.4368
      9  O3A       14.6280   71.0590   18.4290 O.3   1200  GTP1200    -0.2700
     10  PA        13.2520   71.5650   19.0670 P.3   1200  GTP1200     0.2189
     11  O1A       12.0600   71.0280   18.3200 O.2   1200  GTP1200    -0.5170
     12  O2A       13.1930   71.2640   20.5400 O.3   1200  GTP1200    -0.4371
     13  O5'       13.3460   73.1310   18.7370 O.3   1200  GTP1200    -0.3112
     14  C5'       14.4720   73.8800   19.1690 C.3   1200  GTP1200     0.1813
     15  C4'       14.0830   75.3470   19.2470 C.3   1200  GTP1200     0.1799
     16  O4'       13.7840   75.8100   17.9450 O.3   1200  GTP1200    -0.3326
     17  C3'       12.8450   75.5910   20.0940 C.3   1200  GTP1200     0.2158
     18  O3'       13.0650   76.7470   20.8710 O.3   1200  GTP1200    -0.2175
     19  C2'       11.7410   75.8230   19.0820 C.3   1200  GTP1200     0.2310
     20  O2'       10.7780   76.7350   19.5330 O.3   1200  GTP1200    -0.2158
     21  C1'       12.4970   76.3860   17.8960 C.3   1200  GTP1200     0.2293
     22  N9        11.9340   76.0190   16.5850 N.pl3 1200  GTP1200    -0.2354
     23  C8        11.7420   74.7530   16.0820 C.3   1200  GTP1200     0.2246
     24  N7        11.2270   74.8450   14.8340 N.2   1200  GTP1200    -0.2322
     25  C5        11.1020   76.1590   14.5380 C.2   1200  GTP1200     0.2182
     26  C6        10.6500   76.8210   13.4050 C.1   1200  GTP1200     0.2372
     27  O6        10.2630   76.1710   12.4260 O.2   1200  GTP1200    -0.2069
     28  N1        10.6350   78.2120   13.3980 N.2   1200  GTP1200    -0.2485
     29  C2        11.0850   78.9320   14.4950 C.1   1200  GTP1200     0.2531
     30  N2        11.0730   80.2610   14.4780 N.pl3 1200  GTP1200    -0.0226
     31  N3        11.5440   78.2750   15.6090 N.2   1200  GTP1200    -0.3074
     32  C4        11.5480   76.9110   15.6290 C.2   1200  GTP1200     0.2300
@<TRIPOS>BOND
     1    27    26    2
     2    28    26    2
     3    28    29    2
     4    26    25    1
     5    30    29    1
     6    29    31    2
     7    25    24    2
     8    25    32    1
     9    24    23    1
    10    31    32    2
    11    32    22    1
    12    23    22    1
    13    22    21    1
    14     7     6    2
    15    21    16    1
    16    21    19    1
    17    16    15    1
    18    11    10    2
    19     6     9    1
    20     6     8    1
    21     6     5    1
    22     9    10    1
    23    13    10    1
    24    13    14    1
    25    10    12    1
    26    19    20    1
    27    19    17    1
    28    14    15    1
    29     4     1    2
    30    15    17    1
    31     5     1    1
    32    17    18    1
    33     1     3    1
    34     1     2    1
