@<TRIPOS>MOLECULE
1z0s_ATP_A_1.pdb
 31 33 0 0 0
SMALL
GASTEIGER

@<TRIPOS>ATOM
      1  PG       -14.2550  -16.6310  -14.3880 P.3   737  ATP737      0.5373
      2  O1G      -15.2820  -17.1090  -13.4250 O.3   737  ATP737     -0.1143
      3  O2G      -14.8370  -15.4650  -15.2280 O.3   737  ATP737     -0.1143
      4  O3G      -13.7200  -17.7520  -15.2920 O.2   737  ATP737     -0.2221
      5  PB       -12.7530  -14.5980  -13.1770 P.3   737  ATP737      0.2277
      6  O1B      -13.9400  -13.7250  -13.1760 O.2   737  ATP737     -0.5168
      7  O2B      -12.0260  -14.5810  -11.8090 O.3   737  ATP737     -0.4368
      8  O3B      -12.9970  -16.1210  -13.5440 O.3   737  ATP737     -0.2258
      9  PA       -12.0410  -13.5610  -15.7360 P.3   737  ATP737      0.2189
     10  O1A      -11.5680  -14.5650  -16.6900 O.2   737  ATP737     -0.5170
     11  O2A      -13.5190  -13.1790  -15.8790 O.3   737  ATP737     -0.4371
     12  O3A      -11.6830  -14.1330  -14.2890 O.3   737  ATP737     -0.2700
     13  O5'      -11.1210  -12.2520  -15.8530 O.3   737  ATP737     -0.3112
     14  C5'       -9.7260  -12.3890  -16.0050 C.3   737  ATP737      0.1813
     15  C4'       -9.1140  -11.0810  -15.5280 C.3   737  ATP737      0.1821
     16  O4'       -9.2650  -10.9400  -14.1300 O.3   737  ATP737     -0.3135
     17  C3'       -7.6200  -10.9550  -15.7680 C.3   737  ATP737      0.2184
     18  O3'       -7.3450  -10.4430  -17.0540 O.3   737  ATP737     -0.2174
     19  C2'       -7.1980   -9.9800  -14.6820 C.3   737  ATP737      0.2570
     20  O2'       -6.9430   -8.7050  -15.2380 O.3   737  ATP737     -0.2130
     21  C1'       -8.3850   -9.9060  -13.7220 C.3   737  ATP737      0.3186
     22  N9        -7.9580   -9.9910  -12.3100 N.pl3 737  ATP737     -0.1439
     23  C8        -8.2020   -9.0410  -11.3420 C.3   737  ATP737      0.3377
     24  N7        -7.6370   -9.4330  -10.1840 N.2   737  ATP737     -0.2095
     25  C5        -7.0270  -10.6230  -10.3820 C.2   737  ATP737      0.2526
     26  C6        -6.3160  -11.4940   -9.5520 C.2   737  ATP737      0.4393
     27  N6        -6.1200  -11.2760   -8.2450 N.pl3 737  ATP737      0.2180
     28  N1        -5.8240  -12.6680  -10.0850 N.2   737  ATP737      0.0021
     29  C2        -6.0080  -12.9910  -11.4050 C.3   737  ATP737      0.5254
     30  N3        -6.7250  -12.1380  -12.2190 N.2   737  ATP737     -0.0055
     31  C4        -7.2290  -10.9810  -11.7220 C.2   737  ATP737      0.3518
@<TRIPOS>BOND
     1    18    17    1
     2    10     9    2
     3    14    13    1
     4    14    15    1
     5    11     9    1
     6    13     9    1
     7    17    15    1
     8    17    19    1
     9     9    12    1
    10    15    16    1
    11     4     1    2
    12    20    19    1
    13     3     1    1
    14    19    21    1
    15     1     8    1
    16     1     2    1
    17    12     5    1
    18    16    21    1
    19    21    22    1
    20     8     5    1
    21     5     6    2
    22     5     7    1
    23    22    31    1
    24    22    23    1
    25    30    31    2
    26    30    29    1
    27    31    25    1
    28    29    28    1
    29    23    24    1
    30    25    24    2
    31    25    26    1
    32    28    26    2
    33    26    27    1
