@<TRIPOS>MOLECULE
1z0u_NAP_A_1.pdb
 48 52 0 0 0
SMALL
GASTEIGER

@<TRIPOS>ATOM
      1  PA        -8.8230   12.0400   11.1290 P.3   3076  NAP3076     0.2189
      2  O1A      -10.1090   11.3620   10.7210 O.3   3076  NAP3076    -0.4371
      3  O2A       -8.6920   13.5040   10.6480 O.2   3076  NAP3076    -0.5170
      4  O5B       -8.6960   12.0240   12.7420 O.3   3076  NAP3076    -0.3112
      5  C5B       -8.9950   10.8980   13.5390 C.3   3076  NAP3076     0.1813
      6  C4B       -9.4920   11.3830   14.8930 C.3   3076  NAP3076     0.1820
      7  O4B       -8.4840   12.1210   15.5770 O.3   3076  NAP3076    -0.3136
      8  C3B      -10.6920   12.3190   14.7680 C.3   3076  NAP3076     0.2157
      9  O3B      -11.6820   11.9470   15.7100 O.3   3076  NAP3076    -0.2175
     10  C2B      -10.1120   13.6970   15.0840 C.3   3076  NAP3076     0.2314
     11  O2B      -11.0340   14.6260   15.6050 O.3   3076  NAP3076    -0.2630
     12  C1B       -9.0910   13.2870   16.1240 C.3   3076  NAP3076     0.3158
     13  N9A       -8.0350   14.2690   16.4320 N.pl3 3076  NAP3076    -0.1439
     14  C8A       -7.2770   14.9740   15.5500 C.3   3076  NAP3076     0.3377
     15  N7A       -6.4000   15.7190   16.2690 N.2   3076  NAP3076    -0.2095
     16  C5A       -6.5830   15.4870   17.5920 C.2   3076  NAP3076     0.2526
     17  C6A       -5.9570   15.9560   18.7490 C.2   3076  NAP3076     0.4393
     18  N6A       -4.7140   16.4190   18.6740 N.pl3 3076  NAP3076     0.2180
     19  N1A       -6.4000   15.5090   19.9860 N.2   3076  NAP3076     0.0021
     20  C2A       -7.4360   14.5930   20.0850 C.3   3076  NAP3076     0.5254
     21  N3A       -8.0280   14.1300   18.9420 N.2   3076  NAP3076    -0.0055
     22  C4A       -7.6160   14.5650   17.7110 C.2   3076  NAP3076     0.3518
     23  O3        -7.7320   11.0130   10.5490 O.3   3076  NAP3076    -0.2703
     24  PN        -6.3880   11.4710    9.8130 P.3   3076  NAP3076     0.2189
     25  O1N       -6.7160   12.3670    8.6620 O.2   3076  NAP3076    -0.5170
     26  O2N       -5.6210   10.2230    9.6160 O.3   3076  NAP3076    -0.4371
     27  O5D       -6.0630   12.3260   11.1420 O.3   3076  NAP3076    -0.3112
     28  C5D       -4.9480   13.0950   11.4580 C.3   3076  NAP3076     0.1813
     29  C4D       -4.7050   12.8970   12.9480 C.3   3076  NAP3076     0.1799
     30  O4D       -5.3560   11.7420   13.4750 O.3   3076  NAP3076    -0.3327
     31  C3D       -3.2330   12.6980   13.2070 C.3   3076  NAP3076     0.2158
     32  O3D       -2.6680   13.9740   13.3890 O.3   3076  NAP3076    -0.2175
     33  C2D       -3.2010   11.7850   14.4180 C.3   3076  NAP3076     0.2309
     34  O2D       -3.0330   12.5360   15.5990 O.3   3076  NAP3076    -0.2158
     35  C1D       -4.5500   11.0870   14.4350 C.3   3076  NAP3076     0.2263
     36  N1N       -4.3890    9.6400   14.1480 N.pl3 3076  NAP3076    -0.2787
     37  C2N       -4.7170    8.7300   15.1030 C.3   3076  NAP3076     0.1244
     38  C3N       -4.5780    7.3580   14.8540 C.2   3076  NAP3076     0.0544
     39  C7N       -4.7340    6.4100   15.9960 C.2   3076  NAP3076     0.2818
     40  O7N       -4.4820    5.0030   15.8770 O.2   3076  NAP3076    -0.2670
     41  N7N       -5.0880    6.9890   17.1340 N.am  3076  NAP3076    -0.0839
     42  C4N       -4.0720    6.9290   13.6400 C.2   3076  NAP3076     0.0033
     43  C5N       -3.7390    7.8760   12.6720 C.2   3076  NAP3076     0.0157
     44  C6N       -3.9020    9.2310   12.9300 C.2   3076  NAP3076     0.0633
     45  P2B      -12.3880   15.0950   14.8160 P.3   3076  NAP3076     0.5328
     46  O1X      -12.8610   16.2320   15.6570 O.3   3076  NAP3076    -0.1145
     47  O2X      -12.0070   15.6050   13.4230 O.2   3076  NAP3076    -0.2224
     48  O3X      -13.3690   13.9120   14.6390 O.3   3076  NAP3076    -0.1145
@<TRIPOS>BOND
     1    25    24    2
     2    26    24    1
     3    24    23    1
     4    24    27    1
     5    23     1    1
     6     3     1    2
     7     2     1    1
     8     1     4    1
     9    27    28    1
    10    28    29    1
    11    43    44    2
    12    43    42    1
    13     4     5    1
    14    44    36    1
    15    29    31    1
    16    29    30    1
    17    31    32    1
    18    31    33    1
    19    47    45    2
    20    30    35    1
    21     5     6    1
    22    42    38    2
    23    36    35    1
    24    36    37    1
    25    33    35    1
    26    33    34    1
    27    48    45    1
    28     8     6    1
    29     8    10    1
    30     8     9    1
    31    45    11    1
    32    45    46    1
    33    38    37    1
    34    38    39    1
    35     6     7    1
    36    10    11    1
    37    10    12    1
    38    14    15    1
    39    14    13    1
    40     7    12    1
    41    40    39    2
    42    39    41   am
    43    12    13    1
    44    15    16    2
    45    13    22    1
    46    16    22    1
    47    16    17    1
    48    22    21    2
    49    18    17    1
    50    17    19    2
    51    21    20    1
    52    19    20    1
