@<TRIPOS>MOLECULE
1z0z_NAD_A_1.pdb
 44 48 0 0 0
SMALL
GASTEIGER

@<TRIPOS>ATOM
      1  PA       104.9120   25.4850   79.7390 P.3   3075  NAD3075     0.2189
      2  O1A      106.3400   25.8530   79.5170 O.3   3075  NAD3075    -0.4371
      3  O2A      104.3970   24.2960   78.8360 O.2   3075  NAD3075    -0.5170
      4  O5B      104.7980   25.2330   81.3470 O.3   3075  NAD3075    -0.3112
      5  C5B      103.5830   24.9130   81.9880 C.3   3075  NAD3075     0.1813
      6  C4B      103.7040   23.6290   82.8020 C.3   3075  NAD3075     0.1821
      7  O4B      102.4040   23.0690   82.8750 O.3   3075  NAD3075    -0.3135
      8  C3B      104.6200   22.5330   82.2290 C.3   3075  NAD3075     0.2184
      9  O3B      105.5410   22.1330   83.2230 O.3   3075  NAD3075    -0.2174
     10  C2B      103.6940   21.3880   81.7950 C.3   3075  NAD3075     0.2570
     11  O2B      104.1540   20.0790   82.0820 O.3   3075  NAD3075    -0.2130
     12  C1B      102.4520   21.6710   82.6150 C.3   3075  NAD3075     0.3186
     13  N9A      101.1810   21.3610   81.9740 N.pl3 3075  NAD3075    -0.1439
     14  C8A      100.7600   21.6270   80.6980 C.3   3075  NAD3075     0.3377
     15  N7A       99.4850   21.1970   80.5940 N.2   3075  NAD3075    -0.2095
     16  C5A       99.1070   20.6900   81.7870 C.2   3075  NAD3075     0.2526
     17  C6A       97.9230   20.1250   82.2280 C.2   3075  NAD3075     0.4393
     18  N6A       96.9180   20.0310   81.3620 N.pl3 3075  NAD3075     0.2180
     19  N1A       97.8330   19.6700   83.5480 N.2   3075  NAD3075     0.0021
     20  C2A       98.9170   19.7880   84.4210 C.3   3075  NAD3075     0.5254
     21  N3A      100.0980   20.3610   83.9820 N.2   3075  NAD3075    -0.0055
     22  C4A      100.1690   20.7940   82.6810 C.2   3075  NAD3075     0.3518
     23  O3       104.0770   26.8640   79.5850 O.3   3075  NAD3075    -0.2703
     24  PN       103.3050   27.2730   78.2150 P.3   3075  NAD3075     0.2189
     25  O1N      103.8370   26.3760   77.1200 O.2   3075  NAD3075    -0.5170
     26  O2N      103.2480   28.7970   78.1380 O.3   3075  NAD3075    -0.4371
     27  O5D      101.7730   26.7730   78.4760 O.3   3075  NAD3075    -0.3112
     28  C5D      101.3610   25.4170   78.4920 C.3   3075  NAD3075     0.1813
     29  C4D      100.3380   25.3130   79.6060 C.3   3075  NAD3075     0.1799
     30  O4D      100.8670   25.8830   80.7930 O.3   3075  NAD3075    -0.3327
     31  C3D       99.0700   26.0780   79.2710 C.3   3075  NAD3075     0.2158
     32  O3D       98.1090   25.1510   78.8200 O.3   3075  NAD3075    -0.2175
     33  C2D       98.6830   26.7920   80.5620 C.3   3075  NAD3075     0.2309
     34  O2D       97.5570   26.1970   81.1730 O.3   3075  NAD3075    -0.2158
     35  C1D       99.8870   26.6290   81.4900 C.3   3075  NAD3075     0.2263
     36  N1N      100.4620   27.9110   81.9680 N.pl3 3075  NAD3075    -0.2787
     37  C2N      100.5330   28.0780   83.3270 C.3   3075  NAD3075     0.1244
     38  C3N      101.0450   29.2520   83.8920 C.2   3075  NAD3075     0.0544
     39  C7N      101.0860   29.4110   85.4080 C.2   3075  NAD3075     0.2818
     40  O7N      101.6330   30.5980   85.9720 O.2   3075  NAD3075    -0.2670
     41  N7N      100.6380   28.4470   86.2250 N.am  3075  NAD3075    -0.0839
     42  C4N      101.5220   30.2600   83.0320 C.2   3075  NAD3075     0.0033
     43  C5N      101.4620   30.0640   81.6520 C.2   3075  NAD3075     0.0157
     44  C6N      100.9260   28.8850   81.1230 C.2   3075  NAD3075     0.0633
@<TRIPOS>BOND
     1    25    24    2
     2    26    24    1
     3    24    27    1
     4    24    23    1
     5    27    28    1
     6    28    29    1
     7    32    31    1
     8     3     1    2
     9    31    29    1
    10    31    33    1
    11     2     1    1
    12    23     1    1
    13    29    30    1
    14     1     4    1
    15    33    34    1
    16    33    35    1
    17    15    14    1
    18    15    16    2
    19    14    13    1
    20    30    35    1
    21    44    43    2
    22    44    36    1
    23     4     5    1
    24    18    17    1
    25    35    36    1
    26    43    42    1
    27    16    17    1
    28    16    22    1
    29    10    11    1
    30    10     8    1
    31    10    12    1
    32    36    37    1
    33    13    12    1
    34    13    22    1
    35     5     6    1
    36    17    19    2
    37     8     6    1
    38     8     9    1
    39    12     7    1
    40    22    21    2
    41     6     7    1
    42    42    38    2
    43    37    38    1
    44    19    20    1
    45    38    39    1
    46    21    20    1
    47    39    40    2
    48    39    41   am
