@<TRIPOS>MOLECULE
1z10_HEM_A_1.pdb
 43 50 0 0 0
SMALL
GASTEIGER

@<TRIPOS>ATOM
      1  CHA       52.3290   83.6870   60.4450 C.2   500  HEM500      0.0000
      2  CHB       49.5780   81.5680   57.1810 C.2   500  HEM500      0.0000
      3  CHC       52.7710   82.5660   53.7660 C.2   500  HEM500      0.0000
      4  CHD       55.7160   84.0780   57.1890 C.2   500  HEM500      0.0000
      5  C1A       51.2370   83.0480   59.8650 C.2   500  HEM500      0.0000
      6  C2A       50.0870   82.6580   60.5230 C.2   500  HEM500      0.0000
      7  C3A       49.2840   82.0740   59.5900 C.2   500  HEM500      0.0000
      8  C4A       49.9810   82.1320   58.3780 C.2   500  HEM500      0.0000
      9  CMA       47.8240   81.4610   59.8430 C.3   500  HEM500      0.0000
     10  CAA       49.7850   82.8700   61.9980 C.3   500  HEM500      0.0000
     11  CBA       49.0840   84.2270   62.2280 C.3   500  HEM500      0.0000
     12  CGA       48.6650   84.5600   63.6410 C.2   500  HEM500      0.0000
     13  O1A       47.6650   85.2620   63.7700 O.co2 500  HEM500      0.0000
     14  O2A       49.2570   84.1510   64.6660 O.co2 500  HEM500      0.0000
     15  C1B       50.1330   81.6530   55.8820 C.ar  500  HEM500      0.0000
     16  C2B       49.5690   81.1860   54.6500 C.ar  500  HEM500      0.0000
     17  C3B       50.5320   81.4730   53.6730 C.ar  500  HEM500      0.0000
     18  C4B       51.6080   82.1010   54.3660 C.ar  500  HEM500      0.0000
     19  CMB       48.2010   80.5130   54.4640 C.3   500  HEM500      0.0000
     20  CAB       50.5200   81.2240   52.2480 C.3   500  HEM500      0.0000
     21  CBB       49.4730   80.7690   51.3340 C.3   500  HEM500      0.0000
     22  C1C       53.8820   83.1300   54.3690 C.2   500  HEM500      0.0000
     23  C2C       55.0320   83.4850   53.7210 C.2   500  HEM500      0.0000
     24  C3C       55.9160   83.8910   54.6810 C.2   500  HEM500      0.0000
     25  C4C       55.2440   83.7680   55.9030 C.2   500  HEM500      0.0000
     26  CMC       55.2710   83.4360   52.1910 C.3   500  HEM500      0.0000
     27  CAC       57.2120   84.3400   54.5930 C.3   500  HEM500      0.0000
     28  CBC       57.7230   85.5460   54.1190 C.3   500  HEM500      0.0000
     29  C1D       55.0600   84.1620   58.3730 C.ar  500  HEM500      0.0000
     30  C2D       55.6300   84.5360   59.5890 C.ar  500  HEM500      0.0000
     31  C3D       54.6680   84.4130   60.5360 C.ar  500  HEM500      0.0000
     32  C4D       53.5500   83.9580   59.8540 C.ar  500  HEM500      0.0000
     33  CMD       57.1050   84.9980   59.8750 C.3   500  HEM500      0.0000
     34  CAD       54.7540   84.6860   62.0340 C.3   500  HEM500      0.0000
     35  CBD       54.3390   86.1780   62.4330 C.3   500  HEM500      0.0000
     36  CGD       54.4150   86.5330   63.9710 C.2   500  HEM500      0.0000
     37  O1D       54.4360   87.6830   64.3490 O.co2 500  HEM500      0.0000
     38  O2D       54.4830   85.6240   64.8380 O.co2 500  HEM500      0.0000
     39  NA        51.1670   82.7200   58.5420 N.2   500  HEM500      0.0000
     40  NB        51.3560   82.2080   55.6830 N.ar  500  HEM500      0.0000
     41  NC        53.9860   83.3000   55.6900 N.2   500  HEM500      0.0000
     42  ND        53.8090   83.8180   58.5550 N.ar  500  HEM500      0.0000
     43 FE         52.5180   83.1410   57.0900 Fe    500  HEM500      0.0000
@<TRIPOS>BOND
     1    21    20    1
     2    26    23    1
     3    20    17    1
     4    17    18   ar
     5    17    16   ar
     6    23    22    1
     7    23    24    2
     8     3    18    1
     9     3    22    2
    10    28    27    1
    11    18    40   ar
    12    22    41    1
    13    19    16    1
    14    27    24    1
    15    16    15   ar
    16    24    25    1
    17    40    15   ar
    18    40    43    1
    19    41    25    2
    20    41    43    1
    21    15     2    1
    22    25     4    1
    23    43    39    1
    24    43    42    1
    25     2     8    2
    26     4    29    2
    27    29    42   ar
    28    29    30   ar
    29     8    39    1
    30     8     7    1
    31    39     5    2
    32    42    32   ar
    33    30    33    1
    34    30    31   ar
    35     7     9    1
    36     7     6    2
    37    32     1    2
    38    32    31   ar
    39     5     1    1
    40     5     6    1
    41     6    10    1
    42    31    34    1
    43    10    11    1
    44    34    35    1
    45    11    12    1
    46    35    36    1
    47    12    13   ar
    48    12    14   ar
    49    36    37   ar
    50    36    38   ar
