@<TRIPOS>MOLECULE
1z10_COU_A_1.pdb
 11 12 0 0 0
SMALL
GASTEIGER

@<TRIPOS>ATOM
      1  C1        57.1610   78.1330   60.7100 C.ar  501  COU501      0.3459
      2  C2        56.2810   76.9860   60.8180 C.ar  501  COU501      0.0824
      3  C3        55.0140   77.0290   60.3490 C.ar  501  COU501      0.0097
      4  C4        54.4690   78.2240   59.7180 C.ar  501  COU501      0.0349
      5  C5        53.1500   78.3250   59.2020 C.ar  501  COU501      0.0030
      6  C6        52.7030   79.4910   58.6090 C.ar  501  COU501      0.0002
      7  C7        53.5820   80.6170   58.5110 C.ar  501  COU501      0.0031
      8  C8        54.8960   80.5470   59.0200 C.ar  501  COU501      0.0376
      9  C9        55.3280   79.3440   59.6190 C.ar  501  COU501      0.1487
     10  O1        58.3050   78.1680   61.0960 O.2   501  COU501     -0.2445
     11  O2        56.6500   79.2920   60.1100 O.2   501  COU501     -0.4210
@<TRIPOS>BOND
     1     7     6   ar
     2     7     8   ar
     3     6     5   ar
     4     8     9   ar
     5     5     4   ar
     6     9     4   ar
     7     9    11   ar
     8     4     3   ar
     9    11     1   ar
    10     3     2   ar
    11     1     2   ar
    12     1    10    2
