@<TRIPOS>MOLECULE
1z11_8MO_A_1.pdb
 16 18 0 0 0
SMALL
GASTEIGER

@<TRIPOS>ATOM
      1  C1        55.8450   77.5480   60.3330 C.ar  501  8MO501      0.0381
      2  C2        52.4250   79.7000   58.2450 C.ar  501  8MO501      0.1798
      3  C3        52.4480   78.5730   58.9460 C.ar  501  8MO501      0.0438
      4  C4        57.3380   81.5670   59.3660 C.3   501  8MO501      0.2528
      5  C5        58.6620   77.8600   60.7520 C.ar  501  8MO501      0.3460
      6  C6        57.9470   76.7350   61.2890 C.ar  501  8MO501      0.0824
      7  C7        56.6190   76.5920   61.0890 C.ar  501  8MO501      0.0098
      8  C8        54.4670   77.3960   60.1210 C.ar  501  8MO501      0.0064
      9  C9        53.7910   78.3820   59.3640 C.ar  501  8MO501      0.0410
     10  C10       54.5190   79.4900   58.8460 C.ar  501  8MO501      0.1822
     11  C11       55.8760   79.6840   59.0290 C.ar  501  8MO501      0.2073
     12  C12       56.5430   78.6710   59.7950 C.ar  501  8MO501      0.1854
     13  O1        57.9290   78.7920   60.0220 O.2   501  8MO501     -0.4178
     14  O2        53.6760   80.3100   58.1520 O.2   501  8MO501     -0.4472
     15  O3        56.5600   80.7790   58.5010 O.3   501  8MO501     -0.4654
     16  O4        59.8310   78.0590   60.8810 O.2   501  8MO501     -0.2445
@<TRIPOS>BOND
     1    14     2   ar
     2    14    10   ar
     3     2     3   ar
     4    15    11    1
     5    15     4    1
     6    10    11   ar
     7    10     9   ar
     8     3     9   ar
     9    11    12   ar
    10     9     8   ar
    11    12    13   ar
    12    12     1   ar
    13    13     5   ar
    14     8     1   ar
    15     1     7   ar
    16     5    16    2
    17     5     6   ar
    18     7     6   ar
