@<TRIPOS>MOLECULE
1z11_HEM_A_1.pdb
 43 50 0 0 0
SMALL
GASTEIGER

@<TRIPOS>ATOM
      1 FE         52.7210   83.1670   56.9240 Fe    500  HEM500      0.0000
      2  CHA       52.5660   83.5060   60.2810 C.2   500  HEM500      0.0000
      3  CHB       49.7300   81.6870   56.9620 C.2   500  HEM500      0.0000
      4  CHC       53.0260   82.5420   53.6690 C.2   500  HEM500      0.0000
      5  CHD       55.8520   84.3280   57.0280 C.2   500  HEM500      0.0000
      6  NA        51.3480   82.6850   58.3760 N.2   500  HEM500      0.0000
      7  C1A       51.4220   82.9960   59.6990 C.2   500  HEM500      0.0000
      8  C2A       50.2280   82.6850   60.3350 C.2   500  HEM500      0.0000
      9  C3A       49.4040   82.1610   59.3600 C.2   500  HEM500      0.0000
     10  C4A       50.1440   82.1860   58.1820 C.2   500  HEM500      0.0000
     11  CMA       47.9080   81.6310   59.4920 C.3   500  HEM500      0.0000
     12  CAA       49.9140   82.9050   61.8090 C.3   500  HEM500      0.0000
     13  CBA       49.3190   84.2920   62.0520 C.3   500  HEM500      0.0000
     14  CGA       48.8830   84.6100   63.4620 C.2   500  HEM500      0.0000
     15  O1A       47.8390   85.2170   63.6030 O.co2 500  HEM500      0.0000
     16  O2A       49.5050   84.2700   64.4510 O.co2 500  HEM500      0.0000
     17  NB        51.5360   82.2780   55.5100 N.ar  500  HEM500      0.0000
     18  C1B       50.3140   81.7440   55.7070 C.ar  500  HEM500      0.0000
     19  C2B       49.7590   81.2590   54.5120 C.ar  500  HEM500      0.0000
     20  C3B       50.7450   81.5230   53.5210 C.ar  500  HEM500      0.0000
     21  C4B       51.8130   82.1520   54.2200 C.ar  500  HEM500      0.0000
     22  CMB       48.3800   80.5990   54.3890 C.3   500  HEM500      0.0000
     23  CAB       50.7280   81.2400   52.1070 C.3   500  HEM500      0.0000
     24  CBB       49.6510   80.7930   51.1790 C.3   500  HEM500      0.0000
     25  NC        54.2090   83.4010   55.5510 N.2   500  HEM500      0.0000
     26  C1C       54.0880   83.2240   54.2340 C.2   500  HEM500      0.0000
     27  C2C       55.2640   83.5660   53.5680 C.2   500  HEM500      0.0000
     28  C3C       56.1670   83.9800   54.5510 C.2   500  HEM500      0.0000
     29  C4C       55.4620   83.8620   55.7840 C.2   500  HEM500      0.0000
     30  CMC       55.5330   83.5100   52.0290 C.3   500  HEM500      0.0000
     31  CAC       57.4550   84.4200   54.4650 C.3   500  HEM500      0.0000
     32  CBC       57.9490   85.6660   54.0180 C.3   500  HEM500      0.0000
     33  ND        53.9750   83.8710   58.3820 N.ar  500  HEM500      0.0000
     34  C1D       55.2100   84.2730   58.2090 C.ar  500  HEM500      0.0000
     35  C2D       55.7610   84.6570   59.4410 C.ar  500  HEM500      0.0000
     36  C3D       54.8080   84.4760   60.3830 C.ar  500  HEM500      0.0000
     37  C4D       53.7040   83.9800   59.6870 C.ar  500  HEM500      0.0000
     38  CMD       57.2050   85.1960   59.7100 C.3   500  HEM500      0.0000
     39  CAD       54.9160   84.7570   61.9000 C.3   500  HEM500      0.0000
     40  CBD       54.4720   86.2240   62.2550 C.3   500  HEM500      0.0000
     41  CGD       54.5580   86.6190   63.7430 C.2   500  HEM500      0.0000
     42  O1D       54.6820   87.7970   64.0870 O.co2 500  HEM500      0.0000
     43  O2D       54.5170   85.7100   64.6090 O.co2 500  HEM500      0.0000
@<TRIPOS>BOND
     1    24    23    1
     2    30    27    1
     3    23    20    1
     4    20    21   ar
     5    20    19   ar
     6    27    26    1
     7    27    28    2
     8     4    21    1
     9     4    26    2
    10    32    31    1
    11    21    17   ar
    12    26    25    1
    13    22    19    1
    14    31    28    1
    15    19    18   ar
    16    28    29    1
    17    17    18   ar
    18    17     1    1
    19    25    29    2
    20    25     1    1
    21    18     3    1
    22    29     5    1
    23     1     6    1
    24     1    33    1
    25     3    10    2
    26     5    34    2
    27    10     6    1
    28    10     9    1
    29    34    33   ar
    30    34    35   ar
    31     6     7    2
    32    33    37   ar
    33     9    11    1
    34     9     8    2
    35    35    38    1
    36    35    36   ar
    37    37     2    2
    38    37    36   ar
    39     7     2    1
    40     7     8    1
    41     8    12    1
    42    36    39    1
    43    12    13    1
    44    39    40    1
    45    13    14    1
    46    40    41    1
    47    14    15   ar
    48    14    16   ar
    49    41    42   ar
    50    41    43   ar
