@<TRIPOS>MOLECULE
1z1f_STL_A_1.pdb
 17 18 0 0 0
SMALL
GASTEIGER

@<TRIPOS>ATOM
      1  C1        20.3890   31.0400   12.3910 C.2   400  STL400      0.1718
      2  C2        21.3660   31.4950   13.3650 C.3   400  STL400      0.1016
      3  C3        20.8630   32.4890   14.2920 C.3   400  STL400      0.1603
      4  C4        20.0300   33.5030   13.7250 C.3   400  STL400      0.0421
      5  C5        18.9940   33.0320   12.8400 C.3   400  STL400      0.0494
      6  C6        19.1750   31.7780   12.1400 C.2   400  STL400      0.0155
      7  C7        17.7950   33.7750   12.5950 C.2   400  STL400     -0.0219
      8  C8        16.8420   33.9800   13.6050 C.2   400  STL400     -0.0043
      9  C9        15.6590   34.7430   13.3420 C.ar  400  STL400     -0.0001
     10  C10       14.6840   34.2970   12.3590 C.ar  400  STL400      0.0033
     11  C11       13.5060   35.1200   12.1320 C.ar  400  STL400      0.0420
     12  C12       13.3400   36.3420   12.8810 C.ar  400  STL400      0.1957
     13  C13       14.3050   36.8020   13.8690 C.ar  400  STL400      0.0420
     14  C14       15.4640   35.9600   14.0680 C.ar  400  STL400      0.0033
     15  O1        12.2590   37.1430   12.7050 O.3   400  STL400     -0.2866
     16  O2        21.8740   32.9080   15.1320 O.3   400  STL400     -0.2226
     17  O3        20.8160   30.0630   11.5880 O.2   400  STL400     -0.2916
@<TRIPOS>BOND
     1    17     1    1
     2    11    10   ar
     3    11    12   ar
     4     6     1    2
     5     6     5    1
     6    10     9   ar
     7     1     2    1
     8     7     5    1
     9     7     8    2
    10    15    12    1
    11     5     4    1
    12    12    13   ar
    13     9     8    1
    14     9    14   ar
    15     2     3    1
    16     4     3    1
    17    13    14   ar
    18     3    16    1
