@<TRIPOS>MOLECULE
1z1h_HBB_A_1.pdb
 40 42 0 0 0
SMALL
GASTEIGER

@<TRIPOS>ATOM
      1  C1         5.6690   -0.2380   14.3420 C.3   201  HBB201      0.1505
      2  C2         7.0830    0.3740   14.2550 C.3   201  HBB201      0.0542
      3  C3         7.3480    1.0860   12.9450 C.ar  201  HBB201     -0.0199
      4  C7         7.7410    1.0220   10.5540 C.ar  201  HBB201      0.0366
      5  C8         7.6060    0.3700   11.7680 C.ar  201  HBB201     -0.0011
      6  C10        6.3250    3.0840    8.7760 C.3   201  HBB201      0.2066
      7  C11        5.4980    4.2530    9.3600 C.3   201  HBB201      0.0650
      8  C12        4.0010    3.9610    9.4690 C.3   201  HBB201      0.1255
      9  C13        3.5620    3.4240   10.8200 C.1   201  HBB201      0.1271
     10  C16        2.9730    1.4640   12.1810 C.3   201  HBB201      0.2189
     11  C19        0.5440    2.0780   11.8760 C.3   201  HBB201      0.0032
     12  C20        3.9260    0.3660   12.6940 C.1   201  HBB201      0.1491
     13  N26        6.3700   -2.8180   15.8170 N.3   201  HBB201     -0.1529
     14  C27        5.7070   -3.5950   16.8920 C.3   201  HBB201      0.0959
     15  C30        2.9350   -2.8440   16.3270 C.3   201  HBB201      0.0000
     16  C31        2.5690   -5.0460   15.2300 C.3   201  HBB201      0.0000
     17  C35        8.5290   -4.5040   15.7960 C.ar  201  HBB201      0.1222
     18  C4         7.2450    2.4740   12.8640 C.ar  201  HBB201     -0.0011
     19  C5         7.3790    3.1270   11.6580 C.ar  201  HBB201      0.0366
     20  C6         7.6180    2.3990   10.5040 C.ar  201  HBB201      0.1385
     21  O9         7.6630    3.0550    9.2910 O.3   201  HBB201     -0.4754
     22  O14        3.4350    4.1870   11.7850 O.2   201  HBB201     -0.2270
     23  N15        3.3970    2.1030   10.9100 N.2   201  HBB201     -0.1913
     24  C17        1.5280    0.9200   12.0730 C.3   201  HBB201      0.0393
     25  C18        1.1470    0.1320   13.3060 C.3   201  HBB201      0.0032
     26  O21        3.9570   -0.7550   12.1550 O.2   201  HBB201     -0.2251
     27  N22        4.6820    0.6980   13.7470 N.2   201  HBB201     -0.2037
     28  C23        5.3120   -0.5480   15.8090 C.3   201  HBB201      0.1929
     29  O24        5.2570    0.6650   16.5620 O.3   201  HBB201     -0.2195
     30  C25        6.3430   -1.4910   16.4480 C.3   201  HBB201      0.1306
     31  C28        4.7980   -4.5350   16.1180 C.3   201  HBB201      0.0191
     32  C29        3.3010   -4.3200   16.3450 C.3   201  HBB201      0.0014
     33  S32        7.5240   -3.5430   14.8840 S.O2  201  HBB201      0.0634
     34  O33        8.3440   -2.5090   14.2480 O.2   201  HBB201     -0.1528
     35  O34        6.8690   -4.3280   13.8480 O.2   201  HBB201     -0.1528
     36  C36        9.6660   -3.9610   16.4060 C.ar  201  HBB201      0.0199
     37  C37       10.5150   -4.7580   17.1720 C.ar  201  HBB201      0.0014
     38  C38       10.2400   -6.1120   17.3280 C.ar  201  HBB201      0.0001
     39  C39        9.1120   -6.6680   16.7230 C.ar  201  HBB201      0.0014
     40  C40        8.2660   -5.8630   15.9600 C.ar  201  HBB201      0.0199
@<TRIPOS>BOND
     1     6    21    1
     2     6     7    1
     3    21    20    1
     4     7     8    1
     5     8     9    1
     6    20     4   ar
     7    20    19   ar
     8     4     5   ar
     9     9    23    2
    10     9    22    2
    11    23    10    1
    12    19    18   ar
    13     5     3   ar
    14    11    24    1
    15    24    10    1
    16    24    25    1
    17    26    12    2
    18    10    12    1
    19    12    27    2
    20    18     3   ar
    21     3     2    1
    22    27     1    1
    23    35    33    2
    24    34    33    2
    25     2     1    1
    26     1    28    1
    27    33    17    1
    28    33    13    1
    29    16    32    1
    30    17    40   ar
    31    17    36   ar
    32    28    30    1
    33    28    29    1
    34    13    30    1
    35    13    14    1
    36    40    39   ar
    37    31    32    1
    38    31    14    1
    39    15    32    1
    40    36    37   ar
    41    39    38   ar
    42    37    38   ar
