@<TRIPOS>MOLECULE
1z1n_HEC_X_10.pdb
 43 50 0 0 0
SMALL
GASTEIGER

@<TRIPOS>ATOM
      1 FE         28.0940   34.5150   32.0710 Fe    610  HEC610      0.0000
      2  CHA       25.3340   34.2180   34.1510 C.2   610  HEC610      0.0000
      3  CHB       30.0070   35.3100   34.8030 C.2   610  HEC610      0.0000
      4  CHC       30.7850   34.3440   30.2090 C.2   610  HEC610      0.0000
      5  CHD       26.0390   34.0730   29.4190 C.2   610  HEC610      0.0000
      6  NA        27.7490   34.7360   33.8840 N.2   610  HEC610      0.0000
      7  C1A       26.5450   34.6250   34.6080 C.2   610  HEC610      0.0000
      8  C2A       26.7530   34.9110   36.0030 C.2   610  HEC610      0.0000
      9  C3A       28.0330   35.2890   36.1120 C.2   610  HEC610      0.0000
     10  C4A       28.6590   35.1530   34.8470 C.2   610  HEC610      0.0000
     11  CMA       28.7540   35.6890   37.4120 C.3   610  HEC610      0.0000
     12  CAA       25.7580   34.9340   37.2040 C.3   610  HEC610      0.0000
     13  CBA       25.4440   33.4260   37.5580 C.3   610  HEC610      0.0000
     14  CGA       26.7560   32.8180   38.0630 C.2   610  HEC610      0.0000
     15  O1A       27.1610   33.0700   39.2180 O.co2 610  HEC610      0.0000
     16  O2A       27.5020   32.1170   37.2860 O.co2 610  HEC610      0.0000
     17  NB        30.0820   34.7670   32.4990 N.ar  610  HEC610      0.0000
     18  C1B       30.6590   35.0060   33.6580 C.ar  610  HEC610      0.0000
     19  C2B       32.0990   34.9920   33.4410 C.ar  610  HEC610      0.0000
     20  C3B       32.3160   34.7400   32.1260 C.ar  610  HEC610      0.0000
     21  C4B       30.9870   34.5760   31.5160 C.ar  610  HEC610      0.0000
     22  CMB       33.0260   35.4320   34.5760 C.3   610  HEC610      0.0000
     23  CAB       33.5520   34.5900   31.1900 C.3   610  HEC610      0.0000
     24  CBB       34.8520   33.9820   31.7420 C.3   610  HEC610      0.0000
     25  NC        28.3070   34.3640   30.2020 N.2   610  HEC610      0.0000
     26  C1C       29.5730   34.2040   29.5720 C.2   610  HEC610      0.0000
     27  C2C       29.4200   34.0730   28.1550 C.2   610  HEC610      0.0000
     28  C3C       28.1000   33.9590   27.9000 C.2   610  HEC610      0.0000
     29  C4C       27.4240   34.0590   29.1940 C.2   610  HEC610      0.0000
     30  CMC       30.6040   33.8830   27.1560 C.3   610  HEC610      0.0000
     31  CAC       27.3410   33.6630   26.5420 C.3   610  HEC610      0.0000
     32  CBC       28.0700   33.2150   25.2440 C.3   610  HEC610      0.0000
     33  ND        26.0030   34.1900   31.8850 N.ar  610  HEC610      0.0000
     34  C1D       25.4420   34.0210   30.6650 C.ar  610  HEC610      0.0000
     35  C2D       24.0220   33.6730   30.8140 C.ar  610  HEC610      0.0000
     36  C3D       23.8150   33.6110   32.2730 C.ar  610  HEC610      0.0000
     37  C4D       25.1040   34.0160   32.8300 C.ar  610  HEC610      0.0000
     38  CMD       23.1450   33.4330   29.5660 C.3   610  HEC610      0.0000
     39  CAD       22.5470   33.3210   33.1360 C.3   610  HEC610      0.0000
     40  CBD       21.3950   32.7550   32.2680 C.3   610  HEC610      0.0000
     41  CGD       20.4940   33.9560   32.0530 C.2   610  HEC610      0.0000
     42  O1D       19.7890   34.0270   31.0280 O.co2 610  HEC610      0.0000
     43  O2D       20.5160   34.8630   32.8960 O.co2 610  HEC610      0.0000
@<TRIPOS>BOND
     1    32    31    1
     2    31    28    1
     3    30    27    1
     4    28    27    2
     5    28    29    1
     6    27    26    1
     7    29     5    1
     8    29    25    2
     9     5    34    2
    10    38    35    1
    11    26    25    1
    12    26     4    2
    13    25     1    1
    14     4    21    1
    15    34    35   ar
    16    34    33   ar
    17    35    36   ar
    18    42    41   ar
    19    23    24    1
    20    23    20    1
    21    21    20   ar
    22    21    17   ar
    23    33     1    1
    24    33    37   ar
    25    41    40    1
    26    41    43   ar
    27     1    17    1
    28     1     6    1
    29    20    19   ar
    30    40    39    1
    31    36    37   ar
    32    36    39    1
    33    17    18   ar
    34    37     2    2
    35    19    18   ar
    36    19    22    1
    37    18     3    1
    38     6     7    2
    39     6    10    1
    40     2     7    1
    41     7     8    1
    42     3    10    2
    43    10     9    1
    44     8     9    2
    45     8    12    1
    46     9    11    1
    47    12    13    1
    48    16    14   ar
    49    13    14    1
    50    14    15   ar
