@<TRIPOS>MOLECULE
1z1r_HBH_A_1.pdb
 41 43 0 0 0
SMALL
GASTEIGER

@<TRIPOS>ATOM
      1  C1         5.6850   -0.2960   14.4600 C.3   201  HBH201      0.1505
      2  C2         7.1250    0.2420   14.3620 C.3   201  HBH201      0.0542
      3  C3         7.4020    0.9190   13.0430 C.ar  201  HBH201     -0.0199
      4  C7         7.7330    0.7960   10.6500 C.ar  201  HBH201      0.0366
      5  C8         7.5870    0.1730   11.8780 C.ar  201  HBH201     -0.0011
      6  C10        6.5490    2.8780    8.7310 C.3   201  HBH201      0.2066
      7  C11        5.7610    4.0910    9.2080 C.3   201  HBH201      0.0650
      8  C12        4.3070    3.7750    9.3580 C.3   201  HBH201      0.1255
      9  C13        3.9320    3.3170   10.7640 C.1   201  HBH201      0.1271
     10  C16        3.1990    1.4620   12.2020 C.3   201  HBH201      0.2281
     11  C20        4.0640    0.3480   12.7220 C.1   201  HBH201      0.1496
     12  N26        6.2170   -2.8610   15.9850 N.3   201  HBH201     -0.1529
     13  C27        5.2270   -3.6060   16.7740 C.3   201  HBH201      0.0959
     14  C30        1.6910   -4.4470   15.4200 C.3   201  HBH201      0.0000
     15  C31        3.0420   -5.5150   17.2380 C.3   201  HBH201      0.0000
     16  C35        8.2900   -4.5910   15.9910 C.ar  201  HBH201      0.1222
     17  C4         7.3740    2.3070   12.9430 C.ar  201  HBH201     -0.0011
     18  C5         7.5200    2.9430   11.7220 C.ar  201  HBH201      0.0366
     19  C6         7.6920    2.1800   10.5770 C.ar  201  HBH201      0.1385
     20  O9         7.8190    2.8080    9.3610 O.3   201  HBH201     -0.4754
     21  O14        3.9510    4.1070   11.7290 O.2   201  HBH201     -0.2270
     22  N15        3.6480    2.0210   10.9110 N.2   201  HBH201     -0.1907
     23  C17        1.7660    0.9750   12.0350 C.3   201  HBH201      0.1307
     24  C18        0.8690    2.0680   11.5360 C.2   201  HBH201      0.2639
     25  O19        0.4180    2.9210   12.3060 O.2   201  HBH201     -0.2715
     26  N19        0.8040    2.1970   10.2320 N.am  201  HBH201     -0.0877
     27  O21        4.0400   -0.7810   12.2170 O.2   201  HBH201     -0.2251
     28  N22        4.7750    0.6520   13.7970 N.2   201  HBH201     -0.2037
     29  C23        5.3000   -0.5290   15.9290 C.3   201  HBH201      0.1929
     30  O24        5.3350    0.7120   16.6410 O.3   201  HBH201     -0.2195
     31  C25        6.2590   -1.5220   16.5990 C.3   201  HBH201      0.1306
     32  C28        4.0360   -3.7100   15.8310 C.3   201  HBH201      0.0191
     33  C29        2.7570   -4.2270   16.4850 C.3   201  HBH201      0.0014
     34  S32        7.3120   -3.6550   15.0540 S.O2  201  HBH201      0.0634
     35  O33        8.1270   -2.6700   14.3560 O.2   201  HBH201     -0.1528
     36  O34        6.6060   -4.4850   14.0820 O.2   201  HBH201     -0.1528
     37  C36        9.3220   -4.0080   16.7210 C.ar  201  HBH201      0.0199
     38  C37       10.1600   -4.7870   17.5150 C.ar  201  HBH201      0.0014
     39  C38        9.9680   -6.1650   17.5780 C.ar  201  HBH201      0.0001
     40  C39        8.9390   -6.7590   16.8530 C.ar  201  HBH201      0.0014
     41  C40        8.1050   -5.9700   16.0630 C.ar  201  HBH201      0.0199
@<TRIPOS>BOND
     1     6     7    1
     2     6    20    1
     3     7     8    1
     4     8     9    1
     5    20    19    1
     6    26    24   am
     7    19     4   ar
     8    19    18   ar
     9     4     5   ar
    10     9    22    2
    11     9    21    2
    12    22    10    1
    13    24    23    1
    14    24    25    2
    15    18    17   ar
    16     5     3   ar
    17    23    10    1
    18    10    11    1
    19    27    11    2
    20    11    28    2
    21    17     3   ar
    22     3     2    1
    23    28     1    1
    24    36    34    2
    25    35    34    2
    26     2     1    1
    27     1    29    1
    28    34    12    1
    29    34    16    1
    30    14    33    1
    31    32    33    1
    32    32    13    1
    33    29    31    1
    34    29    30    1
    35    12    31    1
    36    12    13    1
    37    16    41   ar
    38    16    37   ar
    39    41    40   ar
    40    33    15    1
    41    37    38   ar
    42    40    39   ar
    43    38    39   ar
