@<TRIPOS>MOLECULE
1z22_GDP_A_1.pdb
 28 30 0 0 0
SMALL
GASTEIGER

@<TRIPOS>ATOM
      1  PB        16.1400   23.8980   10.6080 P.3   201  GDP201      0.5373
      2  O1B       15.1890   23.1120    9.7560 O.2   201  GDP201     -0.2221
      3  O2B       15.3790   24.5210   11.7520 O.3   201  GDP201     -0.1143
      4  O3B       17.2380   23.0010   11.1380 O.3   201  GDP201     -0.1143
      5  O3A       16.7580   25.1000    9.7360 O.3   201  GDP201     -0.2261
      6  PA        18.2680   25.1340    9.1790 P.3   201  GDP201      0.2231
      7  O1A       18.5360   23.9420    8.3050 O.2   201  GDP201     -0.5169
      8  O2A       19.2510   25.2370   10.3130 O.3   201  GDP201     -0.4370
      9  O5'       18.2700   26.4900    8.3120 O.3   201  GDP201     -0.3111
     10  C5'       17.3500   26.6770    7.2350 C.3   201  GDP201      0.1813
     11  C4'       17.8870   27.7450    6.2910 C.3   201  GDP201      0.1799
     12  O4'       17.9450   29.0090    6.9740 O.3   201  GDP201     -0.3326
     13  C3'       19.3060   27.4240    5.8420 C.3   201  GDP201      0.2158
     14  O3'       19.4790   27.8610    4.4880 O.3   201  GDP201     -0.2175
     15  C2'       20.1620   28.2720    6.7560 C.3   201  GDP201      0.2310
     16  O2'       21.4280   28.5990    6.1740 O.3   201  GDP201     -0.2158
     17  C1'       19.2860   29.4950    6.9670 C.3   201  GDP201      0.2293
     18  N9        19.6100   30.1970    8.2310 N.pl3 201  GDP201     -0.2354
     19  C8        19.7900   29.6670    9.4560 C.3   201  GDP201      0.2246
     20  N7        20.0690   30.6390   10.3660 N.2   201  GDP201     -0.2322
     21  C5        20.0780   31.8150    9.7050 C.2   201  GDP201      0.2182
     22  C6        20.2960   33.2380   10.0430 C.1   201  GDP201      0.2372
     23  O6        20.5660   33.5940   11.2110 O.2   201  GDP201     -0.2069
     24  N1        20.1970   34.1360    9.0530 N.2   201  GDP201     -0.2485
     25  C2        19.9110   33.8020    7.7730 C.1   201  GDP201      0.2531
     26  N2        19.8360   34.7860    6.8460 N.pl3 201  GDP201     -0.0226
     27  N3        19.7000   32.5200    7.3860 N.2   201  GDP201     -0.3074
     28  C4        19.7690   31.5140    8.2980 C.2   201  GDP201      0.2300
@<TRIPOS>BOND
     1    14    13    1
     2    13    11    1
     3    13    15    1
     4    16    15    1
     5    11    12    1
     6    11    10    1
     7    15    17    1
     8    26    25    1
     9    17    12    1
    10    17    18    1
    11    10     9    1
    12    27    25    2
    13    27    28    2
    14    25    24    2
    15    18    28    1
    16    18    19    1
    17    28    21    1
    18     7     6    2
    19     9     6    1
    20    24    22    2
    21     6     5    1
    22     6     8    1
    23    19    20    1
    24    21    22    1
    25    21    20    2
    26     5     1    1
    27     2     1    2
    28    22    23    2
    29     1     4    1
    30     1     3    1
