@<TRIPOS>MOLECULE
1z24_BLV_A_1.pdb
 43 46 0 0 0
SMALL
GASTEIGER

@<TRIPOS>ATOM
      1  NA        15.3530   42.9960   62.4350 N.2   195  BLV195     -0.3375
      2  C1A       15.0190   42.5290   63.6620 C.1   195  BLV195      0.2000
      3  C2A       16.0780   42.6710   64.6470 C.2   195  BLV195      0.0712
      4  C3A       17.1090   43.2690   63.9850 C.2   195  BLV195      0.0128
      5  C4A       16.6430   43.4570   62.5980 C.2   195  BLV195      0.1254
      6  CMA       18.5590   43.6260   64.4880 C.3   195  BLV195      0.0339
      7  OA        13.9300   42.0520   63.9000 O.2   195  BLV195     -0.2096
      8  CAA       16.0360   42.2000   66.0440 C.3   195  BLV195      0.0508
      9  CBA       16.2480   40.7210   65.9130 C.3   195  BLV195      0.1195
     10  CGA       16.0250   40.0710   67.2780 C.2   195  BLV195      0.3652
     11  O1A       16.9390   39.7190   67.9720 O.co2 195  BLV195     -0.2456
     12  O2A       14.9100   39.9440   67.6760 O.co2 195  BLV195     -0.2456
     13  CHB       17.4460   44.0080   61.6010 C.3   195  BLV195      0.1181
     14  NB        15.9530   44.0470   59.6650 N.2   195  BLV195     -0.4104
     15  C1B       17.2060   44.0680   60.2380 C.2   195  BLV195      0.1114
     16  C2B       18.2310   44.2020   59.2330 C.2   195  BLV195      0.0021
     17  C3B       17.5860   44.2540   58.0670 C.2   195  BLV195      0.0018
     18  C4B       16.1500   44.1400   58.3440 C.2   195  BLV195      0.1114
     19  CMB       19.7300   44.2820   59.4760 C.3   195  BLV195      0.0331
     20  CAB       18.2170   44.3810   56.7130 C.3   195  BLV195      0.0284
     21  CBB       17.6300   43.5910   55.7560 C.3   195  BLV195      0.0051
     22  CHC       15.1630   44.2080   57.3510 C.3   195  BLV195      0.1170
     23  NC        13.0230   43.8590   58.4320 N.2   195  BLV195     -0.4100
     24  C1C       13.8010   44.2780   57.4050 C.2   195  BLV195      0.1117
     25  C2C       12.9860   44.7940   56.2930 C.2   195  BLV195      0.0061
     26  C3C       11.6880   44.7500   56.6020 C.2   195  BLV195      0.0240
     27  C4C       11.7040   44.1430   57.9940 C.2   195  BLV195      0.1154
     28  CMC       13.5400   45.3770   55.0800 C.3   195  BLV195      0.0334
     29  CAC       10.3920   45.1250   55.8570 C.2   195  BLV195      0.0020
     30  CBC        9.2680   45.4440   56.5420 C.2   195  BLV195      0.0001
     31  CHD       10.5310   43.7900   58.7490 C.3   195  BLV195      0.1184
     32  ND        11.3810   44.2750   61.0180 N.2   195  BLV195     -0.3375
     33  C1D       10.3590   43.8610   60.1170 C.2   195  BLV195      0.1254
     34  C2D        9.1040   43.5660   60.8750 C.2   195  BLV195      0.0128
     35  C3D        9.3630   43.7960   62.2070 C.2   195  BLV195      0.0712
     36  C4D       10.7470   44.2330   62.2540 C.1   195  BLV195      0.2000
     37  CMD        7.7930   43.0820   60.3340 C.3   195  BLV195      0.0339
     38  OD        11.3010   44.5410   63.2820 O.2   195  BLV195     -0.2096
     39  CAD        8.4190   43.6530   63.3340 C.3   195  BLV195      0.0508
     40  CBD        7.9480   45.0390   63.7310 C.3   195  BLV195      0.1195
     41  CGD        7.1130   45.0000   65.0630 C.2   195  BLV195      0.3652
     42  O1D        5.9260   44.9360   65.0160 O.co2 195  BLV195     -0.2456
     43  O2D        7.6540   45.0070   66.1530 O.co2 195  BLV195     -0.2456
@<TRIPOS>BOND
     1    28    25    1
     2    21    20    1
     3    29    30    2
     4    29    26    1
     5    25    26    2
     6    25    24    1
     7    26    27    1
     8    20    17    1
     9    22    24    1
    10    22    18    1
    11    24    23    2
    12    27    23    2
    13    27    31    1
    14    17    18    1
    15    17    16    2
    16    18    14    2
    17    31    33    1
    18    16    19    1
    19    16    15    1
    20    14    15    2
    21    33    34    1
    22    33    32    2
    23    15    13    1
    24    37    34    1
    25    34    35    2
    26    32    36    2
    27    13     5    1
    28    35    36    1
    29    35    39    1
    30    36    38    2
    31     1     5    2
    32     1     2    2
    33     5     4    1
    34    39    40    1
    35     2     7    2
    36     2     3    1
    37    40    41    1
    38     4     6    1
    39     4     3    2
    40     3     8    1
    41    42    41   ar
    42    41    43   ar
    43     9     8    1
    44     9    10    1
    45    10    12   ar
    46    10    11   ar
