@<TRIPOS>MOLECULE
1z28_A3P_A_1.pdb
 27 29 0 0 0
SMALL
GASTEIGER

@<TRIPOS>ATOM
      1  P1        19.9560    6.9720   18.6340 P.3   1001  A3P1001     0.5327
      2  O1P       20.7230    6.4870   19.7970 O.3   1001  A3P1001    -0.1145
      3  O2P       20.6870    7.6100   17.5160 O.2   1001  A3P1001    -0.2224
      4  O3P       19.0850    5.7570   18.0720 O.3   1001  A3P1001    -0.1145
      5  P2        16.6660   13.8090   18.6560 P.3   1001  A3P1001     0.5327
      6  O4P       15.2850   13.5330   18.1980 O.3   1001  A3P1001    -0.1145
      7  O5P       16.8750   14.8560   19.6750 O.3   1001  A3P1001    -0.1145
      8  O6P       17.5890   14.1820   17.3880 O.2   1001  A3P1001    -0.2224
      9  O5'       17.3160   12.4540   19.1880 O.3   1001  A3P1001    -0.2675
     10  C5'       17.4700   11.3260   18.3300 C.3   1001  A3P1001     0.1859
     11  C4'       17.7060   10.0910   19.1880 C.3   1001  A3P1001     0.1796
     12  O4'       16.4270    9.7730   19.8550 O.3   1001  A3P1001    -0.3136
     13  C3'       18.0550    8.8510   18.3580 C.3   1001  A3P1001     0.1928
     14  O3'       18.8400    7.9950   19.2030 O.3   1001  A3P1001    -0.2673
     15  C2'       16.7040    8.2230   18.1200 C.3   1001  A3P1001     0.2543
     16  O2'       16.8530    6.8300   17.8530 O.3   1001  A3P1001    -0.2131
     17  C1'       16.0540    8.4210   19.4730 C.3   1001  A3P1001     0.3185
     18  N9        14.5820    8.1960   19.5090 N.pl3 1001  A3P1001    -0.1439
     19  C8        13.6530    8.7490   18.7100 C.3   1001  A3P1001     0.3377
     20  N7        12.4430    8.3110   19.0810 N.2   1001  A3P1001    -0.2095
     21  C5        12.6070    7.4820   20.1070 C.2   1001  A3P1001     0.2526
     22  C6        11.7380    6.7230   20.8910 C.2   1001  A3P1001     0.4393
     23  N6        10.4270    6.7620   20.6780 N.pl3 1001  A3P1001     0.2180
     24  N1        12.2430    5.9470   21.8800 N.2   1001  A3P1001     0.0021
     25  C2        13.5590    5.8980   22.1190 C.3   1001  A3P1001     0.5254
     26  N3        14.4080    6.6180   21.3810 N.2   1001  A3P1001    -0.0055
     27  C4        13.9600    7.4090   20.3780 C.2   1001  A3P1001     0.3518
@<TRIPOS>BOND
     1     8     5    2
     2     3     1    2
     3    16    15    1
     4     4     1    1
     5    15    13    1
     6    15    17    1
     7     6     5    1
     8    10     9    1
     9    10    11    1
    10    13    11    1
    11    13    14    1
    12     1    14    1
    13     1     2    1
    14     5     9    1
    15     5     7    1
    16    19    20    1
    17    19    18    1
    18    20    21    2
    19    11    12    1
    20    17    18    1
    21    17    12    1
    22    18    27    1
    23    21    27    1
    24    21    22    1
    25    27    26    2
    26    23    22    1
    27    22    24    2
    28    26    25    1
    29    24    25    1
