@<TRIPOS>MOLECULE
1z29_A3P_A_1.pdb
 27 29 0 0 0
SMALL
GASTEIGER

@<TRIPOS>ATOM
      1  P1        11.4160    2.6520   26.2800 P.3   2001  A3P2001     0.5327
      2  O1P       10.8250    3.6260   27.2130 O.3   2001  A3P2001    -0.1145
      3  O2P       12.5050    3.1050   25.3850 O.2   2001  A3P2001    -0.2224
      4  O3P       11.7340    1.4350   27.0640 O.3   2001  A3P2001    -0.1145
      5  P2         4.4570    2.7250   23.1250 P.3   2001  A3P2001     0.5327
      6  O4P        4.1690    3.8110   24.0900 O.3   2001  A3P2001    -0.1145
      7  O5P        4.5150    3.0830   21.6880 O.2   2001  A3P2001    -0.2224
      8  O6P        3.5340    1.5840   23.4300 O.3   2001  A3P2001    -0.1145
      9  O5'        5.8930    2.1560   23.5050 O.3   2001  A3P2001    -0.2675
     10  C5'        6.9700    3.0190   23.8470 C.3   2001  A3P2001     0.1859
     11  C4'        8.2010    2.1890   24.1090 C.3   2001  A3P2001     0.1796
     12  O4'        8.5270    1.5100   22.8510 O.3   2001  A3P2001    -0.3136
     13  C3'        9.4820    2.9790   24.4730 C.3   2001  A3P2001     0.1928
     14  O3'       10.2590    2.1010   25.3130 O.3   2001  A3P2001    -0.2673
     15  C2'       10.0970    3.2160   23.0990 C.3   2001  A3P2001     0.2543
     16  O2'       11.4440    3.6780   23.0570 O.3   2001  A3P2001    -0.2131
     17  C1'        9.8510    1.8450   22.4400 C.3   2001  A3P2001     0.3185
     18  N9         9.8800    1.8370   20.9610 N.pl3 2001  A3P2001    -0.1439
     19  C8         9.2070    2.6550   20.0700 C.3   2001  A3P2001     0.3377
     20  N7         9.4550    2.3920   18.8040 N.2   2001  A3P2001    -0.2095
     21  C5        10.3410    1.3360   18.8540 C.2   2001  A3P2001     0.2526
     22  C6        11.0120    0.5690   17.8340 C.2   2001  A3P2001     0.4393
     23  N6        10.8550    0.7890   16.5230 N.pl3 2001  A3P2001     0.2180
     24  N1        11.8570   -0.4540   18.2260 N.2   2001  A3P2001     0.0021
     25  C2        12.0320   -0.6970   19.5730 C.3   2001  A3P2001     0.5254
     26  N3        11.4520   -0.0340   20.6230 N.2   2001  A3P2001    -0.0055
     27  C4        10.6190    0.9740   20.1870 C.2   2001  A3P2001     0.3518
@<TRIPOS>BOND
     1    23    22    1
     2    22    24    2
     3    22    21    1
     4    24    25    1
     5    20    21    2
     6    20    19    1
     7    21    27    1
     8    25    26    1
     9    19    18    1
    10    27    26    2
    11    27    18    1
    12    18    17    1
    13     7     5    2
    14    17    12    1
    15    17    15    1
    16    12    11    1
    17    16    15    1
    18    15    13    1
    19     5     8    1
    20     5     9    1
    21     5     6    1
    22     9    10    1
    23    10    11    1
    24    11    13    1
    25    13    14    1
    26    14     1    1
    27     3     1    2
    28     1     4    1
    29     1     2    1
