@<TRIPOS>MOLECULE
1z2a_GDP_A_1.pdb
 28 30 0 0 0
SMALL
GASTEIGER

@<TRIPOS>ATOM
      1  PB        12.3930    4.3120   12.6270 P.3   201  GDP201      0.5373
      2  O1B       13.0050    3.2140   11.7830 O.2   201  GDP201     -0.2221
      3  O2B       10.9950    3.9140   13.0050 O.3   201  GDP201     -0.1143
      4  O3B       13.2440    4.5580   13.8590 O.3   201  GDP201     -0.1143
      5  O3A       12.2930    5.6500   11.7410 O.3   201  GDP201     -0.2261
      6  PA        13.4200    6.7800   11.5840 P.3   201  GDP201      0.2231
      7  O1A       14.7810    6.2040   11.2940 O.2   201  GDP201     -0.5169
      8  O2A       13.4650    7.6650   12.8150 O.3   201  GDP201     -0.4370
      9  O5'       12.8840    7.6370   10.3310 O.3   201  GDP201     -0.3111
     10  C5'       12.7530    7.0370    9.0380 C.3   201  GDP201      0.1813
     11  C4'       12.6390    8.1260    7.9700 C.3   201  GDP201      0.1799
     12  O4'       11.3880    8.8010    8.1000 O.3   201  GDP201     -0.3326
     13  C3'       13.7180    9.1840    8.0970 C.3   201  GDP201      0.2158
     14  O3'       14.0880    9.5920    6.7780 O.3   201  GDP201     -0.2175
     15  C2'       13.0150   10.3170    8.8320 C.3   201  GDP201      0.2310
     16  O2'       13.5840   11.5970    8.5800 O.3   201  GDP201     -0.2158
     17  C1'       11.6080   10.2050    8.2790 C.3   201  GDP201      0.2293
     18  N9        10.5800   10.8070    9.1670 N.pl3 201  GDP201     -0.2354
     19  C8        10.4390   10.6380   10.5010 C.3   201  GDP201      0.2246
     20  N7         9.3830   11.3540   10.9680 N.2   201  GDP201     -0.2322
     21  C5         8.8210   11.9980    9.9200 C.2   201  GDP201      0.2182
     22  C6         7.6720   12.9240    9.6980 C.1   201  GDP201      0.2372
     23  O6         6.9230   13.2990   10.6370 O.2   201  GDP201     -0.2069
     24  N1         7.4480   13.3550    8.4450 N.2   201  GDP201     -0.2485
     25  C2         8.2230   12.9830    7.3990 C.1   201  GDP201      0.2531
     26  N2         7.9340   13.4560    6.1660 N.pl3 201  GDP201     -0.0226
     27  N3         9.2810   12.1460    7.5320 N.2   201  GDP201     -0.3074
     28  C4         9.6210   11.6290    8.7400 C.2   201  GDP201      0.2300
@<TRIPOS>BOND
     1    26    25    1
     2    14    13    1
     3    25    27    2
     4    25    24    2
     5    27    28    2
     6    11    13    1
     7    11    12    1
     8    11    10    1
     9    13    15    1
    10    12    17    1
    11    17    15    1
    12    17    18    1
    13    24    22    2
    14    16    15    1
    15    28    18    1
    16    28    21    1
    17    10     9    1
    18    18    19    1
    19    22    21    1
    20    22    23    2
    21    21    20    2
    22     9     6    1
    23    19    20    1
    24     7     6    2
    25     6     5    1
    26     6     8    1
    27     5     1    1
    28     2     1    2
    29     1     3    1
    30     1     4    1
