@<TRIPOS>MOLECULE
1z2b_GDP_B_1.pdb
 28 30 0 0 0
SMALL
GASTEIGER

@<TRIPOS>ATOM
      1  PB        88.7440   73.1260    5.2860 P.3   602  GDP602      0.5373
      2  O1B       89.0340   74.3720    6.0490 O.3   602  GDP602     -0.1143
      3  O2B       89.7090   72.0020    5.6900 O.3   602  GDP602     -0.1143
      4  O3B       87.3320   72.5070    5.4320 O.2   602  GDP602     -0.2221
      5  O3A       88.9380   73.5890    3.7710 O.3   602  GDP602     -0.2261
      6  PA        89.8950   72.7470    2.8030 P.3   602  GDP602      0.2231
      7  O1A       91.0460   72.2620    3.5830 O.3   602  GDP602     -0.4370
      8  O2A       89.1370   71.5660    2.1560 O.2   602  GDP602     -0.5169
      9  O5'       90.4160   73.8230    1.7170 O.3   602  GDP602     -0.3111
     10  C5'       89.4750   74.5810    0.9890 C.3   602  GDP602      0.1813
     11  C4'       90.0730   75.3550   -0.1860 C.3   602  GDP602      0.1799
     12  O4'       91.4860   75.3850   -0.1520 O.3   602  GDP602     -0.3326
     13  C3'       89.6320   74.7240   -1.5020 C.3   602  GDP602      0.2158
     14  O3'       88.7460   75.5900   -2.1570 O.3   602  GDP602     -0.2175
     15  C2'       90.8830   74.6480   -2.3260 C.3   602  GDP602      0.2310
     16  O2'       90.8810   75.7540   -3.1940 O.3   602  GDP602     -0.2158
     17  C1'       92.0140   74.7670   -1.3190 C.3   602  GDP602      0.2293
     18  N9        92.6230   73.4400   -1.0020 N.pl3 602  GDP602     -0.2354
     19  C8        91.9770   72.2850   -0.6030 C.3   602  GDP602      0.2246
     20  N7        92.9070   71.3070   -0.4050 N.2   602  GDP602     -0.2322
     21  C5        94.1510   71.8030   -0.6640 C.2   602  GDP602      0.2182
     22  C6        95.4380   71.2380   -0.6340 C.1   602  GDP602      0.2372
     23  O6        95.5550   70.0250   -0.8420 O.2   602  GDP602     -0.2069
     24  N1        96.5190   72.0400   -0.9520 N.2   602  GDP602     -0.2485
     25  C2        96.3480   73.3550   -1.3310 C.1   602  GDP602      0.2531
     26  N2        97.1260   73.7950   -2.3030 N.pl3 602  GDP602     -0.0226
     27  N3        95.0830   73.8920   -1.3510 N.2   602  GDP602     -0.3074
     28  C4        93.9850   73.1420   -1.0410 C.2   602  GDP602      0.2300
@<TRIPOS>BOND
     1    16    15    1
     2    15    13    1
     3    15    17    1
     4    26    25    1
     5    14    13    1
     6    13    11    1
     7    27    25    2
     8    27    28    2
     9    25    24    2
    10    17    18    1
    11    17    12    1
    12    28    18    1
    13    28    21    1
    14    18    19    1
    15    24    22    2
    16    23    22    2
    17    21    22    1
    18    21    20    2
    19    19    20    1
    20    11    12    1
    21    11    10    1
    22    10     9    1
    23     9     6    1
    24     8     6    2
    25     6     7    1
    26     6     5    1
    27     5     1    1
    28     1     4    2
    29     1     3    1
    30     1     2    1
