@<TRIPOS>MOLECULE
1z2b_CN2_B_1.pdb
 30 32 0 0 0
SMALL
GASTEIGER

@<TRIPOS>ATOM
      1  O4       119.4680   91.6030    5.6760 O.2   700  CN2700     -0.2723
      2  C12      119.4630   91.8260    6.8810 C.2   700  CN2700      0.2535
      3  C13      120.6030   92.5970    7.4170 C.3   700  CN2700      0.1551
      4  S1       121.8020   91.4330    6.7600 S.3   700  CN2700     -0.0718
      5  N1       118.5920   91.3950    7.7900 N.am  700  CN2700     -0.2022
      6  C11      117.4000   90.5940    7.4620 C.3   700  CN2700      0.1143
      7  C14      116.3930   91.2800    6.5280 C.2   700  CN2700     -0.0172
      8  C15      116.6470   92.5670    6.0090 C.3   700  CN2700      0.0910
      9  C10      116.8290   90.1780    8.8410 C.3   700  CN2700      0.0305
     10  C9       115.3270   89.8470    8.9280 C.3   700  CN2700      0.0287
     11  C8       115.0780   88.7680    7.9260 C.ar  700  CN2700     -0.0160
     12  C7       114.8800   87.4390    8.2420 C.ar  700  CN2700      0.0360
     13  C5       114.6730   86.4840    7.2340 C.ar  700  CN2700      0.1751
     14  C3       114.6850   86.9030    5.8850 C.ar  700  CN2700      0.2060
     15  C1       114.8910   88.2380    5.5680 C.ar  700  CN2700      0.1750
     16  O1       114.9260   88.6340    4.2770 O.3   700  CN2700     -0.4683
     17  C2       116.1420   88.3700    3.5750 C.3   700  CN2700      0.2526
     18  O2       114.4780   86.0170    4.8360 O.3   700  CN2700     -0.4654
     19  C4       113.1530   85.7860    4.3270 C.3   700  CN2700      0.2528
     20  O3       114.4690   85.1450    7.5960 O.3   700  CN2700     -0.4683
     21  C6       113.1670   84.5260    7.6220 C.3   700  CN2700      0.2526
     22  C22      115.0890   89.1650    6.5380 C.ar  700  CN2700      0.0327
     23  C21      115.2860   90.5880    6.2330 C.2   700  CN2700     -0.0034
     24  C20      114.4240   91.2560    5.6720 C.2   700  CN2700     -0.0022
     25  C19      114.1340   92.2800    5.1380 C.2   700  CN2700      0.0103
     26  C17      114.5600   93.3300    4.6360 C.3   700  CN2700      0.1944
     27  C16      115.9290   93.5680    5.0890 C.2   700  CN2700      0.1858
     28  O5       116.4680   94.6170    4.7120 O.2   700  CN2700     -0.2928
     29  O6       113.8750   94.2140    3.7130 O.3   700  CN2700     -0.3417
     30  C18      114.3310   94.3120    2.3670 C.3   700  CN2700      0.1751
@<TRIPOS>BOND
     1    30    29    1
     2    17    16    1
     3    29    26    1
     4    16    15    1
     5    19    18    1
     6    26    27    1
     7    26    25    1
     8    28    27    2
     9    18    14    1
    10    27     8    1
    11    25    24    2
    12    15    14   ar
    13    15    22   ar
    14    24    23    1
    15     1     2    2
    16    14    13   ar
    17     8     7    1
    18    23     7    2
    19    23    22    1
    20     7     6    1
    21    22    11   ar
    22     4     3    1
    23     2     3    1
    24     2     5   am
    25    13    20    1
    26    13    12   ar
    27     6     5    1
    28     6     9    1
    29    20    21    1
    30    11    12   ar
    31    11    10    1
    32     9    10    1
