@<TRIPOS>MOLECULE
1z2b_GTP_A_1.pdb
 32 34 0 0 0
SMALL
GASTEIGER

@<TRIPOS>ATOM
      1  PG       121.1230   92.9290   17.5820 P.3   600  GTP600      0.5373
      2  O1G      121.6050   91.5460   17.3490 O.3   600  GTP600     -0.1143
      3  O2G      120.4040   93.0840   18.9270 O.3   600  GTP600     -0.1143
      4  O3G      120.0750   93.3830   16.5340 O.2   600  GTP600     -0.2221
      5  O3B      122.4420   93.8720   17.5820 O.3   600  GTP600     -0.2258
      6  PB       122.2190   95.4650   17.4360 P.3   600  GTP600      0.2277
      7  O1B      123.3630   96.2570   17.9730 O.2   600  GTP600     -0.5168
      8  O2B      120.8250   95.7890   18.0580 O.3   600  GTP600     -0.4368
      9  O3A      122.2510   95.6390   15.8200 O.3   600  GTP600     -0.2700
     10  PA       123.5820   95.3970   14.9150 P.3   600  GTP600      0.2189
     11  O1A      123.4840   94.2130   14.0160 O.2   600  GTP600     -0.5170
     12  O2A      124.7760   95.3530   15.9070 O.3   600  GTP600     -0.4371
     13  O5'      123.6160   96.6490   13.9020 O.3   600  GTP600     -0.3112
     14  C5'      123.3580   96.4730   12.5260 C.3   600  GTP600      0.1813
     15  C4'      124.2520   97.4980   11.8510 C.3   600  GTP600      0.1799
     16  O4'      125.5360   97.2640   12.3480 O.3   600  GTP600     -0.3326
     17  C3'      124.3200   97.3460   10.3410 C.3   600  GTP600      0.2158
     18  O3'      124.6230   98.6100    9.7770 O.3   600  GTP600     -0.2175
     19  C2'      125.4840   96.4270   10.1020 C.3   600  GTP600      0.2310
     20  O2'      126.0580   96.7010    8.8280 O.3   600  GTP600     -0.2158
     21  C1'      126.3640   96.7600   11.3170 C.3   600  GTP600      0.2293
     22  N9       127.2010   95.6600   11.8450 N.pl3 600  GTP600     -0.2354
     23  C8       126.7910   94.5010   12.4370 C.3   600  GTP600      0.2246
     24  N7       127.8820   93.7670   12.7770 N.2   600  GTP600     -0.2322
     25  C5       128.9710   94.4490   12.4160 C.2   600  GTP600      0.2182
     26  C6       130.2970   94.1610   12.5340 C.1   600  GTP600      0.2372
     27  O6       130.6200   93.1060   13.0480 O.2   600  GTP600     -0.2069
     28  N1       131.2170   95.0640   12.0760 N.2   600  GTP600     -0.2485
     29  C2       130.7840   96.2400   11.5100 C.1   600  GTP600      0.2531
     30  N2       131.6190   97.1450   11.0490 N.pl3 600  GTP600     -0.0226
     31  N3       129.4640   96.5050   11.3940 N.2   600  GTP600     -0.3074
     32  C4       128.5650   95.6280   11.8400 C.2   600  GTP600      0.2300
@<TRIPOS>BOND
     1    20    19    1
     2    18    17    1
     3    19    17    1
     4    19    21    1
     5    17    15    1
     6    30    29    1
     7    21    22    1
     8    21    16    1
     9    31    29    2
    10    31    32    2
    11    29    28    2
    12    32    22    1
    13    32    25    1
    14    22    23    1
    15    15    16    1
    16    15    14    1
    17    28    26    2
    18    25    26    1
    19    25    24    2
    20    23    24    1
    21    14    13    1
    22    26    27    2
    23    13    10    1
    24    11    10    2
    25    10     9    1
    26    10    12    1
    27     9     6    1
    28     4     1    2
    29     2     1    1
    30     6     5    1
    31     6     7    2
    32     6     8    1
    33     1     5    1
    34     1     3    1
