@<TRIPOS>MOLECULE
1z2c_GNP_A_1.pdb
 32 34 0 0 0
SMALL
GASTEIGER

@<TRIPOS>ATOM
      1  PG        26.5500   79.7610   91.4390 P.3   195  GNP195      0.4884
      2  O1G       27.7620   80.3320   92.1510 O.3   195  GNP195     -0.1240
      3  O2G       26.7200   79.2590   90.0170 O.2   195  GNP195     -0.2331
      4  O3G       25.5380   80.8650   91.6270 O.3   195  GNP195     -0.1240
      5  N3B       26.0150   78.4620   92.2390 N.3   195  GNP195     -0.0163
      6  PB        24.7810   77.5190   91.8150 P.3   195  GNP195      0.4669
      7  O1B       23.5470   78.3160   91.7250 O.3   195  GNP195     -0.1253
      8  O2B       25.1950   76.8550   90.5600 O.2   195  GNP195     -0.2351
      9  O3A       24.4600   76.4990   92.9290 O.3   195  GNP195     -0.2360
     10  PA        25.2130   75.1730   93.1900 P.3   195  GNP195      0.2220
     11  O1A       24.5080   74.0490   92.5190 O.2   195  GNP195     -0.5170
     12  O2A       26.6560   75.3620   92.8400 O.3   195  GNP195     -0.4370
     13  O5'       25.1640   74.8100   94.7340 O.3   195  GNP195     -0.3111
     14  C5'       24.1830   75.2990   95.6210 C.3   195  GNP195      0.1813
     15  C4'       24.4910   74.9180   97.0680 C.3   195  GNP195      0.1799
     16  O4'       23.2950   74.3760   97.6780 O.3   195  GNP195     -0.3326
     17  C3'       25.5480   73.8420   97.3310 C.3   195  GNP195      0.2158
     18  O3'       26.0750   73.8830   98.6670 O.3   195  GNP195     -0.2175
     19  C2'       24.7380   72.5680   97.1340 C.3   195  GNP195      0.2310
     20  O2'       25.2940   71.4260   97.7730 O.3   195  GNP195     -0.2158
     21  C1'       23.3760   72.9610   97.7090 C.3   195  GNP195      0.2293
     22  N9        22.2960   72.3670   96.9150 N.pl3 195  GNP195     -0.2354
     23  C8        22.2680   72.2650   95.5380 C.3   195  GNP195      0.2246
     24  N7        21.2000   71.6730   95.0860 N.2   195  GNP195     -0.2322
     25  C5        20.4670   71.3670   96.2320 C.2   195  GNP195      0.2182
     26  C6        19.2050   70.7250   96.3560 C.1   195  GNP195      0.2372
     27  O6        18.4740   70.2840   95.4450 O.2   195  GNP195     -0.2069
     28  N1        18.8110   70.6210   97.6920 N.2   195  GNP195     -0.2485
     29  C2        19.5450   71.0640   98.7670 C.1   195  GNP195      0.2531
     30  N2        18.9920   70.8540   99.9740 N.pl3 195  GNP195     -0.0226
     31  N3        20.7250   71.6630   98.6590 N.2   195  GNP195     -0.3074
     32  C4        21.1240   71.7830   97.3710 C.2   195  GNP195      0.2300
@<TRIPOS>BOND
     1     3     1    2
     2     8     6    2
     3     1     4    1
     4     1     2    1
     5     1     5    1
     6     7     6    1
     7     6     5    1
     8     6     9    1
     9    11    10    2
    10    12    10    1
    11     9    10    1
    12    10    13    1
    13    13    14    1
    14    24    23    1
    15    24    25    2
    16    27    26    2
    17    23    22    1
    18    14    15    1
    19    25    26    1
    20    25    32    1
    21    26    28    2
    22    22    32    1
    23    22    21    1
    24    15    17    1
    25    15    16    1
    26    19    17    1
    27    19    21    1
    28    19    20    1
    29    17    18    1
    30    32    31    2
    31    16    21    1
    32    28    29    2
    33    31    29    2
    34    29    30    1
