@<TRIPOS>MOLECULE
1z2i_NAD_A_1.pdb
 44 48 0 0 0
SMALL
GASTEIGER

@<TRIPOS>ATOM
      1  PA       -19.4120  -27.6340   -5.3400 P.3   700  NAD700      0.2189
      2  O1A      -20.1640  -26.3800   -5.5750 O.2   700  NAD700     -0.5170
      3  O2A      -19.6990  -28.4030   -4.1050 O.3   700  NAD700     -0.4371
      4  O5B      -17.8270  -27.3330   -5.3820 O.3   700  NAD700     -0.3112
      5  C5B      -17.1870  -26.8630   -6.5720 C.3   700  NAD700      0.1813
      6  C4B      -15.8940  -26.2380   -6.1120 C.3   700  NAD700      0.1821
      7  O4B      -15.6350  -25.3030   -5.0560 O.3   700  NAD700     -0.3135
      8  C3B      -15.0800  -27.4990   -5.8960 C.3   700  NAD700      0.2184
      9  O3B      -13.9280  -27.5180   -6.7610 O.3   700  NAD700     -0.2174
     10  C2B      -14.7450  -27.4100   -4.4000 C.3   700  NAD700      0.2570
     11  O2B      -13.5030  -28.0610   -4.1110 O.3   700  NAD700     -0.2130
     12  C1B      -14.6760  -25.9010   -4.1510 C.3   700  NAD700      0.3186
     13  N9A      -15.0100  -25.5510   -2.7420 N.pl3 700  NAD700     -0.1439
     14  C8A      -16.0810  -25.9500   -2.0550 C.3   700  NAD700      0.3377
     15  N7A      -16.0420  -25.4330   -0.8120 N.2   700  NAD700     -0.2095
     16  C5A      -14.9420  -24.7090   -0.7190 C.2   700  NAD700      0.2526
     17  C6A      -14.3500  -23.9270    0.3040 C.2   700  NAD700      0.4393
     18  N6A      -14.9360  -23.8190    1.4920 N.pl3 700  NAD700      0.2180
     19  N1A      -13.1810  -23.2980    0.0480 N.2   700  NAD700      0.0021
     20  C2A      -12.5740  -23.3890   -1.1370 C.3   700  NAD700      0.5254
     21  N3A      -13.1070  -24.1130   -2.1220 N.2   700  NAD700     -0.0055
     22  C4A      -14.2720  -24.7770   -1.9500 C.2   700  NAD700      0.3518
     23  O3       -19.6190  -28.6130   -6.6010 O.3   700  NAD700     -0.2703
     24  PN       -20.7010  -28.3710   -7.7610 P.3   700  NAD700      0.2189
     25  O1N      -20.4410  -27.1320   -8.5310 O.2   700  NAD700     -0.5170
     26  O2N      -22.0240  -28.4710   -7.1120 O.3   700  NAD700     -0.4371
     27  O5D      -20.4950  -29.6370   -8.7250 O.3   700  NAD700     -0.3112
     28  C5D      -20.6920  -30.9570   -8.1840 C.3   700  NAD700      0.1813
     29  C4D      -20.4810  -32.0420   -9.2400 C.3   700  NAD700      0.1799
     30  O4D      -21.5150  -31.9410  -10.2350 O.3   700  NAD700     -0.3327
     31  C3D      -19.1550  -31.8910   -9.9770 C.3   700  NAD700      0.2158
     32  O3D      -18.3550  -33.0820   -9.8150 O.3   700  NAD700     -0.2175
     33  C2D      -19.5860  -31.6730  -11.4140 C.3   700  NAD700      0.2309
     34  O2D      -18.6530  -32.1770  -12.3690 O.3   700  NAD700     -0.2158
     35  C1D      -20.9120  -32.3940  -11.4630 C.3   700  NAD700      0.2263
     36  N1N      -21.7030  -31.9960  -12.6410 N.pl3 700  NAD700     -0.2787
     37  C2N      -21.7690  -32.8330  -13.7720 C.3   700  NAD700      0.1244
     38  C3N      -22.5200  -32.4470  -14.8930 C.2   700  NAD700      0.0544
     39  C7N      -22.6170  -33.3250  -16.1370 C.2   700  NAD700      0.2818
     40  O7N      -23.2760  -32.9860  -17.1170 O.2   700  NAD700     -0.2670
     41  N7N      -21.9330  -34.4820  -16.0820 N.am  700  NAD700     -0.0839
     42  C4N      -23.2000  -31.2180  -14.8590 C.2   700  NAD700      0.0033
     43  C5N      -23.1380  -30.3850  -13.7430 C.2   700  NAD700      0.0157
     44  C6N      -22.4000  -30.7590  -12.6350 C.2   700  NAD700      0.0633
@<TRIPOS>BOND
     1    40    39    2
     2    39    41   am
     3    39    38    1
     4    38    42    2
     5    38    37    1
     6    42    43    1
     7    37    36    1
     8    43    44    2
     9    36    44    1
    10    36    35    1
    11    34    33    1
    12    35    33    1
    13    35    30    1
    14    33    31    1
    15    30    29    1
    16    31    32    1
    17    31    29    1
    18    29    28    1
    19    27    28    1
    20    27    24    1
    21    25    24    2
    22    24    26    1
    23    24    23    1
    24     9     8    1
    25    23     1    1
    26     5     6    1
    27     5     4    1
    28     6     8    1
    29     6     7    1
    30     8    10    1
    31     2     1    2
    32     4     1    1
    33     1     3    1
    34     7    12    1
    35    10    12    1
    36    10    11    1
    37    12    13    1
    38    13    14    1
    39    13    22    1
    40    21    22    2
    41    21    20    1
    42    14    15    1
    43    22    16    1
    44    20    19    1
    45    15    16    2
    46    16    17    1
    47    19    17    2
    48    17    18    1
