@<TRIPOS>MOLECULE
1z2l_1AL_B_1.pdb
 12 11 0 0 0
SMALL
GASTEIGER

@<TRIPOS>ATOM
      1  C1        61.3600   33.2870   21.5770 C.2   516  1AL516      0.3609
      2  O2        62.4310   33.5760   21.0330 O.2   516  1AL516     -0.2474
      3  N3        60.1870   33.7130   21.1350 N.am  516  1AL516     -0.0678
      4  N4        61.4680   32.4530   22.6650 N.am  516  1AL516     -0.1545
      5  C5        59.3680   31.6350   23.4340 C.2   516  1AL516      0.4050
      6  O6        58.9550   31.0500   24.4650 O.co2 516  1AL516     -0.2417
      7  O7        58.6280   32.5140   22.9310 O.co2 516  1AL516     -0.2417
      8  C8        60.7380   31.3070   22.7230 C.3   516  1AL516      0.2960
      9  C9        61.5330   29.5030   24.5260 C.2   516  1AL516      0.3609
     10  O10       62.3740   28.5940   24.6020 O.2   516  1AL516     -0.2474
     11  N11       60.6990   29.8020   25.5480 N.am  516  1AL516     -0.0678
     12  N12       61.6130   30.1790   23.3020 N.am  516  1AL516     -0.1545
@<TRIPOS>BOND
     1     2     1    2
     2     3     1   am
     3     1     4   am
     4     4     8    1
     5     8    12    1
     6     8     5    1
     7     7     5   ar
     8    12     9   am
     9     5     6   ar
    10     9    10    2
    11     9    11   am
