@<TRIPOS>MOLECULE
1z2n_ADP_X_1.pdb
 27 29 0 0 0
SMALL
GASTEIGER

@<TRIPOS>ATOM
      1  PB        20.6060   -2.4270    6.2050 P.3   871  ADP871      0.5373
      2  O1B       21.6260   -2.7800    5.1470 O.2   871  ADP871     -0.2221
      3  O2B       19.6580   -3.5820    6.5280 O.3   871  ADP871     -0.1143
      4  O3B       21.1860   -1.8060    7.4540 O.3   871  ADP871     -0.1143
      5  PA        19.1490    0.1490    5.8610 P.3   871  ADP871      0.2231
      6  O1A       17.6820    0.2290    5.5440 O.2   871  ADP871     -0.5169
      7  O2A       19.6190    0.5120    7.2440 O.3   871  ADP871     -0.4370
      8  O3A       19.6710   -1.3220    5.4580 O.3   871  ADP871     -0.2261
      9  O5'       19.8550    1.1140    4.8130 O.3   871  ADP871     -0.3111
     10  C5'       21.2740    1.1480    4.7240 C.3   871  ADP871      0.1813
     11  C4'       21.7680    2.5730    4.9340 C.3   871  ADP871      0.1821
     12  O4'       21.2260    3.4570    3.9490 O.3   871  ADP871     -0.3135
     13  C3'       21.3620    3.1790    6.2690 C.3   871  ADP871      0.2184
     14  O3'       22.2720    2.8060    7.3020 O.3   871  ADP871     -0.2174
     15  C2'       21.4110    4.6620    5.9940 C.3   871  ADP871      0.2570
     16  O2'       22.7840    5.0820    6.0140 O.3   871  ADP871     -0.2130
     17  C1'       20.9380    4.7190    4.5590 C.3   871  ADP871      0.3186
     18  N9        19.4790    4.9150    4.3720 N.pl3 871  ADP871     -0.1439
     19  C8        18.5140    3.9760    4.4900 C.3   871  ADP871      0.3377
     20  N7        17.2860    4.4620    4.1970 N.2   871  ADP871     -0.2095
     21  C5        17.4770    5.7510    3.8600 C.2   871  ADP871      0.2526
     22  C6        16.6160    6.8470    3.4310 C.2   871  ADP871      0.4393
     23  N6        15.2850    6.6570    3.2930 N.pl3 871  ADP871      0.2180
     24  N1        17.1880    8.0390    3.1580 N.2   871  ADP871      0.0021
     25  C2        18.5250    8.2110    3.3080 C.3   871  ADP871      0.5254
     26  N3        19.4050    7.2700    3.6900 N.2   871  ADP871     -0.0055
     27  C4        18.9090    6.0460    3.9720 C.2   871  ADP871      0.3518
@<TRIPOS>BOND
     1    24    25    1
     2    24    22    2
     3    23    22    1
     4    25    26    1
     5    22    21    1
     6    26    27    2
     7    21    27    1
     8    21    20    2
     9    12    17    1
    10    12    11    1
    11    27    18    1
    12    20    19    1
    13    18    19    1
    14    18    17    1
    15    17    15    1
    16    10     9    1
    17    10    11    1
    18     9     5    1
    19    11    13    1
    20     2     1    2
    21     8     5    1
    22     8     1    1
    23     6     5    2
    24     5     7    1
    25    15    16    1
    26    15    13    1
    27     1     3    1
    28     1     4    1
    29    13    14    1
