@<TRIPOS>MOLECULE
1z2o_I4P_X_1.pdb
 28 28 0 0 0
SMALL
GASTEIGER

@<TRIPOS>ATOM
      1  O41       22.7770   -3.0410   13.9000 O.2   2699  I4P2699    -0.2224
      2  P1        24.2260   -3.7260   13.9970 P.3   2699  I4P2699     0.5327
      3  O21       25.2970   -2.5160   14.0390 O.3   2699  I4P2699    -0.1145
      4  O31       24.2430   -4.5680   15.2090 O.3   2699  I4P2699    -0.1145
      5  O11       24.5050   -4.5140   12.6210 O.3   2699  I4P2699    -0.2674
      6  C1        23.6420   -5.5910   12.2680 C.3   2699  I4P2699     0.1891
      7  C2        24.4260   -6.9120   12.3510 C.3   2699  I4P2699     0.2119
      8  O16       25.6340   -6.8070   11.5800 O.3   2699  I4P2699    -0.2177
      9  C3        23.5880   -8.1090   11.8640 C.3   2699  I4P2699     0.1891
     10  O15       24.4280   -9.2600   11.7670 O.3   2699  I4P2699    -0.2674
     11  P5        24.6500  -10.3160   12.9780 P.3   2699  I4P2699     0.5327
     12  O45       25.6660   -9.6170   14.0180 O.3   2699  I4P2699    -0.1145
     13  O25       23.2370  -10.4410   13.7480 O.3   2699  I4P2699    -0.1145
     14  O35       25.1200  -11.6160   12.4480 O.2   2699  I4P2699    -0.2224
     15  C4        22.9730   -7.8610   10.4760 C.3   2699  I4P2699     0.1891
     16  O14       22.0530   -8.9150   10.1810 O.3   2699  I4P2699    -0.2674
     17  P4        22.2270   -9.8710    8.8830 P.3   2699  I4P2699     0.5327
     18  O44       21.6420  -11.2780    9.3900 O.3   2699  I4P2699    -0.1145
     19  O24       21.1940   -9.3450    7.7770 O.2   2699  I4P2699    -0.2224
     20  O34       23.6240   -9.9230    8.3780 O.3   2699  I4P2699    -0.1145
     21  C5        22.2200   -6.5270   10.3890 C.3   2699  I4P2699     0.2119
     22  O13       21.8520   -6.2980    9.0360 O.3   2699  I4P2699    -0.2177
     23  C6        23.0540   -5.3340   10.8760 C.3   2699  I4P2699     0.1891
     24  O12       22.1890   -4.2050   10.9480 O.3   2699  I4P2699    -0.2674
     25  P2        22.5950   -2.7030   10.4820 P.3   2699  I4P2699     0.5327
     26  O42       23.9800   -2.7350    9.6480 O.2   2699  I4P2699    -0.2224
     27  O22       23.0080   -1.9920   11.8450 O.3   2699  I4P2699    -0.1145
     28  O32       21.4460   -1.9980    9.8470 O.3   2699  I4P2699    -0.1145
@<TRIPOS>BOND
     1    19    17    2
     2    20    17    1
     3    17    18    1
     4    17    16    1
     5    22    21    1
     6    26    25    2
     7    28    25    1
     8    16    15    1
     9    21    15    1
    10    21    23    1
    11    15     9    1
    12    25    24    1
    13    25    27    1
    14    23    24    1
    15    23     6    1
    16     8     7    1
    17    10     9    1
    18    10    11    1
    19     9     7    1
    20     6     7    1
    21     6     5    1
    22    14    11    2
    23     5     2    1
    24    11    13    1
    25    11    12    1
    26     1     2    2
    27     2     3    1
    28     2     4    1
