@<TRIPOS>MOLECULE
1z2p_I3S_X_1.pdb
 24 24 0 0 0
SMALL
GASTEIGER

@<TRIPOS>ATOM
      1  O11       25.7020   -9.2430   13.7200 O.3   500  I3S500     -0.1145
      2  P3        25.0710  -10.1650   12.5450 P.3   500  I3S500      0.5327
      3  O12       23.7170  -10.7970   13.1720 O.3   500  I3S500     -0.1145
      4  O10       26.0290  -11.2000   12.0900 O.2   500  I3S500     -0.2224
      5  O3        24.6620   -9.1760   11.3430 O.3   500  I3S500     -0.2674
      6  C3        23.6360   -8.2040   11.5250 C.3   500  I3S500      0.1891
      7  C2        24.2630   -6.8140   11.7590 C.3   500  I3S500      0.2120
      8  O2        25.2010   -6.5130   10.7150 O.3   500  I3S500     -0.2177
      9  C1        23.1810   -5.7160   11.8480 C.3   500  I3S500      0.1918
     10  O1        23.7830   -4.4220   11.8000 O.3   500  I3S500     -0.2673
     11  P1        23.3890   -3.2600   12.8680 P.3   500  I3S500      0.5327
     12  OP2       22.9700   -4.0090   14.2390 O.3   500  I3S500     -0.1145
     13  OP3       22.0350   -2.5590   12.3290 O.2   500  I3S500     -0.2224
     14  OP1       24.5130   -2.3160   13.0690 O.3   500  I3S500     -0.1145
     15  C6        22.1540   -5.7980   10.7100 C.3   500  I3S500      0.2147
     16  O6        21.0960   -4.8980   11.0020 O.3   500  I3S500     -0.2176
     17  C5        21.5760   -7.2010   10.5470 C.3   500  I3S500      0.2146
     18  O5        20.6590   -7.2300    9.4540 O.3   500  I3S500     -0.2176
     19  C4        22.7060   -8.1950   10.3030 C.3   500  I3S500      0.1892
     20  O4        22.1520   -9.4880   10.0700 O.3   500  I3S500     -0.2674
     21  P4        22.3070  -10.1860    8.6140 P.3   500  I3S500      0.5327
     22  OP5       21.7870  -11.6780    8.8900 O.3   500  I3S500     -0.1145
     23  OP6       21.2200   -9.5250    7.6220 O.2   500  I3S500     -0.2224
     24  OP4       23.6870  -10.1300    8.0690 O.3   500  I3S500     -0.1145
@<TRIPOS>BOND
     1    23    21    2
     2    24    21    1
     3    21    22    1
     4    21    20    1
     5    18    17    1
     6    20    19    1
     7    19    17    1
     8    19     6    1
     9    17    15    1
    10    15    16    1
    11    15     9    1
    12     8     7    1
    13     5     6    1
    14     5     2    1
    15     6     7    1
    16     7     9    1
    17    10     9    1
    18    10    11    1
    19     4     2    2
    20    13    11    2
    21     2     3    1
    22     2     1    1
    23    11    14    1
    24    11    12    1
