@<TRIPOS>MOLECULE
1z2p_ACP_X_1.pdb
 31 33 0 0 0
SMALL
GASTEIGER

@<TRIPOS>ATOM
      1  PG        21.4240   -3.1140    8.5570 P.3   1476  ACP1476     0.1295
      2  O1G       20.3170   -4.1600    8.5830 O.3   1476  ACP1476    -0.3567
      3  O2G       21.4270   -2.1490    9.7450 O.3   1476  ACP1476    -0.3567
      4  O3G       22.7730   -3.6720    8.1760 O.2   1476  ACP1476    -0.4595
      5  PB        20.0050   -2.4870    5.9300 P.3   1476  ACP1476     0.3815
      6  O1B       18.7830   -3.2060    6.4660 O.3   1476  ACP1476    -0.1391
      7  O2B       20.8290   -3.1590    4.8720 O.2   1476  ACP1476    -0.2547
      8  C3B       21.0710   -1.9460    7.2280 C.3   1476  ACP1476     0.1768
      9  PA        18.9570    0.2460    5.7230 P.3   1476  ACP1476     0.2209
     10  O1A       17.4820    0.3520    5.4680 O.2   1476  ACP1476    -0.5170
     11  O2A       19.4680    0.5270    7.1100 O.3   1476  ACP1476    -0.4371
     12  O3A       19.4910   -1.1640    5.1710 O.3   1476  ACP1476    -0.2483
     13  O5'       19.6480    1.2460    4.6810 O.3   1476  ACP1476    -0.3111
     14  C5'       21.0670    1.2700    4.5460 C.3   1476  ACP1476     0.1813
     15  C4'       21.5930    2.6790    4.7830 C.3   1476  ACP1476     0.1821
     16  O4'       21.0420    3.5650    3.8220 O.3   1476  ACP1476    -0.3135
     17  C3'       21.2040    3.2890    6.1220 C.3   1476  ACP1476     0.2184
     18  O3'       22.1530    2.9780    7.1300 O.3   1476  ACP1476    -0.2174
     19  C2'       21.2330    4.7740    5.8460 C.3   1476  ACP1476     0.2570
     20  O2'       22.5920    5.2490    5.8150 O.3   1476  ACP1476    -0.2130
     21  C1'       20.7340    4.8300    4.4340 C.3   1476  ACP1476     0.3186
     22  N9        19.2770    5.0260    4.2760 N.pl3 1476  ACP1476    -0.1439
     23  C8        18.3110    4.0960    4.4200 C.3   1476  ACP1476     0.3377
     24  N7        17.0850    4.5930    4.1270 N.2   1476  ACP1476    -0.2095
     25  C5        17.2930    5.8780    3.7920 C.2   1476  ACP1476     0.2526
     26  C6        16.4440    6.9760    3.3530 C.2   1476  ACP1476     0.4393
     27  N6        15.1190    6.8240    3.2200 N.pl3 1476  ACP1476     0.2180
     28  N1        17.0240    8.1480    3.0650 N.2   1476  ACP1476     0.0021
     29  C2        18.3560    8.3160    3.1880 C.3   1476  ACP1476     0.5254
     30  N3        19.2240    7.3690    3.5650 N.2   1476  ACP1476    -0.0055
     31  C4        18.7270    6.1500    3.8620 C.2   1476  ACP1476     0.3518
@<TRIPOS>BOND
     1    28    29    1
     2    28    26    2
     3    29    30    1
     4    27    26    1
     5    26    25    1
     6    30    31    2
     7    25    31    1
     8    25    24    2
     9    16    21    1
    10    16    15    1
    11    31    22    1
    12    24    23    1
    13    22    23    1
    14    22    21    1
    15    21    19    1
    16    14    13    1
    17    14    15    1
    18    13     9    1
    19    15    17    1
    20     7     5    2
    21    12     9    1
    22    12     5    1
    23    10     9    2
    24     9    11    1
    25    20    19    1
    26    19    17    1
    27     5     6    1
    28     5     8    1
    29    17    18    1
    30     8     1    1
    31     4     1    2
    32     1     2    1
    33     1     3    1
