@<TRIPOS>MOLECULE
1z32_GLC_X_1.pdb
 11 11 0 0 0
SMALL
GASTEIGER

@<TRIPOS>ATOM
      1  C1         4.1320   44.0580   22.2750 C.3   503  GLC503      0.1777
      2  C2         4.1540   44.0030   23.8060 C.3   503  GLC503      0.2141
      3  C3         3.8370   42.6040   24.3450 C.3   503  GLC503      0.2173
      4  C4         2.6560   41.9500   23.6290 C.3   503  GLC503      0.2142
      5  C5         2.7720   42.1130   22.1110 C.3   503  GLC503      0.1810
      6  C6         1.5410   41.5690   21.3870 C.3   503  GLC503      0.2141
      7  O2         5.4300   44.3830   24.2710 O.3   503  GLC503     -0.2176
      8  O3         3.5550   42.6740   25.7270 O.3   503  GLC503     -0.2175
      9  O4         2.6170   40.5820   23.9780 O.3   503  GLC503     -0.2176
     10  O5         2.9350   43.4800   21.7770 O.3   503  GLC503     -0.3481
     11  O6         0.4230   42.3960   21.6270 O.3   503  GLC503     -0.2176
@<TRIPOS>BOND
     1     6    11    1
     2     6     5    1
     3    10     5    1
     4    10     1    1
     5     5     4    1
     6     1     2    1
     7     4     9    1
     8     4     3    1
     9     2     7    1
    10     2     3    1
    11     3     8    1
