@<TRIPOS>MOLECULE
1z32_HMC_X_1.pdb
 11 11 0 0 0
SMALL
GASTEIGER

@<TRIPOS>ATOM
      1  C1         7.4220   46.2160   18.9660 C.3   504  HMC504      0.0612
      2  C2         6.3600   47.2700   19.2450 C.3   504  HMC504      0.1893
      3  O2         6.9680   48.5210   19.5000 O.3   504  HMC504     -0.2200
      4  C3         5.5260   46.7730   20.4250 C.3   504  HMC504      0.2165
      5  O3         4.6490   47.7840   20.8850 O.3   504  HMC504     -0.2173
      6  C4         4.7360   45.5200   20.0310 C.3   504  HMC504      0.2052
      7  O4         4.5400   44.6810   21.1670 O.3   504  HMC504     -0.2157
      8  C5         5.4230   44.7470   18.9230 C.2   504  HMC504      0.0167
      9  C6         6.6340   45.0530   18.4220 C.2   504  HMC504     -0.0269
     10  C7         4.7030   43.5930   18.3000 C.3   504  HMC504      0.2066
     11  O7         3.9080   44.1890   17.2930 O.3   504  HMC504     -0.2155
@<TRIPOS>BOND
     1    11    10    1
     2    10     8    1
     3     9     8    2
     4     9     1    1
     5     8     6    1
     6     1     2    1
     7     2     3    1
     8     2     4    1
     9     6     4    1
    10     6     7    1
    11     4     5    1
