@<TRIPOS>MOLECULE
1z32_AGL_X_1.pdb
 10 10 0 0 0
SMALL
GASTEIGER

@<TRIPOS>ATOM
      1  C1        11.2020   43.0570   20.8420 C.3   505  AGL505      0.1775
      2  C2        10.9410   43.2030   19.3420 C.3   505  AGL505      0.2130
      3  C3        10.3270   44.5680   19.0350 C.3   505  AGL505      0.2044
      4  C4         9.0860   44.7860   19.9060 C.3   505  AGL505      0.1517
      5  C5         9.4400   44.5930   21.3840 C.3   505  AGL505      0.1355
      6  C6         8.2340   44.7610   22.3040 C.3   505  AGL505      0.0337
      7  O2        12.1470   43.0280   18.6110 O.3   505  AGL505     -0.2177
      8  O3         9.9770   44.6360   17.6600 O.3   505  AGL505     -0.2187
      9  N4         8.4900   46.0910   19.6430 N.3   505  AGL505     -0.1276
     10  O5         9.9850   43.2790   21.5640 O.3   505  AGL505     -0.3519
@<TRIPOS>BOND
     1     8     3    1
     2     7     2    1
     3     3     2    1
     4     3     4    1
     5     2     1    1
     6     9     4    1
     7     4     5    1
     8     1    10    1
     9     5    10    1
    10     5     6    1
