@<TRIPOS>MOLECULE
1z34_2FD_A_1.pdb
 19 21 0 0 0
SMALL
GASTEIGER

@<TRIPOS>ATOM
      1  O5'      -19.1010  -42.6760   -5.7350 O.3   300  2FD300     -0.2176
      2  C5'      -18.2610  -41.5530   -5.9760 C.3   300  2FD300      0.2141
      3  C4'      -16.8700  -41.7650   -5.3390 C.3   300  2FD300      0.1802
      4  O4'      -16.1410  -42.9610   -5.8020 O.3   300  2FD300     -0.3346
      5  C1'      -15.2860  -42.6540   -6.9280 C.3   300  2FD300      0.1981
      6  N9       -16.0250  -43.1800   -8.1550 N.pl3 300  2FD300     -0.2380
      7  C4       -16.7730  -42.5690   -9.1660 C.2   300  2FD300      0.2223
      8  N3       -17.0560  -41.2300   -9.3320 N.2   300  2FD300     -0.3001
      9  C2       -17.8170  -40.9500  -10.4200 C.1   300  2FD300      0.2998
     10  F        -18.1340  -39.7110  -10.6520 F     300  2FD300     -0.0976
     11  N1       -18.2890  -41.8500  -11.3040 N.2   300  2FD300     -0.2971
     12  C6       -17.9980  -43.1690  -11.1210 C.2   300  2FD300      0.2545
     13  N6       -18.4690  -44.0280  -11.9940 N.pl3 300  2FD300     -0.0903
     14  C5       -17.2010  -43.5740  -10.0040 C.2   300  2FD300      0.1707
     15  N7       -16.7550  -44.7890   -9.5670 N.2   300  2FD300     -0.2401
     16  C8       -16.0910  -44.4690   -8.5030 C.3   300  2FD300      0.2238
     17  C2'      -15.1080  -41.1090   -6.8090 C.3   300  2FD300      0.0865
     18  C3'      -15.9100  -40.5960   -5.5770 C.3   300  2FD300      0.1858
     19  O3'      -15.1230  -40.4790   -4.4170 O.3   300  2FD300     -0.2203
@<TRIPOS>BOND
     1    13    12    1
     2    11    12    2
     3    11     9    2
     4    12    14    1
     5    10     9    1
     6     9     8    2
     7    14    15    2
     8    14     7    1
     9    15    16    1
    10     8     7    2
    11     7     6    1
    12    16     6    1
    13     6     5    1
    14     5    17    1
    15     5     4    1
    16    17    18    1
    17     2     1    1
    18     2     3    1
    19     4     3    1
    20    18     3    1
    21    18    19    1
