@<TRIPOS>MOLECULE
1z35_2FA_A_1.pdb
 20 22 0 0 0
SMALL
GASTEIGER

@<TRIPOS>ATOM
      1  O5'      -19.2320  -42.6390   -5.8900 O.3   300  2FA300     -0.2176
      2  C5'      -18.3420  -41.5220   -6.0800 C.3   300  2FA300      0.2142
      3  C4'      -17.0170  -41.6980   -5.3220 C.3   300  2FA300      0.1828
      4  O4'      -16.2720  -42.9000   -5.6880 O.3   300  2FA300     -0.3325
      5  C1'      -15.3500  -42.6290   -6.7480 C.3   300  2FA300      0.2293
      6  N9       -16.0270  -43.1550   -7.9970 N.pl3 300  2FA300     -0.2359
      7  C4       -16.7240  -42.5070   -9.0510 C.2   300  2FA300      0.2224
      8  N3       -16.9730  -41.1410   -9.2190 N.2   300  2FA300     -0.3001
      9  C2       -17.6850  -40.8590  -10.3410 C.1   300  2FA300      0.2998
     10  F        -17.9800  -39.6120  -10.5970 F     300  2FA300     -0.0976
     11  N1       -18.1420  -41.7620  -11.2520 N.2   300  2FA300     -0.2971
     12  C6       -17.8760  -43.0960  -11.0540 C.2   300  2FA300      0.2545
     13  N6       -18.3200  -43.9670  -11.9340 N.pl3 300  2FA300     -0.0903
     14  C5       -17.1340  -43.5150   -9.9070 C.2   300  2FA300      0.1707
     15  N7       -16.7230  -44.7540   -9.4460 N.2   300  2FA300     -0.2401
     16  C8       -16.0930  -44.4590   -8.3420 C.3   300  2FA300      0.2238
     17  C2'      -15.0790  -41.0690   -6.6720 C.3   300  2FA300      0.2310
     18  O2'      -13.6650  -40.7170   -6.5350 O.3   300  2FA300     -0.2158
     19  C3'      -16.0010  -40.5520   -5.5010 C.3   300  2FA300      0.2159
     20  O3'      -15.2790  -40.4070   -4.2870 O.3   300  2FA300     -0.2175
@<TRIPOS>BOND
     1    13    12    1
     2    11    12    2
     3    11     9    2
     4    12    14    1
     5    10     9    1
     6     9     8    2
     7    14    15    2
     8    14     7    1
     9    15    16    1
    10     8     7    2
    11     7     6    1
    12    16     6    1
    13     6     5    1
    14     5    17    1
    15     5     4    1
    16    17    18    1
    17    17    19    1
    18     2     1    1
    19     2     3    1
    20     4     3    1
    21    19     3    1
    22    19    20    1
