@<TRIPOS>MOLECULE
1z36_FMC_A_1.pdb
 19 21 0 0 0
SMALL
GASTEIGER

@<TRIPOS>ATOM
      1  N1       -18.2040  -41.2980  -11.2220 N.2   300  FMC300     -0.0278
      2  C2       -17.7260  -40.4780  -10.3000 C.3   300  FMC300      0.3922
      3  N3       -17.0290  -40.9220   -9.2680 N.2   300  FMC300     -0.2155
      4  C4       -16.7940  -42.2350   -9.1360 C.2   300  FMC300      0.1251
      5  C5       -17.2740  -43.1310  -10.0790 C.2   300  FMC300      0.2111
      6  C6       -17.9990  -42.6220  -11.1500 C.2   300  FMC300      0.4334
      7  N6       -18.4730  -43.4330  -12.0920 N.pl3 300  FMC300      0.2178
      8  N7       -16.9050  -44.3510   -9.6930 N.2   300  FMC300     -0.1387
      9  N8       -16.2650  -44.3100   -8.6400 N.2   300  FMC300     -0.1480
     10  C9       -16.1470  -43.0520   -8.2200 C.2   300  FMC300      0.1291
     11  C1'      -15.4540  -42.6240   -6.9220 C.3   300  FMC300      0.1910
     12  C2'      -15.2900  -41.1050   -6.8040 C.3   300  FMC300      0.2173
     13  O2'      -13.9140  -40.7320   -6.6910 O.3   300  FMC300     -0.2173
     14  C3'      -16.0480  -40.7330   -5.5280 C.3   300  FMC300      0.2144
     15  O3'      -15.1500  -40.6480   -4.4180 O.3   300  FMC300     -0.2176
     16  C4'      -17.0200  -41.9030   -5.3720 C.3   300  FMC300      0.1814
     17  O4'      -16.2270  -43.0310   -5.7770 O.3   300  FMC300     -0.3446
     18  C5'      -18.2860  -41.7510   -6.2200 C.3   300  FMC300      0.2141
     19  O5'      -19.0800  -42.9330   -6.0920 O.3   300  FMC300     -0.2176
@<TRIPOS>BOND
     1     7     6    1
     2     1     6    2
     3     1     2    1
     4     6     5    1
     5     2     3    1
     6     5     8    2
     7     5     4    1
     8     8     9    1
     9     3     4    2
    10     4    10    1
    11     9    10    2
    12    10    11    1
    13    11    12    1
    14    11    17    1
    15    12    13    1
    16    12    14    1
    17    18    19    1
    18    18    16    1
    19    17    16    1
    20    14    16    1
    21    14    15    1
