@<TRIPOS>MOLECULE
1z37_ADN_A_1.pdb
 19 21 0 0 0
SMALL
GASTEIGER

@<TRIPOS>ATOM
      1  O5'      -19.0560  -42.5550   -5.8880 O.3   300  ADN300     -0.2176
      2  C5'      -18.1630  -41.4520   -6.0650 C.3   300  ADN300      0.2143
      3  C4'      -16.8880  -41.7150   -5.2580 C.3   300  ADN300      0.1851
      4  O4'      -16.1840  -42.8670   -5.7560 O.3   300  ADN300     -0.3134
      5  C3'      -15.8390  -40.6100   -5.3810 C.3   300  ADN300      0.2186
      6  O3'      -14.8430  -40.7470   -4.3620 O.3   300  ADN300     -0.2174
      7  C2'      -15.2430  -40.9210   -6.7560 C.3   300  ADN300      0.2570
      8  O2'      -13.8750  -40.5110   -6.8410 O.3   300  ADN300     -0.2130
      9  C1'      -15.3890  -42.4420   -6.8800 C.3   300  ADN300      0.3186
     10  N9       -15.9960  -42.8910   -8.1580 N.pl3 300  ADN300     -0.1439
     11  C8       -16.0300  -44.1570   -8.5720 C.3   300  ADN300      0.3377
     12  N7       -16.6920  -44.2450   -9.7250 N.2   300  ADN300     -0.2095
     13  C5       -17.0900  -43.0190  -10.0510 C.2   300  ADN300      0.2526
     14  C6       -17.8510  -42.4960  -11.0890 C.2   300  ADN300      0.4393
     15  N6       -18.3010  -43.2910  -12.0560 N.pl3 300  ADN300      0.2180
     16  N1       -18.1260  -41.1820  -11.1000 N.2   300  ADN300      0.0021
     17  C2       -17.6780  -40.3850  -10.1450 C.3   300  ADN300      0.5254
     18  N3       -16.9500  -40.8500   -9.1420 N.2   300  ADN300     -0.0055
     19  C4       -16.6420  -42.1540   -9.0600 C.2   300  ADN300      0.3518
@<TRIPOS>BOND
     1    15    14    1
     2    16    14    2
     3    16    17    1
     4    14    13    1
     5    17    18    1
     6    13    12    2
     7    13    19    1
     8    12    11    1
     9    18    19    2
    10    19    10    1
    11    11    10    1
    12    10     9    1
    13     9     7    1
    14     9     4    1
    15     8     7    1
    16     7     5    1
    17     2     1    1
    18     2     3    1
    19     4     3    1
    20     5     3    1
    21     5     6    1
