@<TRIPOS>MOLECULE
1z38_NOS_A_1.pdb
 19 21 0 0 0
SMALL
GASTEIGER

@<TRIPOS>ATOM
      1  N9       -16.1740  -43.0020   -8.1870 N.pl3 300  NOS300     -0.1435
      2  C4       -16.8090  -42.1890   -9.0290 C.2   300  NOS300      0.3528
      3  N3       -17.0240  -40.8630   -9.0190 N.2   300  NOS300     -0.0334
      4  C2       -17.7110  -40.2550   -9.9700 C.3   300  NOS300      0.4017
      5  N1       -18.2440  -40.9940  -11.0340 N.2   300  NOS300     -0.1458
      6  C6       -18.0370  -42.3790  -11.0780 C.1   300  NOS300      0.1792
      7  O6       -18.4950  -43.0520  -11.9990 O.2   300  NOS300     -0.2203
      8  C5       -17.3080  -42.9780  -10.0580 C.2   300  NOS300      0.2446
      9  N7       -16.9540  -44.2340   -9.8040 N.2   300  NOS300     -0.2054
     10  C8       -16.2650  -44.2410   -8.6650 C.3   300  NOS300      0.3382
     11  C5'      -18.3440  -41.7570   -6.2960 C.3   300  NOS300      0.2143
     12  O5'      -19.1650  -42.8910   -6.0030 O.3   300  NOS300     -0.2176
     13  C4'      -17.0540  -41.8490   -5.4780 C.3   300  NOS300      0.1851
     14  O4'      -16.2440  -42.9950   -5.7860 O.3   300  NOS300     -0.3134
     15  C1'      -15.4610  -42.6350   -6.9390 C.3   300  NOS300      0.3186
     16  C2'      -15.1960  -41.1320   -6.8060 C.3   300  NOS300      0.2570
     17  O2'      -13.8280  -40.9040   -6.4560 O.3   300  NOS300     -0.2130
     18  C3'      -16.1020  -40.6670   -5.6640 C.3   300  NOS300      0.2186
     19  O3'      -15.3290  -40.4780   -4.4760 O.3   300  NOS300     -0.2174
@<TRIPOS>BOND
     1     7     6    2
     2     6     5    2
     3     6     8    1
     4     5     4    1
     5     8     9    2
     6     8     2    1
     7     4     3    1
     8     9    10    1
     9     2     3    2
    10     2     1    1
    11    10     1    1
    12     1    15    1
    13    15    16    1
    14    15    14    1
    15    16    17    1
    16    16    18    1
    17    11    12    1
    18    11    13    1
    19    14    13    1
    20    18    13    1
    21    18    19    1
