@<TRIPOS>MOLECULE
1z39_2ND_A_1.pdb
 18 20 0 0 0
SMALL
GASTEIGER

@<TRIPOS>ATOM
      1  O6       -18.3250  -43.2930  -12.1560 O.2   300  2ND300     -0.2203
      2  C6       -17.9620  -42.5350  -11.2580 C.1   300  2ND300      0.1792
      3  N1       -18.2780  -41.1710  -11.3100 N.2   300  2ND300     -0.1458
      4  C2       -17.8400  -40.3270  -10.2820 C.3   300  2ND300      0.4017
      5  N3       -17.1380  -40.8180   -9.2750 N.2   300  2ND300     -0.0334
      6  C4       -16.8220  -42.1200   -9.1920 C.2   300  2ND300      0.3528
      7  C5       -17.2240  -43.0110  -10.1800 C.2   300  2ND300      0.2446
      8  N7       -16.7860  -44.2160   -9.8300 N.2   300  2ND300     -0.2054
      9  C8       -16.1400  -44.0950   -8.6740 C.3   300  2ND300      0.3381
     10  N9       -16.1580  -42.8250   -8.2780 N.pl3 300  2ND300     -0.1457
     11  C1'      -15.5760  -42.3270   -7.0080 C.3   300  2ND300      0.2874
     12  O4'      -16.2970  -42.8570   -5.8810 O.3   300  2ND300     -0.3154
     13  C2'      -15.6080  -40.7990   -6.8840 C.3   300  2ND300      0.1151
     14  C3'      -16.0440  -40.6030   -5.4320 C.3   300  2ND300      0.1884
     15  O3'      -14.9240  -40.7130   -4.5500 O.3   300  2ND300     -0.2202
     16  C4'      -17.0090  -41.7750   -5.2560 C.3   300  2ND300      0.1824
     17  C5'      -18.3480  -41.5620   -5.9670 C.3   300  2ND300      0.2142
     18  O5'      -19.0930  -42.7820   -5.9400 O.3   300  2ND300     -0.2176
@<TRIPOS>BOND
     1     1     2    2
     2     3     2    2
     3     3     4    1
     4     2     7    1
     5     4     5    1
     6     7     8    2
     7     7     6    1
     8     8     9    1
     9     5     6    2
    10     6    10    1
    11     9    10    1
    12    10    11    1
    13    11    13    1
    14    11    12    1
    15    13    14    1
    16    17    18    1
    17    17    16    1
    18    12    16    1
    19    14    16    1
    20    14    15    1
