@<TRIPOS>MOLECULE
1z3c_SA8_A_1.pdb
 27 29 0 0 0
SMALL
GASTEIGER

@<TRIPOS>ATOM
      1  N         13.3520   30.1670   91.2330 N.3   299  SA8299     -0.1208
      2  CA        13.9720   31.0910   92.2340 C.3   299  SA8299      0.1957
      3  C         13.1940   32.3900   92.3540 C.2   299  SA8299      0.3819
      4  O         12.1940   32.5580   91.6530 O.co2 299  SA8299     -0.2441
      5  OXT       13.6660   33.2230   93.2010 O.co2 299  SA8299     -0.2441
      6  CB        15.4110   31.4330   91.8530 C.3   299  SA8299      0.0479
      7  CG        15.9290   30.5380   90.8050 C.3   299  SA8299      0.0743
      8  ND        17.6110   30.8330   90.2350 N.3   299  SA8299     -0.2693
      9  CE        17.4310   32.3390   89.2770 C.3   299  SA8299      0.0897
     10  C5'       17.8040   29.6040   89.0590 C.3   299  SA8299      0.1049
     11  C4'       18.0040   28.2250   89.6270 C.3   299  SA8299      0.1682
     12  O4'       18.0560   27.3540   88.4990 O.3   299  SA8299     -0.3147
     13  C3'       19.3930   28.0230   90.2500 C.3   299  SA8299      0.2173
     14  O3'       19.1480   27.9260   91.6880 O.3   299  SA8299     -0.2175
     15  C2'       19.8710   26.6740   89.7340 C.3   299  SA8299      0.2569
     16  O2'       20.4780   25.7300   90.5810 O.3   299  SA8299     -0.2130
     17  C1'       18.6330   26.2000   88.9530 C.3   299  SA8299      0.3186
     18  N9        18.9140   25.3370   87.8390 N.pl3 299  SA8299     -0.1439
     19  C8        19.7200   25.5360   86.7550 C.3   299  SA8299      0.3377
     20  N7        19.7330   24.5300   85.9260 N.2   299  SA8299     -0.2095
     21  C5        18.8730   23.6050   86.5050 C.2   299  SA8299      0.2526
     22  C6        18.4490   22.2990   86.1130 C.2   299  SA8299      0.4393
     23  N6        18.8890   21.7110   84.9710 N.pl3 299  SA8299      0.2180
     24  N1        17.5590   21.6140   86.9220 N.2   299  SA8299      0.0021
     25  C2        17.1320   22.2240   88.0610 C.3   299  SA8299      0.5254
     26  N3        17.4750   23.4500   88.5240 N.2   299  SA8299     -0.0055
     27  C4        18.3560   24.0920   87.6860 C.2   299  SA8299      0.3518
@<TRIPOS>BOND
     1    23    22    1
     2    20    21    2
     3    20    19    1
     4    22    21    1
     5    22    24    2
     6    21    27    1
     7    19    18    1
     8    24    25    1
     9    27    18    1
    10    27    26    2
    11    18    17    1
    12    25    26    1
    13    12    17    1
    14    12    11    1
    15    17    15    1
    16    10    11    1
    17    10     8    1
    18     9     8    1
    19    11    13    1
    20    15    13    1
    21    15    16    1
    22     8     7    1
    23    13    14    1
    24     7     6    1
    25     1     2    1
    26     4     3   ar
    27     6     2    1
    28     2     3    1
    29     3     5   ar
