@<TRIPOS>MOLECULE
1z3j_NGH_A_1.pdb
 40 40 0 0 0
SMALL
GASTEIGER

@<TRIPOS>ATOM
      1  C1         5.8860   -5.7600   -5.2560 C.ar  269  NGH269     -0.0319
      2  C2         5.7230   -5.7310   -3.8800 C.ar  269  NGH269     -0.0181
      3  C3         6.2720   -4.6790   -3.1570 C.ar  269  NGH269      0.1202
      4  C4         6.9760   -3.6680   -3.8150 C.ar  269  NGH269     -0.0181
      5  C5         7.1220   -3.7230   -5.1870 C.ar  269  NGH269     -0.0319
      6  C6         6.5820   -4.7640   -5.9320 C.ar  269  NGH269      0.1057
      7  O1         6.1980   -4.5290   -1.7870 O.3   269  NGH269     -0.4951
      8  C7         7.3200   -3.9920   -1.1330 C.3   269  NGH269      0.0788
      9  S1         6.8040   -4.8360   -7.7200 S.O2  269  NGH269      0.0612
     10  O2         8.2610   -4.9400   -7.9810 O.2   269  NGH269     -0.1528
     11  O3         5.9980   -5.9490   -8.2590 O.2   269  NGH269     -0.1528
     12  N          6.1950   -3.2670   -8.3020 N.3   269  NGH269     -0.1702
     13  C9         7.0600   -2.3800   -9.1350 C.3   269  NGH269      0.0233
     14  C10        5.0940   -2.5500   -7.5430 C.3   269  NGH269      0.0661
     15  C11        5.6450   -1.4570   -6.6760 C.2   269  NGH269      0.0714
     16  N1         4.8660   -0.5520   -6.0710 N.am  269  NGH269     -0.3100
     17  O4         5.2230    0.5390   -5.4600 O.3   269  NGH269     -0.4230
     18  O5         6.9100   -1.2980   -6.6500 O.2   269  NGH269     -0.5408
     19  C12        6.9630   -2.6650  -10.6380 C.3   269  NGH269     -0.0323
     20  C13        7.5810   -4.0070  -10.9930 C.3   269  NGH269     -0.0615
     21  C14        7.6860   -1.5510  -11.3790 C.3   269  NGH269     -0.0615
     22  H1         5.4530   -6.6050   -5.8210 H     269  NGH269      0.0638
     23  H2         5.1640   -6.5350   -3.3920 H     269  NGH269      0.0655
     24  H4         7.4140   -2.8440   -3.2530 H     269  NGH269      0.0655
     25  H5         7.6770   -2.9280   -5.7000 H     269  NGH269      0.0638
     26  H71        8.1470   -4.3370   -1.7600 H     269  NGH269      0.0660
     27  H72        7.4320   -4.3830   -0.1160 H     269  NGH269      0.0660
     28  H73        7.3040   -2.8960   -1.1040 H     269  NGH269      0.0660
     29  H91        8.1120   -2.4570   -8.7990 H     269  NGH269      0.0447
     30  H92        6.7030   -1.3120   -8.9220 H     269  NGH269      0.0447
     31 H101        4.5320   -3.2650   -6.9120 H     269  NGH269      0.0512
     32 H102        4.3720   -2.1650   -8.2970 H     269  NGH269      0.0512
     33  HN1        3.8950   -0.7540   -6.0570 H     269  NGH269      0.1546
     34  H12        5.8940   -2.6660  -10.9640 H     269  NGH269      0.0308
     35 H131        7.4300   -4.2510  -12.0550 H     269  NGH269      0.0233
     36 H132        8.6700   -3.9990  -10.8240 H     269  NGH269      0.0233
     37 H133        7.1470   -4.8240  -10.4020 H     269  NGH269      0.0233
     38 H141        7.8330   -1.7980  -12.4370 H     269  NGH269      0.0233
     39 H142        7.1050   -0.6160  -11.3490 H     269  NGH269      0.0233
     40 H143        8.6720   -1.3460  -10.9420 H     269  NGH269      0.0233
@<TRIPOS>BOND
     1    38    21    1
     2    35    20    1
     3    21    39    1
     4    21    40    1
     5    21    19    1
     6    20    36    1
     7    20    19    1
     8    20    37    1
     9    34    19    1
    10    19    13    1
    11    13    30    1
    12    13    29    1
    13    13    12    1
    14    12     9    1
    15    12    14    1
    16    32    14    1
    17    11     9    2
    18    10     9    2
    19     9     6    1
    20    14    31    1
    21    14    15    1
    22    15    18    2
    23    15    16   am
    24    16    33    1
    25    16    17    1
    26     6     1   ar
    27     6     5   ar
    28    22     1    1
    29    25     5    1
    30     1     2   ar
    31     5     4   ar
    32     2    23    1
    33     2     3   ar
    34     4    24    1
    35     4     3   ar
    36     3     7    1
    37     7     8    1
    38    26     8    1
    39     8    28    1
    40     8    27    1
