@<TRIPOS>MOLECULE
1z3n_3NA_A_1.pdb
 26 29 0 0 0
SMALL
GASTEIGER

@<TRIPOS>ATOM
      1  C2        16.3210   -9.5260   17.3440 C.ar  320  3NA320      0.0172
      2  C3        17.8950   -9.5600   14.8960 C.ar  320  3NA320      0.0012
      3  C4        17.1290   -8.4550   16.9420 C.ar  320  3NA320      0.0601
      4  C5        16.2760  -10.6570   16.5090 C.ar  320  3NA320      0.0015
      5  C6        17.1360  -10.6740   15.2800 C.ar  320  3NA320      0.0001
      6  C7        17.8160   -8.4250   15.7690 C.ar  320  3NA320      0.0137
      7  C11       18.4740   -7.1240   15.6720 C.ar  320  3NA320      0.0040
      8  C13       18.3420   -5.9430   13.4930 C.2   320  3NA320      0.1392
      9  S14       16.6480   -6.3470   13.4180 S.3   320  3NA320     -0.0731
     10  N15       17.3130   -7.2390   17.5630 N.ar  320  3NA320     -0.3162
     11  C16       18.1250   -6.4660   16.8150 C.ar  320  3NA320      0.0724
     12  C17       19.2850   -6.6000   14.5090 C.3   320  3NA320      0.0934
     13  F19       14.1620   -5.5470   11.6620 F     320  3NA320     -0.2075
     14  C20       16.6530   -6.8140   18.7860 C.3   320  3NA320      0.2211
     15  F22       18.8970   -3.0920   10.5270 F     320  3NA320     -0.1994
     16  F23       16.6530   -2.4180    9.1720 F     320  3NA320     -0.2017
     17  C24       17.6750   -4.6510   11.8350 C.2   320  3NA320      0.1551
     18  C25       15.3650   -3.9730   10.3590 C.2   320  3NA320      0.0585
     19  C26       17.7390   -3.7090   10.8220 C.2   320  3NA320      0.1938
     20  C27       16.4680   -5.2790   12.0980 C.3   320  3NA320      0.1581
     21  C28       15.3220   -4.9350   11.3600 C.2   320  3NA320      0.1368
     22  C29       16.5840   -3.3870   10.1330 C.2   320  3NA320      0.1716
     23  C32       15.4240   -5.8760   18.5050 C.2   320  3NA320      0.3875
     24  O33       14.9380   -5.3860   19.4690 O.co2 320  3NA320     -0.2435
     25  O34       15.1450   -5.6120   17.2800 O.co2 320  3NA320     -0.2435
     26  N36       18.7500   -5.0580   12.6350 N.2   320  3NA320     -0.4004
@<TRIPOS>BOND
     1    16    22    1
     2    22    18    1
     3    22    19    2
     4    18    21    2
     5    15    19    1
     6    19    17    1
     7    21    13    1
     8    21    20    1
     9    17    20    1
    10    17    26    2
    11    20     9    1
    12    26     8    2
    13     9     8    1
    14     8    12    1
    15    12     7    1
    16     2     5   ar
    17     2     6   ar
    18     5     4   ar
    19     7     6   ar
    20     7    11   ar
    21     6     3   ar
    22     4     1   ar
    23    11    10   ar
    24     3     1   ar
    25     3    10   ar
    26    25    23   ar
    27    10    14    1
    28    23    14    1
    29    23    24   ar
