@<TRIPOS>MOLECULE
1z3t_CBI_A_1.pdb
 23 24 0 0 0
SMALL
GASTEIGER

@<TRIPOS>ATOM
      1  C1         3.0130   10.7670   23.6450 C.3   500  CBI500      0.2695
      2  C2         4.2470    9.8970   23.2410 C.3   500  CBI500      0.2406
      3  C3         4.2060    8.6560   24.1070 C.3   500  CBI500      0.2198
      4  C4         4.0640    9.0070   25.5540 C.3   500  CBI500      0.2144
      5  C5         2.8220    9.8650   25.7890 C.3   500  CBI500      0.1835
      6  C6         2.6210   10.2410   27.2480 C.3   500  CBI500      0.2142
      7  O2         4.3390    9.5460   21.8170 O.3   500  CBI500     -0.2149
      8  O3         5.3420    7.7740   23.9190 O.3   500  CBI500     -0.2174
      9  O4         3.9450    7.7710   26.2830 O.3   500  CBI500     -0.2176
     10  O5         3.0240   11.0590   25.0590 O.3   500  CBI500     -0.3256
     11  O6         3.7610   10.8780   27.7330 O.3   500  CBI500     -0.2176
     12  C1'        0.7070   15.1070   21.7890 C.3   500  CBI500      0.3023
     13  C2'        0.9420   15.0460   23.2800 C.3   500  CBI500      0.2433
     14  C3'        2.0910   14.1440   23.5860 C.3   500  CBI500      0.2168
     15  C4'        1.8880   12.7720   22.8890 C.3   500  CBI500      0.1804
     16  C5'        1.6550   12.9800   21.4230 C.3   500  CBI500      0.1804
     17  C6'        1.3560   11.6520   20.7220 C.3   500  CBI500      0.2141
     18  O1'       -0.4770   15.8680   21.6060 O.3   500  CBI500     -0.1869
     19  O2'        1.3540   16.3480   23.6860 O.3   500  CBI500     -0.2148
     20  O3'        2.1700   13.9510   24.9750 O.3   500  CBI500     -0.2175
     21  O4'        3.0560   11.9980   23.0030 O.3   500  CBI500     -0.3257
     22  O5'        0.5240   13.8130   21.2330 O.3   500  CBI500     -0.3237
     23  O6'        0.4290   10.8570   21.4560 O.3   500  CBI500     -0.2176
@<TRIPOS>BOND
     1    17    16    1
     2    17    23    1
     3    22    16    1
     4    22    12    1
     5    16    15    1
     6    18    12    1
     7    12    13    1
     8     7     2    1
     9    15    21    1
    10    15    14    1
    11    21     1    1
    12     2     1    1
    13     2     3    1
    14    13    14    1
    15    13    19    1
    16    14    20    1
    17     1    10    1
    18     8     3    1
    19     3     4    1
    20    10     5    1
    21     4     5    1
    22     4     9    1
    23     5     6    1
    24     6    11    1
