@<TRIPOS>MOLECULE
1z3v_LAT_A_1.pdb
 23 24 0 0 0
SMALL
GASTEIGER

@<TRIPOS>ATOM
      1  C1         2.9850   10.7630   23.5020 C.3   500  LAT500      0.2699
      2  C2         4.1620    9.8390   23.3090 C.3   500  LAT500      0.2406
      3  C3         4.0790    8.6530   24.2540 C.3   500  LAT500      0.2198
      4  C4         3.9400    9.0860   25.7110 C.3   500  LAT500      0.2144
      5  C5         2.7600   10.0540   25.8470 C.3   500  LAT500      0.1835
      6  C6         2.5360   10.5430   27.2760 C.3   500  LAT500      0.2142
      7  O1         3.2220   12.0640   22.9290 O.3   500  LAT500     -0.3191
      8  O2         4.2250    9.4460   21.9390 O.3   500  LAT500     -0.2149
      9  O3         5.2520    7.8750   24.0550 O.3   500  LAT500     -0.2174
     10  O4         5.1590    9.6780   26.1360 O.3   500  LAT500     -0.2176
     11  O5         3.0490   11.1630   25.0140 O.3   500  LAT500     -0.3256
     12  O6         3.6490   11.3400   27.6390 O.3   500  LAT500     -0.2176
     13  C1'        0.6790   15.1230   21.8670 C.2   500  LAT500      0.3839
     14  C2'        1.1500   15.0860   23.1280 C.2   500  LAT500      0.3073
     15  C3'        1.9150   14.0440   23.5240 C.2   500  LAT500      0.2488
     16  C4'        2.0660   12.9460   22.7490 C.3   500  LAT500      0.2248
     17  C5'        1.5980   12.9320   21.5020 C.3   500  LAT500      0.2365
     18  C6'        1.5220   11.6540   20.6910 C.3   500  LAT500      0.2284
     19  O1'       -0.0950   15.9920   21.4360 O.2   500  LAT500     -0.2412
     20  O2'        1.2390   16.1490   23.7790 O.2   500  LAT500     -0.2764
     21  O3'        2.1730   13.9520   24.7440 O.2   500  LAT500     -0.2850
     22  O5'        0.5590   13.8640   21.1600 O.3   500  LAT500     -0.4411
     23  O6'        0.4600   10.8990   21.2640 O.3   500  LAT500     -0.2163
@<TRIPOS>BOND
     1    18    23    1
     2    18    17    1
     3    22    17    1
     4    22    13    1
     5    19    13    2
     6    17    16    1
     7    13    14    1
     8     8     2    1
     9    16     7    1
    10    16    15    1
    11     7     1    1
    12    14    15    1
    13    14    20    2
    14     2     1    1
    15     2     3    1
    16     1    11    1
    17    15    21    2
    18     9     3    1
    19     3     4    1
    20    11     5    1
    21     4     5    1
    22     4    10    1
    23     5     6    1
    24     6    12    1
