@<TRIPOS>MOLECULE
1z3w_IDC_A_1.pdb
 25 27 0 0 0
SMALL
GASTEIGER

@<TRIPOS>ATOM
      1  C1A        3.9750    9.4380   23.4730 C.3   600  IDC600      0.2695
      2  C2A        5.0620    8.6900   22.7150 C.3   600  IDC600      0.2406
      3  C3A        5.0320    7.2200   23.0960 C.3   600  IDC600      0.2198
      4  C4A        5.1820    7.0730   24.6140 C.3   600  IDC600      0.2144
      5  C5A        4.1160    7.8920   25.3410 C.3   600  IDC600      0.1835
      6  C6A        4.3940    7.8950   26.8350 C.3   600  IDC600      0.2142
      7  O2A        4.8960    8.8660   21.3160 O.3   600  IDC600     -0.2149
      8  O3A        6.0480    6.5230   22.3690 O.3   600  IDC600     -0.2174
      9  O4A        5.0270    5.7160   25.0120 O.3   600  IDC600     -0.2176
     10  O5A        4.1650    9.2310   24.8620 O.3   600  IDC600     -0.3256
     11  O6A        5.7070    8.4100   27.0340 O.3   600  IDC600     -0.2176
     12  C1B        1.5840   14.0820   23.2640 C.ar  600  IDC600      0.1538
     13  C2B        1.8270   13.4460   24.5940 C.3   600  IDC600      0.2404
     14  C3B        3.0830   12.6080   24.4380 C.3   600  IDC600      0.2183
     15  C4B        2.8940   11.6170   23.2790 C.3   600  IDC600      0.1742
     16  C5B        2.7030   12.3070   21.9290 C.3   600  IDC600      0.1493
     17  C6B        1.9010   11.4640   20.9260 C.3   600  IDC600      0.2071
     18  O2B        2.0540   14.4230   25.6000 O.3   600  IDC600     -0.2121
     19  O3B        3.3300   11.9490   25.6820 O.3   600  IDC600     -0.2172
     20  O4B        4.0650   10.8210   23.1740 O.3   600  IDC600     -0.3263
     21  N1B        1.9600   13.5510   22.1140 N.ar  600  IDC600     -0.3083
     22  O6B        0.7950   10.7580   21.4830 O.3   600  IDC600     -0.2182
     23  N2B        0.9500   15.2310   23.0400 N.ar  600  IDC600     -0.2266
     24  C7B        0.9550   15.4000   21.7140 C.ar  600  IDC600      0.1189
     25  C8B        1.5850   14.3660   21.1350 C.ar  600  IDC600      0.0979
@<TRIPOS>BOND
     1    17    22    1
     2    17    16    1
     3    25    24   ar
     4    25    21   ar
     5     7     2    1
     6    24    23   ar
     7    16    21    1
     8    16    15    1
     9    21    12   ar
    10     8     3    1
    11     2     3    1
    12     2     1    1
    13    23    12   ar
    14     3     4    1
    15    20    15    1
    16    20     1    1
    17    12    13    1
    18    15    14    1
    19     1    10    1
    20    14    13    1
    21    14    19    1
    22    13    18    1
    23     4     9    1
    24     4     5    1
    25    10     5    1
    26     5     6    1
    27     6    11    1
