@<TRIPOS>MOLECULE
1z3z_PLP_A_1.pdb
 15 15 0 0 0
SMALL
GASTEIGER

@<TRIPOS>ATOM
      1  N1        17.1840   52.3140   13.4190 N.2   434  PLP434     -0.2505
      2  C2        15.9820   52.6170   14.0740 C.2   434  PLP434      0.0675
      3  C2A       15.0360   53.6250   13.4960 C.3   434  PLP434      0.0499
      4  C3        15.6540   51.9570   15.2920 C.3   434  PLP434      0.1913
      5  O3        14.5210   52.3450   15.9900 O.3   434  PLP434     -0.2167
      6  C4        16.5100   50.9840   15.8200 C.3   434  PLP434      0.0581
      7  C4A       15.9330   49.9770   16.7620 C.3   434  PLP434      0.0075
      8  C5        17.7620   50.7240   15.1890 C.2   434  PLP434      0.0073
      9  C6        18.0730   51.3720   13.9500 C.2   434  PLP434      0.0921
     10  C5A       18.8770   49.9690   15.9260 C.3   434  PLP434      0.1776
     11  O4P       18.9790   48.6150   15.4090 O.3   434  PLP434     -0.2656
     12  P         19.6950   47.5500   16.1880 P.3   434  PLP434      0.5329
     13  O1P       19.1590   46.0900   15.7140 O.2   434  PLP434     -0.2224
     14  O2P       21.2690   47.6490   15.9010 O.3   434  PLP434     -0.1145
     15  O3P       19.4240   47.7510   17.7430 O.3   434  PLP434     -0.1145
@<TRIPOS>BOND
     1     1     9    1
     2     1     2    2
     3     3     2    1
     4     9     8    2
     5     2     4    1
     6     8     6    1
     7     8    10    1
     8     4     6    1
     9     4     5    1
    10    11    10    1
    11    11    12    1
    12    13    12    2
    13     6     7    1
    14    14    12    1
    15    12    15    1
