@<TRIPOS>MOLECULE
1z41_FMN_A_1.pdb
 31 33 0 0 0
SMALL
GASTEIGER

@<TRIPOS>ATOM
      1  N1        12.4100   56.9260   25.0150 N.2   1500  FMN1500    -0.2890
      2  C2        12.1980   57.6040   23.8550 C.1   1500  FMN1500     0.3669
      3  O2        11.6970   58.6970   23.8090 O.2   1500  FMN1500    -0.1744
      4  N3        12.5700   56.9710   22.6240 N.2   1500  FMN1500    -0.2300
      5  C4        13.1780   55.7540   22.5270 C.1   1500  FMN1500     0.2513
      6  O4        13.4320   55.2620   21.4110 O.2   1500  FMN1500    -0.2057
      7  C4A       13.4750   55.0530   23.7920 C.2   1500  FMN1500     0.2700
      8  N5        14.1030   53.8560   23.8150 N.2   1500  FMN1500    -0.3878
      9  C5A       14.0900   53.1260   24.9910 C.2   1500  FMN1500     0.1320
     10  C6        14.5670   51.7450   25.0070 C.2   1500  FMN1500     0.0250
     11  C7        14.5320   50.9530   26.1390 C.2   1500  FMN1500    -0.0238
     12  C7M       15.0160   49.4900   26.1270 C.3   1500  FMN1500     0.0308
     13  C8        13.9940   51.5110   27.3980 C.2   1500  FMN1500    -0.0280
     14  C8M       13.9000   50.6820   28.6630 C.3   1500  FMN1500     0.0304
     15  C9        13.5490   52.8350   27.4010 C.2   1500  FMN1500    -0.0041
     16  C9A       13.5750   53.6680   26.2580 C.3   1500  FMN1500     0.1497
     17  N10       13.1030   55.0170   26.2070 N.pl3 1500  FMN1500    -0.2691
     18  C10       12.9900   55.7290   25.0210 C.2   1500  FMN1500     0.2416
     19  C1'       12.5220   55.6470   27.3990 C.3   1500  FMN1500     0.1294
     20  C2'       11.0770   55.0910   27.5760 C.3   1500  FMN1500     0.2044
     21  O2'       10.1560   55.4200   26.5070 O.3   1500  FMN1500    -0.2185
     22  C3'       10.3990   55.5700   28.8370 C.3   1500  FMN1500     0.2164
     23  O3'       10.1920   57.0130   28.7400 O.3   1500  FMN1500    -0.2175
     24  C4'       11.2400   55.2900   30.0880 C.3   1500  FMN1500     0.2147
     25  O4'       11.6270   53.9000   30.1640 O.3   1500  FMN1500    -0.2176
     26  C5'       10.4170   55.6890   31.3480 C.3   1500  FMN1500     0.1892
     27  O5'        9.1950   54.8570   31.4640 O.3   1500  FMN1500    -0.2674
     28  P          9.0070   53.4550   32.1410 P.3   1500  FMN1500     0.5327
     29  O1P        9.4330   53.5930   33.5770 O.3   1500  FMN1500    -0.1145
     30  O2P        9.8710   52.4660   31.4040 O.2   1500  FMN1500    -0.2224
     31  O3P        7.4690   53.1620   31.9930 O.3   1500  FMN1500    -0.1145
@<TRIPOS>BOND
     1     6     5    2
     2     5     4    2
     3     5     7    1
     4     4     2    2
     5     7     8    2
     6     7    18    1
     7     3     2    2
     8     8     9    2
     9     2     1    2
    10     9    10    1
    11     9    16    1
    12    10    11    2
    13     1    18    2
    14    18    17    1
    15    12    11    1
    16    11    13    1
    17    17    16    1
    18    17    19    1
    19    16    15    1
    20    21    20    1
    21    13    15    2
    22    13    14    1
    23    19    20    1
    24    20    22    1
    25    23    22    1
    26    22    24    1
    27    24    25    1
    28    24    26    1
    29    26    27    1
    30    30    28    2
    31    27    28    1
    32    31    28    1
    33    28    29    1
