@<TRIPOS>MOLECULE
1z42_FMN_A_1.pdb
 31 33 0 0 0
SMALL
GASTEIGER

@<TRIPOS>ATOM
      1  N1        12.3130   56.7010   24.8790 N.2   1500  FMN1500    -0.2890
      2  C2        12.1320   57.4120   23.7270 C.1   1500  FMN1500     0.3669
      3  O2        11.6810   58.5340   23.7030 O.2   1500  FMN1500    -0.1744
      4  N3        12.4960   56.7850   22.4790 N.2   1500  FMN1500    -0.2300
      5  C4        13.0280   55.5220   22.3510 C.1   1500  FMN1500     0.2513
      6  O4        13.3050   55.0800   21.2360 O.2   1500  FMN1500    -0.2057
      7  C4A       13.2400   54.7540   23.6180 C.2   1500  FMN1500     0.2700
      8  N5        13.7640   53.5090   23.6300 N.2   1500  FMN1500    -0.3878
      9  C5A       13.8700   52.7990   24.8340 C.2   1500  FMN1500     0.1320
     10  C6        14.3790   51.4010   24.8450 C.2   1500  FMN1500     0.0250
     11  C7        14.4970   50.6330   26.0090 C.2   1500  FMN1500    -0.0238
     12  C7M       15.0240   49.1790   25.9860 C.3   1500  FMN1500     0.0308
     13  C8        14.0930   51.2390   27.3280 C.2   1500  FMN1500    -0.0280
     14  C8M       14.1780   50.4820   28.6410 C.3   1500  FMN1500     0.0304
     15  C9        13.6140   52.5620   27.3270 C.2   1500  FMN1500    -0.0041
     16  C9A       13.4830   53.3730   26.1480 C.3   1500  FMN1500     0.1497
     17  N10       12.9810   54.7440   26.0910 N.pl3 1500  FMN1500    -0.2691
     18  C10       12.8240   55.4560   24.8770 C.2   1500  FMN1500     0.2416
     19  C1'       12.4990   55.4250   27.3240 C.3   1500  FMN1500     0.1294
     20  C2'       11.0600   54.8560   27.5350 C.3   1500  FMN1500     0.2044
     21  O2'       10.1230   55.1280   26.4820 O.3   1500  FMN1500    -0.2185
     22  C3'       10.3120   55.3050   28.8040 C.3   1500  FMN1500     0.2164
     23  O3'        9.9850   56.7260   28.6840 O.3   1500  FMN1500    -0.2175
     24  C4'       11.1570   55.0880   30.0540 C.3   1500  FMN1500     0.2147
     25  O4'       11.5360   53.6990   30.1770 O.3   1500  FMN1500    -0.2176
     26  C5'       10.3910   55.4900   31.3030 C.3   1500  FMN1500     0.1892
     27  O5'        9.2450   54.6200   31.4790 O.3   1500  FMN1500    -0.2674
     28  P          8.9960   53.1800   32.0690 P.3   1500  FMN1500     0.5327
     29  O1P        9.3370   53.2540   33.5330 O.3   1500  FMN1500    -0.1145
     30  O2P        9.8390   52.1930   31.3080 O.2   1500  FMN1500    -0.2224
     31  O3P        7.4580   52.9330   31.8740 O.3   1500  FMN1500    -0.1145
@<TRIPOS>BOND
     1     6     5    2
     2     5     4    2
     3     5     7    1
     4     4     2    2
     5     7     8    2
     6     7    18    1
     7     8     9    2
     8     3     2    2
     9     2     1    2
    10     9    10    1
    11     9    16    1
    12    10    11    2
    13    18     1    2
    14    18    17    1
    15    12    11    1
    16    11    13    1
    17    17    16    1
    18    17    19    1
    19    16    15    1
    20    21    20    1
    21    19    20    1
    22    15    13    2
    23    13    14    1
    24    20    22    1
    25    23    22    1
    26    22    24    1
    27    24    25    1
    28    24    26    1
    29    26    27    1
    30    30    28    2
    31    27    28    1
    32    31    28    1
    33    28    29    1
