@<TRIPOS>MOLECULE
1z44_FMN_A_1.pdb
 31 33 0 0 0
SMALL
GASTEIGER

@<TRIPOS>ATOM
      1  N1        12.2960   56.7580   25.3010 N.2   1500  FMN1500    -0.2890
      2  C2        12.1060   57.4440   24.1320 C.1   1500  FMN1500     0.3669
      3  O2        11.6310   58.5500   24.0830 O.2   1500  FMN1500    -0.1744
      4  N3        12.4920   56.8090   22.8960 N.2   1500  FMN1500    -0.2300
      5  C4        13.0540   55.5590   22.7940 C.1   1500  FMN1500     0.2513
      6  O4        13.3450   55.1000   21.6850 O.2   1500  FMN1500    -0.2057
      7  C4A       13.2800   54.8250   24.0710 C.2   1500  FMN1500     0.2700
      8  N5        13.8360   53.6010   24.0970 N.2   1500  FMN1500    -0.3878
      9  C5A       13.9400   52.9010   25.2970 C.2   1500  FMN1500     0.1320
     10  C6        14.4720   51.5190   25.3150 C.2   1500  FMN1500     0.0250
     11  C7        14.5790   50.7570   26.4810 C.2   1500  FMN1500    -0.0238
     12  C7M       15.1280   49.3170   26.4710 C.3   1500  FMN1500     0.0308
     13  C8        14.1430   51.3520   27.7920 C.2   1500  FMN1500    -0.0280
     14  C8M       14.2190   50.5870   29.1020 C.3   1500  FMN1500     0.0304
     15  C9        13.6440   52.6640   27.7840 C.2   1500  FMN1500    -0.0041
     16  C9A       13.5220   53.4720   26.6020 C.3   1500  FMN1500     0.1497
     17  N10       12.9990   54.8300   26.5370 N.pl3 1500  FMN1500    -0.2691
     18  C10       12.8370   55.5270   25.3160 C.2   1500  FMN1500     0.2416
     19  C1'       12.5170   55.5140   27.7620 C.3   1500  FMN1500     0.1294
     20  C2'       11.0690   54.9690   27.9690 C.3   1500  FMN1500     0.2044
     21  O2'       10.1400   55.2740   26.9170 O.3   1500  FMN1500    -0.2185
     22  C3'       10.3420   55.4200   29.2430 C.3   1500  FMN1500     0.2164
     23  O3'       10.0520   56.8550   29.1390 O.3   1500  FMN1500    -0.2175
     24  C4'       11.1790   55.1670   30.4980 C.3   1500  FMN1500     0.2147
     25  O4'       11.5410   53.7690   30.6070 O.3   1500  FMN1500    -0.2176
     26  C5'       10.4110   55.5740   31.7550 C.3   1500  FMN1500     0.1892
     27  O5'        9.2410   54.7290   31.9340 O.3   1500  FMN1500    -0.2674
     28  P          8.9970   53.3080   32.5610 P.3   1500  FMN1500     0.5327
     29  O1P        9.3570   53.4060   34.0240 O.3   1500  FMN1500    -0.1145
     30  O2P        9.8320   52.3020   31.8260 O.2   1500  FMN1500    -0.2224
     31  O3P        7.4620   53.0520   32.3950 O.3   1500  FMN1500    -0.1145
@<TRIPOS>BOND
     1     6     5    2
     2     5     4    2
     3     5     7    1
     4     4     2    2
     5     7     8    2
     6     7    18    1
     7     3     2    2
     8     8     9    2
     9     2     1    2
    10     9    10    1
    11     9    16    1
    12     1    18    2
    13    10    11    2
    14    18    17    1
    15    12    11    1
    16    11    13    1
    17    17    16    1
    18    17    19    1
    19    16    15    1
    20    21    20    1
    21    19    20    1
    22    15    13    2
    23    13    14    1
    24    20    22    1
    25    23    22    1
    26    22    24    1
    27    24    25    1
    28    24    26    1
    29    26    27    1
    30    30    28    2
    31    27    28    1
    32    31    28    1
    33    28    29    1
