@<TRIPOS>MOLECULE
1z44_NPO_A_1.pdb
 10 10 0 0 0
SMALL
GASTEIGER

@<TRIPOS>ATOM
      1  C1        17.0380   54.6120   24.9860 C.ar  1506  NPO1506     0.1431
      2  C2        16.6280   55.5070   26.0210 C.ar  1506  NPO1506     0.0274
      3  C3        16.0370   56.7540   25.6750 C.ar  1506  NPO1506     0.0437
      4  C4        15.8270   57.0980   24.2980 C.ar  1506  NPO1506     0.1958
      5  C5        16.2520   56.2210   23.2440 C.ar  1506  NPO1506     0.0437
      6  C6        16.8600   54.9760   23.5900 C.ar  1506  NPO1506     0.0274
      7  OH        15.2100   58.2770   24.0070 O.3   1506  NPO1506    -0.2866
      8  N1        17.6460   53.3250   25.3600 N.pl3 1506  NPO1506     0.0577
      9  O2        17.8060   53.0080   26.5470 O.2   1506  NPO1506    -0.1261
     10  O3        17.9980   52.5460   24.4860 O.2   1506  NPO1506    -0.1261
@<TRIPOS>BOND
     1     5     6   ar
     2     5     4   ar
     3     6     1   ar
     4     7     4    1
     5     4     3   ar
     6    10     8    2
     7     1     8    1
     8     1     2   ar
     9     8     9    2
    10     3     2   ar
