@<TRIPOS>MOLECULE
1z45_GAL_A_1.pdb
 12 12 0 0 0
SMALL
GASTEIGER

@<TRIPOS>ATOM
      1  C1        68.1180   39.6780   28.2360 C.3   700  GAL700      0.3024
      2  C2        68.9700   39.5900   29.5050 C.3   700  GAL700      0.2434
      3  C3        70.3790   39.1470   29.1370 C.3   700  GAL700      0.2199
      4  C4        70.2990   37.7300   28.5340 C.3   700  GAL700      0.2144
      5  C5        69.3710   37.7940   27.2970 C.3   700  GAL700      0.1836
      6  C6        68.9590   36.4070   26.7940 C.3   700  GAL700      0.2142
      7  O1        66.7850   39.9980   28.6160 O.3   700  GAL700     -0.1869
      8  O2        69.0200   40.8310   30.2100 O.3   700  GAL700     -0.2148
      9  O3        71.1920   39.1570   30.3380 O.3   700  GAL700     -0.2174
     10  O4        69.7190   36.8150   29.5010 O.3   700  GAL700     -0.2176
     11  O5        68.0730   38.3660   27.6520 O.3   700  GAL700     -0.3236
     12  O6        69.9950   35.8960   25.9780 O.3   700  GAL700     -0.2176
@<TRIPOS>BOND
     1    12     6    1
     2     6     5    1
     3     5    11    1
     4     5     4    1
     5    11     1    1
     6     1     7    1
     7     1     2    1
     8     4     3    1
     9     4    10    1
    10     3     2    1
    11     3     9    1
    12     2     8    1
