@<TRIPOS>MOLECULE
1z45_GUD_A_1.pdb
 36 38 0 0 0
SMALL
GASTEIGER

@<TRIPOS>ATOM
      1  N1        18.0180   26.3790   -4.1470 N.am  704  GUD704     -0.1766
      2  C2        18.1330   27.5300   -4.8910 C.1   704  GUD704      0.2845
      3  N3        19.4080   27.7780   -5.3860 N.2   704  GUD704     -0.2452
      4  C4        20.5570   26.9770   -5.2160 C.1   704  GUD704      0.2182
      5  C5        20.3020   25.8130   -4.4410 C.2   704  GUD704      0.1242
      6  C6        19.1160   25.5500   -3.9500 C.2   704  GUD704      0.0929
      7  O2        17.1740   28.2680   -5.0840 O.2   704  GUD704     -0.1918
      8  O4        21.6580   27.2810   -5.6940 O.2   704  GUD704     -0.2085
      9  C1D       16.6890   26.0280   -3.5770 C.3   704  GUD704      0.2401
     10  C2D       16.4330   24.5330   -3.6590 C.3   704  GUD704      0.2319
     11  O2D       15.5180   24.2230   -4.7160 O.3   704  GUD704     -0.2157
     12  C3D       15.7210   24.1780   -2.3550 C.3   704  GUD704      0.2158
     13  C4D       16.3950   25.1610   -1.4440 C.3   704  GUD704      0.1799
     14  O4D       16.5210   26.3780   -2.2310 O.3   704  GUD704     -0.3320
     15  O3D       14.3350   24.4970   -2.4490 O.3   704  GUD704     -0.2175
     16  C5D       17.7120   24.7590   -0.8480 C.3   704  GUD704      0.1813
     17  O5D       18.3290   23.6820   -1.5520 O.3   704  GUD704     -0.3112
     18  PA        19.7080   23.2120   -0.8740 P.3   704  GUD704      0.2189
     19  O1A       20.8350   22.6400   -1.6800 O.2   704  GUD704     -0.5170
     20  O2A       20.2890   24.2450    0.0200 O.3   704  GUD704     -0.4371
     21  O3A       19.0690   21.9790    0.0200 O.3   704  GUD704     -0.2703
     22  PB        18.7490   20.5060   -0.3820 P.3   704  GUD704      0.2208
     23  O1B       17.3360   20.3180    0.0700 O.3   704  GUD704     -0.4371
     24  O2B       18.7830   20.3430   -1.8710 O.2   704  GUD704     -0.5170
     25  O3B       19.8080   19.3600    0.2070 O.3   704  GUD704     -0.2857
     26  C1'       20.3510   19.3530    1.5380 C.3   704  GUD704      0.2742
     27  C2'       21.7360   18.6460    1.5130 C.3   704  GUD704      0.2409
     28  C3'       21.8430   17.1980    2.0990 C.3   704  GUD704      0.2198
     29  C4'       20.8270   17.0660    3.2490 C.3   704  GUD704      0.2144
     30  C5'       19.5280   17.3670    2.5650 C.3   704  GUD704      0.1835
     31  C6'       18.3290   16.9020    3.3440 C.3   704  GUD704      0.2142
     32  O2'       22.2920   18.7060    0.1910 O.3   704  GUD704     -0.2149
     33  O3'       23.2040   16.8210    2.4940 O.3   704  GUD704     -0.2174
     34  O4'       20.6430   15.8500    3.9860 O.3   704  GUD704     -0.2176
     35  O5'       19.4330   18.7870    2.4990 O.3   704  GUD704     -0.3254
     36  O6'       17.2210   17.6800    2.8740 O.3   704  GUD704     -0.2176
@<TRIPOS>BOND
     1     8     4    2
     2     3     4    2
     3     3     2    2
     4     4     5    1
     5     7     2    2
     6     2     1   am
     7    11    10    1
     8     5     6    2
     9     1     6    1
    10     1     9    1
    11    10     9    1
    12    10    12    1
    13     9    14    1
    14    15    12    1
    15    12    13    1
    16    14    13    1
    17    24    22    2
    18    19    18    2
    19    17    18    1
    20    17    16    1
    21    13    16    1
    22    18    20    1
    23    18    21    1
    24    22    21    1
    25    22    23    1
    26    22    25    1
    27    32    27    1
    28    25    26    1
    29    27    26    1
    30    27    28    1
    31    26    35    1
    32    28    33    1
    33    28    29    1
    34    35    30    1
    35    30    29    1
    36    30    31    1
    37    36    31    1
    38    29    34    1
