@<TRIPOS>MOLECULE
1z45_NAD_A_1.pdb
 44 48 0 0 0
SMALL
GASTEIGER

@<TRIPOS>ATOM
      1  PA        31.9980   19.2010    5.0710 P.3   703  NAD703      0.2189
      2  O1A       32.5060   18.9710    3.6790 O.2   703  NAD703     -0.5170
      3  O2A       32.1850   20.5680    5.5380 O.3   703  NAD703     -0.4371
      4  O5B       32.6740   18.2140    6.1420 O.3   703  NAD703     -0.3112
      5  C5B       33.0740   16.8630    5.8100 C.3   703  NAD703      0.1813
      6  C4B       34.5620   16.7610    6.0520 C.3   703  NAD703      0.1821
      7  O4B       35.0140   15.3980    5.7410 O.3   703  NAD703     -0.3135
      8  C3B       35.4480   17.7230    5.2060 C.3   703  NAD703      0.2184
      9  O3B       36.2830   18.5560    6.0470 O.3   703  NAD703     -0.2174
     10  C2B       36.2530   16.7250    4.3370 C.3   703  NAD703      0.2570
     11  O2B       37.5510   17.2400    4.0140 O.3   703  NAD703     -0.2130
     12  C1B       36.2970   15.4900    5.2340 C.3   703  NAD703      0.3186
     13  N9A       36.5430   14.2770    4.5250 N.pl3 703  NAD703     -0.1439
     14  C8A       35.9400   13.8410    3.3620 C.3   703  NAD703      0.3377
     15  N7A       36.3020   12.5970    3.0140 N.2   703  NAD703     -0.2095
     16  C5A       37.2140   12.2290    3.9850 C.2   703  NAD703      0.2526
     17  C6A       37.9740   11.0490    4.1020 C.2   703  NAD703      0.4393
     18  N6A       37.8690   10.0310    3.2320 N.pl3 703  NAD703      0.2180
     19  N1A       38.8170   11.0280    5.1900 N.2   703  NAD703      0.0021
     20  C2A       38.8640   12.1390    6.0070 C.3   703  NAD703      0.5254
     21  N3A       38.2160   13.2800    5.9540 N.2   703  NAD703     -0.0055
     22  C4A       37.4100   13.2780    4.9020 C.2   703  NAD703      0.3518
     23  O3        30.4840   18.7660    5.1290 O.3   703  NAD703     -0.2703
     24  PN        29.4030   19.0190    6.2960 P.3   703  NAD703      0.2189
     25  O1N       28.3830   19.9570    5.7800 O.2   703  NAD703     -0.5170
     26  O2N       30.1740   19.4670    7.4890 O.3   703  NAD703     -0.4371
     27  O5D       28.8740   17.5400    6.4590 O.3   703  NAD703     -0.3112
     28  C5D       29.4160   16.7110    7.5100 C.3   703  NAD703      0.1813
     29  C4D       28.6910   15.3820    7.3810 C.3   703  NAD703      0.1799
     30  O4D       27.2570   15.6200    7.4630 O.3   703  NAD703     -0.3327
     31  C3D       28.8900   14.6180    6.0460 C.3   703  NAD703      0.2158
     32  O3D       28.9770   13.2030    6.2680 O.3   703  NAD703     -0.2175
     33  C2D       27.6450   15.0560    5.2440 C.3   703  NAD703      0.2309
     34  O2D       27.3140   14.0450    4.2760 O.3   703  NAD703     -0.2158
     35  C1D       26.6030   15.0790    6.3480 C.3   703  NAD703      0.2261
     36  N1N       25.3620   15.8450    6.0860 N.pl3 703  NAD703     -0.2831
     37  C2N       25.5370   17.1690    5.7390 C.2   703  NAD703      0.0633
     38  C3N       24.4460   17.8960    5.3050 C.2   703  NAD703      0.0490
     39  C7N       24.5600   19.3780    4.8830 C.2   703  NAD703      0.2814
     40  O7N       23.5800   19.9340    4.3960 O.2   703  NAD703     -0.2670
     41  N7N       25.6850   20.1260    5.0630 N.am  703  NAD703     -0.0839
     42  C4N       23.1130   17.3290    5.4520 C.3   703  NAD703      0.0341
     43  C5N       23.0750   16.0840    6.1390 C.3   703  NAD703      0.0264
     44  C6N       24.1150   15.2000    6.2630 C.3   703  NAD703      0.0934
@<TRIPOS>BOND
     1    15    14    1
     2    15    16    2
     3    18    17    1
     4    14    13    1
     5     2     1    2
     6    16    17    1
     7    16    22    1
     8    11    10    1
     9    17    19    2
    10    34    33    1
    11    10     8    1
    12    10    12    1
    13    40    39    2
    14    13    22    1
    15    13    12    1
    16    39    41   am
    17    39    38    1
    18    22    21    2
    19     1    23    1
    20     1     3    1
    21     1     4    1
    22    23    24    1
    23    19    20    1
    24     8     9    1
    25     8     6    1
    26    12     7    1
    27    33    31    1
    28    33    35    1
    29    38    42    1
    30    38    37    2
    31    42    43    1
    32    37    36    1
    33     7     6    1
    34    25    24    2
    35     5     6    1
    36     5     4    1
    37    21    20    1
    38    31    32    1
    39    31    29    1
    40    36    44    1
    41    36    35    1
    42    43    44    1
    43    24    27    1
    44    24    26    1
    45    35    30    1
    46    27    28    1
    47    29    30    1
    48    29    28    1
