@<TRIPOS>MOLECULE
1z48_FMN_A_1.pdb
 31 33 0 0 0
SMALL
GASTEIGER

@<TRIPOS>ATOM
      1  N1        12.3500   56.7100   24.8050 N.2   1500  FMN1500    -0.2890
      2  C2        12.1810   57.4070   23.6410 C.1   1500  FMN1500     0.3669
      3  O2        11.6450   58.4860   23.5800 O.2   1500  FMN1500    -0.1744
      4  N3        12.6650   56.8120   22.4200 N.2   1500  FMN1500    -0.2300
      5  C4        13.3000   55.5930   22.3260 C.1   1500  FMN1500     0.2513
      6  O4        13.6690   55.1770   21.2310 O.2   1500  FMN1500    -0.2057
      7  C4A       13.4950   54.8400   23.5980 C.2   1500  FMN1500     0.2700
      8  N5        14.1060   53.6320   23.6350 N.2   1500  FMN1500    -0.3878
      9  C5A       14.0860   52.8730   24.8080 C.2   1500  FMN1500     0.1320
     10  C6        14.5740   51.4650   24.8140 C.2   1500  FMN1500     0.0250
     11  C7        14.5660   50.6540   25.9570 C.2   1500  FMN1500    -0.0238
     12  C7M       15.0730   49.1940   25.9400 C.3   1500  FMN1500     0.0308
     13  C8        14.0420   51.2200   27.2550 C.2   1500  FMN1500    -0.0280
     14  C8M       13.9900   50.4130   28.5410 C.3   1500  FMN1500     0.0304
     15  C9        13.5830   52.5490   27.2560 C.2   1500  FMN1500    -0.0041
     16  C9A       13.5790   53.4070   26.1010 C.3   1500  FMN1500     0.1497
     17  N10       13.0990   54.7900   26.0440 N.pl3 1500  FMN1500    -0.2691
     18  C10       12.9620   55.5030   24.8290 C.2   1500  FMN1500     0.2416
     19  C1'       12.6120   55.4720   27.2640 C.3   1500  FMN1500     0.1294
     20  C2'       11.1470   54.9450   27.4300 C.3   1500  FMN1500     0.2044
     21  O2'       10.2360   55.2660   26.3640 O.3   1500  FMN1500    -0.2185
     22  C3'       10.3980   55.3910   28.6940 C.3   1500  FMN1500     0.2164
     23  O3'       10.1160   56.8220   28.5990 O.3   1500  FMN1500    -0.2175
     24  C4'       11.2260   55.1170   29.9420 C.3   1500  FMN1500     0.2147
     25  O4'       11.5480   53.7070   30.0320 O.3   1500  FMN1500    -0.2176
     26  C5'       10.4690   55.5260   31.1890 C.3   1500  FMN1500     0.1892
     27  O5'        9.3060   54.6770   31.3560 O.3   1500  FMN1500    -0.2674
     28  P          9.0420   53.2660   31.9920 P.3   1500  FMN1500     0.5327
     29  O1P        9.3970   53.3840   33.4400 O.3   1500  FMN1500    -0.1145
     30  O2P        9.8680   52.2340   31.2590 O.2   1500  FMN1500    -0.2224
     31  O3P        7.5010   53.0380   31.8190 O.3   1500  FMN1500    -0.1145
@<TRIPOS>BOND
     1     6     5    2
     2     5     4    2
     3     5     7    1
     4     4     2    2
     5     3     2    2
     6     7     8    2
     7     7    18    1
     8     8     9    2
     9     2     1    2
    10     1    18    2
    11     9    10    1
    12     9    16    1
    13    10    11    2
    14    18    17    1
    15    12    11    1
    16    11    13    1
    17    17    16    1
    18    17    19    1
    19    16    15    1
    20    21    20    1
    21    13    15    2
    22    13    14    1
    23    19    20    1
    24    20    22    1
    25    23    22    1
    26    22    24    1
    27    24    25    1
    28    24    26    1
    29    26    27    1
    30    30    28    2
    31    27    28    1
    32    31    28    1
    33    28    29    1
