@<TRIPOS>MOLECULE
1z4i_UMP_A_1.pdb
 20 21 0 0 0
SMALL
GASTEIGER

@<TRIPOS>ATOM
      1  N1        11.2200   40.8310   25.7820 N.am  1001  UMP1001    -0.1790
      2  C2        10.6440   40.8780   24.5160 C.1   1001  UMP1001     0.2844
      3  N3         9.6470   40.0020   24.1840 N.2   1001  UMP1001    -0.2452
      4  C4         9.1980   39.0830   25.0950 C.1   1001  UMP1001     0.2182
      5  C5         9.7800   38.9990   26.3730 C.2   1001  UMP1001     0.1242
      6  C6        10.8120   39.8800   26.7080 C.2   1001  UMP1001     0.0928
      7  O2        10.9900   41.7050   23.6700 O.2   1001  UMP1001    -0.1918
      8  O4         8.2880   38.3440   24.7140 O.2   1001  UMP1001    -0.2085
      9  C1'       12.3060   41.7830   26.0640 C.3   1001  UMP1001     0.2090
     10  C2'       11.9900   42.7360   27.2130 C.3   1001  UMP1001     0.0874
     11  C3'       13.3600   43.1450   27.6800 C.3   1001  UMP1001     0.1857
     12  C4'       14.2230   41.9520   27.2660 C.3   1001  UMP1001     0.1774
     13  O3'       13.8100   44.3460   27.0810 O.3   1001  UMP1001    -0.2203
     14  O4'       13.4710   41.0900   26.4210 O.3   1001  UMP1001    -0.3339
     15  C5'       14.6320   41.2130   28.5140 C.3   1001  UMP1001     0.1858
     16  O5'       15.2890   42.1550   29.3310 O.3   1001  UMP1001    -0.2675
     17  P         16.4590   41.5940   30.2850 P.3   1001  UMP1001     0.5327
     18  OP1       17.6110   41.2640   29.4190 O.2   1001  UMP1001    -0.2224
     19  OP2       16.7770   42.7190   31.2840 O.3   1001  UMP1001    -0.1145
     20  OP3       15.9720   40.2750   30.9470 O.3   1001  UMP1001    -0.1145
@<TRIPOS>BOND
     1     7     2    2
     2     3     2    2
     3     3     4    2
     4     2     1   am
     5     8     4    2
     6     4     5    1
     7     1     9    1
     8     1     6    1
     9     9    14    1
    10     9    10    1
    11     5     6    2
    12    14    12    1
    13    13    11    1
    14    10    11    1
    15    12    11    1
    16    12    15    1
    17    15    16    1
    18    16    17    1
    19    18    17    2
    20    17    20    1
    21    17    19    1
