@<TRIPOS>MOLECULE
1z4j_U2P_A_1.pdb
 21 22 0 0 0
SMALL
GASTEIGER

@<TRIPOS>ATOM
      1  O5'       13.2780   41.5130   24.2660 O.3   3001  U2P3001    -0.2176
      2  C5'       14.3060   42.3310   24.8070 C.3   3001  U2P3001     0.2142
      3  C4'       14.5730   42.0760   26.2940 C.3   3001  U2P3001     0.1828
      4  O4'       13.3990   42.4740   27.0640 O.3   3001  U2P3001    -0.3319
      5  C1'       13.1340   41.4960   28.1140 C.3   3001  U2P3001     0.2373
      6  N1        11.9810   40.6870   27.7520 N.am  3001  U2P3001    -0.1767
      7  C6        11.2350   40.8980   26.5640 C.2   3001  U2P3001     0.0929
      8  C5        10.1260   40.0890   26.2480 C.2   3001  U2P3001     0.1242
      9  C4         9.7670   39.0690   27.1210 C.1   3001  U2P3001     0.2182
     10  O4         8.8120   38.2970   26.9290 O.2   3001  U2P3001    -0.2085
     11  N3        10.4770   38.9050   28.3060 N.2   3001  U2P3001    -0.2452
     12  C2        11.5710   39.6980   28.6660 C.1   3001  U2P3001     0.2845
     13  O2        12.1640   39.5290   29.7340 O.2   3001  U2P3001    -0.1918
     14  C2'       14.4320   40.6560   28.1590 C.3   3001  U2P3001     0.2063
     15  O2'       15.2900   41.5380   28.8890 O.3   3001  U2P3001    -0.2656
     16  P         16.4870   41.0590   29.9100 P.3   3001  U2P3001     0.5327
     17  O1P       16.7020   42.3340   30.8780 O.3   3001  U2P3001    -0.1145
     18  O2P       16.1030   39.7120   30.6220 O.3   3001  U2P3001    -0.1145
     19  O3P       17.7710   40.9880   29.1270 O.2   3001  U2P3001    -0.2224
     20  C3'       14.7770   40.6020   26.6840 C.3   3001  U2P3001     0.2133
     21  O3'       16.1520   40.2250   26.4020 O.3   3001  U2P3001    -0.2176
@<TRIPOS>BOND
     1     1     2    1
     2     2     3    1
     3     8     7    2
     4     8     9    1
     5     3    20    1
     6     3     4    1
     7    21    20    1
     8     7     6    1
     9    20    14    1
    10    10     9    2
    11     4     5    1
    12     9    11    2
    13     6     5    1
    14     6    12   am
    15     5    14    1
    16    14    15    1
    17    11    12    2
    18    12    13    2
    19    15    16    1
    20    19    16    2
    21    16    18    1
    22    16    17    1
