@<TRIPOS>MOLECULE
1z4k_T3P_A_1.pdb
 21 22 0 0 0
SMALL
GASTEIGER

@<TRIPOS>ATOM
      1  P         16.4620   41.4900   30.4830 P.3   4341  T3P4341     0.5326
      2  OP1       17.6850   41.1450   29.5710 O.2   4341  T3P4341    -0.2224
      3  OP2       15.8540   40.2050   31.1010 O.3   4341  T3P4341    -0.1145
      4  OP3       16.7500   42.5530   31.5660 O.3   4341  T3P4341    -0.1145
      5  O5'       13.7480   41.0440   25.6940 O.3   4341  T3P4341    -0.2176
      6  C5'       14.1950   42.3650   26.1220 C.3   4341  T3P4341     0.2140
      7  C4'       14.0930   42.5980   27.6470 C.3   4341  T3P4341     0.1775
      8  O4'       12.7370   42.4620   28.0330 O.3   4341  T3P4341    -0.3339
      9  C3'       14.8750   41.4870   28.3050 C.3   4341  T3P4341     0.1601
     10  O3'       15.3020   42.1460   29.5380 O.3   4341  T3P4341    -0.2700
     11  C2'       13.8520   40.5130   28.7900 C.3   4341  T3P4341     0.0847
     12  C1'       12.5260   41.2810   28.7980 C.3   4341  T3P4341     0.2089
     13  N1        11.3790   40.5260   28.3620 N.am  4341  T3P4341    -0.1794
     14  C2        10.8950   39.5100   29.2110 C.1   4341  T3P4341     0.2844
     15  O2        11.4690   39.3370   30.3250 O.2   4341  T3P4341    -0.1918
     16  N3         9.8440   38.8020   28.8000 N.2   4341  T3P4341    -0.2455
     17  C4         9.2630   38.9670   27.5930 C.1   4341  T3P4341     0.2134
     18  O4         8.2790   38.2740   27.2040 O.2   4341  T3P4341    -0.2088
     19  C5         9.7840   40.0350   26.7390 C.2   4341  T3P4341     0.0891
     20  C5M        9.1690   40.3280   25.4680 C.3   4341  T3P4341     0.0462
     21  C6        10.8450   40.8030   27.1690 C.2   4341  T3P4341     0.0877
@<TRIPOS>BOND
     1    20    19    1
     2     5     6    1
     3     6     7    1
     4    19    21    2
     5    19    17    1
     6    21    13    1
     7    18    17    2
     8    17    16    2
     9     7     8    1
    10     7     9    1
    11     8    12    1
    12     9    11    1
    13     9    10    1
    14    13    12    1
    15    13    14   am
    16    11    12    1
    17    16    14    2
    18    14    15    2
    19    10     1    1
    20     2     1    2
    21     1     3    1
    22     1     4    1
