@<TRIPOS>MOLECULE
1z4l_TMP_A_1.pdb
 21 22 0 0 0
SMALL
GASTEIGER

@<TRIPOS>ATOM
      1  P         16.7040   39.8550   28.9810 P.3   1001  TMP1001     0.5327
      2  O1P       15.9460   39.6190   30.3450 O.3   1001  TMP1001    -0.1145
      3  O2P       17.2140   38.5890   28.2830 O.2   1001  TMP1001    -0.2224
      4  O3P       17.7990   40.9070   29.1340 O.3   1001  TMP1001    -0.1145
      5  O5'       15.5580   40.4100   27.9410 O.3   1001  TMP1001    -0.2675
      6  C5'       14.7610   41.4700   28.2950 C.3   1001  TMP1001     0.1858
      7  C4'       14.3000   42.1210   27.0040 C.3   1001  TMP1001     0.1774
      8  O4'       13.4430   41.1770   26.2750 O.3   1001  TMP1001    -0.3339
      9  C3'       13.4450   43.2310   27.5760 C.3   1001  TMP1001     0.1857
     10  O3'       13.8540   44.4320   26.8690 O.3   1001  TMP1001    -0.2203
     11  C2'       12.0350   42.8040   27.1710 C.3   1001  TMP1001     0.0874
     12  C1'       12.2900   41.9690   25.8870 C.3   1001  TMP1001     0.2090
     13  N1        11.1880   41.0380   25.5840 N.am  1001  TMP1001    -0.1794
     14  C2        10.6000   40.9890   24.3060 C.1   1001  TMP1001     0.2844
     15  O2        10.9480   41.7570   23.4030 O.2   1001  TMP1001    -0.1918
     16  N3         9.5840   40.0930   24.0700 N.2   1001  TMP1001    -0.2455
     17  C4         9.1080   39.2400   25.0660 C.1   1001  TMP1001     0.2134
     18  O4         8.2110   38.4390   24.8010 O.2   1001  TMP1001    -0.2088
     19  C5         9.7050   39.2840   26.3110 C.2   1001  TMP1001     0.0891
     20  C5M        9.2840   38.3090   27.4170 C.3   1001  TMP1001     0.0462
     21  C6        10.7200   40.1720   26.5960 C.2   1001  TMP1001     0.0877
@<TRIPOS>BOND
     1    15    14    2
     2    16    14    2
     3    16    17    2
     4    14    13   am
     5    18    17    2
     6    17    19    1
     7    13    12    1
     8    13    21    1
     9    12     8    1
    10    12    11    1
    11     8     7    1
    12    19    21    2
    13    19    20    1
    14    10     9    1
    15     7     9    1
    16     7     6    1
    17    11     9    1
    18     5     6    1
    19     5     1    1
    20     3     1    2
    21     1     4    1
    22     1     2    1
