@<TRIPOS>MOLECULE
1z4m_U5P_A_1.pdb
 21 22 0 0 0
SMALL
GASTEIGER

@<TRIPOS>ATOM
      1  N1        11.1400   40.6420   25.5290 N.am  1001  U5P1001    -0.1766
      2  C2        10.5690   40.6870   24.2280 C.1   1001  U5P1001     0.2845
      3  N3         9.6130   39.8080   23.8850 N.2   1001  U5P1001    -0.2452
      4  C4         9.1900   38.8600   24.7390 C.1   1001  U5P1001     0.2182
      5  C5         9.7460   38.7690   26.0250 C.2   1001  U5P1001     0.1242
      6  C6        10.7340   39.6810   26.3940 C.2   1001  U5P1001     0.0929
      7  O2        10.9170   41.5620   23.3910 O.2   1001  U5P1001    -0.1918
      8  O4         8.2960   38.0590   24.3580 O.2   1001  U5P1001    -0.2085
      9  C1'       12.1960   41.6230   25.8510 C.3   1001  U5P1001     0.2401
     10  C2'       12.0400   42.4520   27.1250 C.3   1001  U5P1001     0.2319
     11  O2'       11.2060   43.5980   26.9520 O.3   1001  U5P1001    -0.2157
     12  C3'       13.4700   42.8750   27.4190 C.3   1001  U5P1001     0.2158
     13  C4'       14.3250   41.7780   26.8190 C.3   1001  U5P1001     0.1801
     14  O3'       13.8390   44.1260   26.8080 O.3   1001  U5P1001    -0.2175
     15  O4'       13.4470   40.9490   26.0350 O.3   1001  U5P1001    -0.3320
     16  C5'       14.9970   40.9910   27.9440 C.3   1001  U5P1001     0.1859
     17  O5'       15.4160   41.8990   28.9940 O.3   1001  U5P1001    -0.2675
     18  P         16.5240   41.4090   30.0560 P.3   1001  U5P1001     0.5327
     19  O1P       17.7030   41.0730   29.1630 O.2   1001  U5P1001    -0.2224
     20  O2P       16.7820   42.5930   30.9550 O.3   1001  U5P1001    -0.1145
     21  O3P       15.9810   40.1490   30.6830 O.3   1001  U5P1001    -0.1145
@<TRIPOS>BOND
     1     7     2    2
     2     3     2    2
     3     3     4    2
     4     2     1   am
     5     8     4    2
     6     4     5    1
     7     1     9    1
     8     1     6    1
     9     9    15    1
    10     9    10    1
    11     5     6    2
    12    15    13    1
    13    14    12    1
    14    13    12    1
    15    13    16    1
    16    11    10    1
    17    10    12    1
    18    16    17    1
    19    17    18    1
    20    19    18    2
    21    18    21    1
    22    18    20    1
