@<TRIPOS>MOLECULE
1z4n_GL1_A_1.pdb
 16 16 0 0 0
SMALL
GASTEIGER

@<TRIPOS>ATOM
      1  C1         5.3660   -5.0040   12.9930 C.3   1220  GL11220     0.2781
      2  C2         4.1770   -4.0390   12.9810 C.3   1220  GL11220     0.2410
      3  C3         4.3350   -3.0040   11.8920 C.3   1220  GL11220     0.2198
      4  C4         5.6880   -2.2170   12.0570 C.3   1220  GL11220     0.2144
      5  C5         6.8150   -3.2490   12.0690 C.3   1220  GL11220     0.1835
      6  C6         8.1570   -2.5360   12.2870 C.3   1220  GL11220     0.2142
      7  O1         5.4440   -5.7050   11.7610 O.3   1220  GL11220    -0.2416
      8  O2         2.9240   -4.7720   12.8030 O.3   1220  GL11220    -0.2149
      9  O3         3.2360   -2.1080   11.8970 O.3   1220  GL11220    -0.2174
     10  O4         5.6200   -1.4030   13.2770 O.3   1220  GL11220    -0.2176
     11  O5         6.6050   -4.2260   13.1260 O.3   1220  GL11220    -0.3253
     12  O6         8.5430   -2.1310   10.9990 O.3   1220  GL11220    -0.2176
     13  P          4.8800   -7.2420   11.5720 P.3   1220  GL11220     0.5346
     14  O1P        5.3460   -7.8810   10.2060 O.2   1220  GL11220    -0.2223
     15  O2P        5.4980   -7.9990   12.8190 O.3   1220  GL11220    -0.1145
     16  O3P        3.2940   -7.3390   11.6960 O.3   1220  GL11220    -0.1145
@<TRIPOS>BOND
     1    14    13    2
     2    12     6    1
     3    13    16    1
     4    13     7    1
     5    13    15    1
     6     7     1    1
     7     3     9    1
     8     3     4    1
     9     3     2    1
    10     4     5    1
    11     4    10    1
    12     5     6    1
    13     5    11    1
    14     8     2    1
    15     2     1    1
    16     1    11    1
