@<TRIPOS>MOLECULE
1z4o_GL1_A_1.pdb
 16 16 0 0 0
SMALL
GASTEIGER

@<TRIPOS>ATOM
      1  C1         4.8630   -3.8340   13.1020 C.3   1220  GL11220     0.2781
      2  C2         3.7100   -2.8250   13.0430 C.3   1220  GL11220     0.2410
      3  C3         3.9590   -1.7790   11.9650 C.3   1220  GL11220     0.2198
      4  C4         5.3550   -1.0560   12.2000 C.3   1220  GL11220     0.2144
      5  C5         6.4450   -2.1610   12.2920 C.3   1220  GL11220     0.1835
      6  C6         7.8260   -1.5370   12.6670 C.3   1220  GL11220     0.2142
      7  O1         5.0270   -4.4990   11.8610 O.3   1220  GL11220    -0.2416
      8  O2         2.4500   -3.5190   12.8000 O.3   1220  GL11220    -0.2149
      9  O3         2.8970   -0.8310   11.9480 O.3   1220  GL11220    -0.2174
     10  O4         5.2700   -0.2130   13.3760 O.3   1220  GL11220    -0.2176
     11  O5         6.1030   -3.1090   13.3260 O.3   1220  GL11220    -0.3253
     12  O6         8.1120   -0.6170   11.6800 O.3   1220  GL11220    -0.2176
     13  P          4.3670   -5.9670   11.5460 P.3   1220  GL11220     0.5346
     14  O1P        4.8140   -6.4880   10.1390 O.2   1220  GL11220    -0.2223
     15  O2P        4.9190   -6.8730   12.6790 O.3   1220  GL11220    -0.1145
     16  O3P        2.8020   -5.9120   11.6510 O.3   1220  GL11220    -0.1145
@<TRIPOS>BOND
     1    14    13    2
     2    13    16    1
     3    13     7    1
     4    13    15    1
     5    12     6    1
     6     7     1    1
     7     9     3    1
     8     3     4    1
     9     3     2    1
    10     4     5    1
    11     4    10    1
    12     5     6    1
    13     5    11    1
    14     8     2    1
    15     2     1    1
    16     1    11    1
