@<TRIPOS>MOLECULE
1z4p_DGP_X_1.pdb
 23 25 0 0 0
SMALL
GASTEIGER

@<TRIPOS>ATOM
      1  P         16.6540   39.8080   28.6850 P.3     1  DGP1        0.5327
      2  OP1       17.7690   40.8180   29.0370 O.3     1  DGP1       -0.1145
      3  OP2       17.1540   38.5300   28.0630 O.2     1  DGP1       -0.2224
      4  OP3       15.8430   39.5440   30.0530 O.3     1  DGP1       -0.1145
      5  O5'       15.7040   40.6960   27.7620 O.3     1  DGP1       -0.2675
      6  C5'       14.6310   40.1070   27.1280 C.3     1  DGP1        0.1858
      7  C4'       13.5570   41.1700   26.9570 C.3     1  DGP1        0.1774
      8  O4'       12.6190   40.5850   26.0960 O.3     1  DGP1       -0.3347
      9  C3'       12.8330   41.5430   28.2600 C.3     1  DGP1        0.1857
     10  O3'       12.5860   42.9560   28.2710 O.3     1  DGP1       -0.2203
     11  C2'       11.4920   40.8800   28.0630 C.3     1  DGP1        0.0865
     12  C1'       11.3340   40.9690   26.5630 C.3     1  DGP1        0.1981
     13  N9        10.2880   39.9640   26.0450 N.pl3   1  DGP1       -0.2374
     14  C8         9.6110   39.0310   26.7130 C.3     1  DGP1        0.2245
     15  N7         8.7530   38.4070   25.8790 N.2     1  DGP1       -0.2322
     16  C5         8.8670   38.9400   24.6510 C.2     1  DGP1        0.2182
     17  C6         8.2720   38.7090   23.3940 C.1     1  DGP1        0.2372
     18  O6         7.3970   37.8620   23.1270 O.2     1  DGP1       -0.2069
     19  N1         8.7080   39.4860   22.3280 N.2     1  DGP1       -0.2485
     20  C2         9.6560   40.4660   22.4500 C.1     1  DGP1        0.2531
     21  N2        10.0180   41.1530   21.3710 N.pl3   1  DGP1       -0.0226
     22  N3        10.2530   40.6940   23.6840 N.2     1  DGP1       -0.3074
     23  C4         9.8570   39.9280   24.7770 C.2     1  DGP1        0.2299
@<TRIPOS>BOND
     1    21    20    1
     2    19    20    2
     3    19    17    2
     4    20    22    2
     5    18    17    2
     6    17    16    1
     7    22    23    2
     8    16    23    1
     9    16    15    2
    10    23    13    1
    11    15    14    1
    12    13    12    1
    13    13    14    1
    14     8    12    1
    15     8     7    1
    16    12    11    1
    17     7     6    1
    18     7     9    1
    19     6     5    1
    20     5     1    1
    21    11     9    1
    22     3     1    2
    23     9    10    1
    24     1     2    1
    25     1     4    1
