@<TRIPOS>MOLECULE
1z4q_D4M_A_1.pdb
 20 21 0 0 0
SMALL
GASTEIGER

@<TRIPOS>ATOM
      1  OP2       17.1530   38.8480   28.3320 O.2   1489  D4M1489    -0.2224
      2  P         16.4960   40.0730   29.0090 P.3   1489  D4M1489     0.5327
      3  OP1       17.6430   41.1810   29.1840 O.3   1489  D4M1489    -0.1145
      4  OP3       15.8680   39.8710   30.4000 O.3   1489  D4M1489    -0.1145
      5  O5'       15.3700   40.5740   27.9440 O.3   1489  D4M1489    -0.2673
      6  C5'       14.1890   41.2700   28.4420 C.3   1489  D4M1489     0.1877
      7  C4'       13.9210   42.3520   27.4070 C.3   1489  D4M1489     0.1693
      8  O4'       13.4800   41.6390   26.1760 O.3   1489  D4M1489    -0.3288
      9  C3'       12.7830   43.2590   27.8610 C.2   1489  D4M1489     0.0051
     10  C2'       11.8290   43.2240   26.9340 C.2   1489  D4M1489     0.0230
     11  C1'       12.2070   42.2680   25.7830 C.3   1489  D4M1489     0.2302
     12  N1        11.1630   41.2340   25.5440 N.am  1489  D4M1489    -0.1757
     13  C6        10.7030   40.4030   26.5980 C.2   1489  D4M1489     0.0880
     14  C5         9.7280   39.4350   26.3600 C.2   1489  D4M1489     0.0891
     15  C5M        9.3050   38.5260   27.5220 C.3   1489  D4M1489     0.0462
     16  C4         9.1640   39.2810   25.0700 C.1   1489  D4M1489     0.2134
     17  O4         8.3020   38.4300   24.7550 O.2   1489  D4M1489    -0.2088
     18  N3         9.6020   40.1080   24.0660 N.2   1489  D4M1489    -0.2455
     19  C2        10.5820   41.0620   24.2490 C.1   1489  D4M1489     0.2847
     20  O2        10.8930   41.7420   23.2690 O.2   1489  D4M1489    -0.1918
@<TRIPOS>BOND
     1    20    19    2
     2    18    19    2
     3    18    16    2
     4    19    12   am
     5    17    16    2
     6    16    14    1
     7    12    11    1
     8    12    13    1
     9    11     8    1
    10    11    10    1
    11     8     7    1
    12    14    13    2
    13    14    15    1
    14    10     9    2
    15     7     9    1
    16     7     6    1
    17     5     6    1
    18     5     2    1
    19     1     2    2
    20     2     3    1
    21     2     4    1
