@<TRIPOS>MOLECULE
1z4u_PH9_A_1.pdb
 32 36 0 0 0
SMALL
GASTEIGER

@<TRIPOS>ATOM
      1  CB2      -10.8320   55.7820   47.6710 C.ar  600  PH9600      0.0017
      2  CB3      -11.8860   56.1380   46.7730 C.ar  600  PH9600      0.0032
      3  CB4      -13.1200   56.6640   47.2650 C.ar  600  PH9600      0.0375
      4  CB6      -13.3020   56.8460   48.6600 C.ar  600  PH9600      0.1453
      5  CB5      -12.2210   56.4890   49.5260 C.ar  600  PH9600      0.0375
      6  CB1      -11.0330   55.9750   49.0310 C.ar  600  PH9600      0.0032
      7  C2        -8.4160   54.7970   47.8060 C.2   600  PH9600      0.1528
      8  C1        -9.5390   55.2420   47.1870 C.2   600  PH9600      0.0233
      9  N         -8.1930   54.7080   49.2050 N.am  600  PH9600     -0.1725
     10  C         -7.9010   55.7510   50.0280 C.2   600  PH9600      0.2448
     11  CO2       -7.2790   54.3120   46.9520 C.2   600  PH9600      0.4028
     12  O         -7.7860   56.9390   49.6670 O.2   600  PH9600     -0.2730
     13  OC1       -7.3810   54.5290   45.7200 O.co2 600  PH9600     -0.2391
     14  OC2       -6.3080   53.7140   47.4700 O.co2 600  PH9600     -0.2391
     15  OAB      -14.4880   57.3690   49.1480 O.3   600  PH9600     -0.4530
     16  CA1      -14.7360   57.6270   50.4940 C.ar  600  PH9600      0.1514
     17  CA2      -14.6250   58.9820   50.9660 C.ar  600  PH9600      0.0690
     18  CA3      -14.8730   59.2790   52.3570 C.ar  600  PH9600      0.0098
     19  CA4      -15.2180   58.2270   53.2740 C.ar  600  PH9600      0.0007
     20  CA5      -15.3290   56.8760   52.8170 C.ar  600  PH9600      0.0032
     21  CA6      -15.0850   56.5850   51.4410 C.ar  600  PH9600      0.0380
     22 BRA2      -14.1610   60.3490   49.7070 Br    600  PH9600     -0.0458
     23  CC4       -8.5850   55.4740   54.3960 C.3   600  PH9600      0.0000
     24  CC3       -7.2410   56.1230   53.9180 C.3   600  PH9600      0.0005
     25  CC5       -8.9010   54.2060   53.5190 C.3   600  PH9600      0.0005
     26  CC2       -7.4020   56.5610   52.4290 C.3   600  PH9600      0.0087
     27  CC6       -9.0480   54.6570   52.0300 C.3   600  PH9600      0.0087
     28  CC1       -7.7300   55.3330   51.5000 C.3   600  PH9600      0.0708
     29  C10       -7.7220   53.1640   53.6250 C.3   600  PH9600      0.0000
     30  CC8       -6.3920   53.8240   53.1410 C.3   600  PH9600      0.0005
     31  CC9       -6.0800   55.0760   54.0270 C.3   600  PH9600      0.0000
     32  CC7       -6.5710   54.2770   51.6570 C.3   600  PH9600      0.0087
@<TRIPOS>BOND
     1    13    11   ar
     2     2     3   ar
     3     2     1   ar
     4    11    14   ar
     5    11     7    1
     6     8     1    1
     7     8     7    2
     8     3     4   ar
     9     1     6   ar
    10     7     9    1
    11     4    15    1
    12     4     5   ar
    13     6     5   ar
    14    15    16    1
    15     9    10   am
    16    12    10    2
    17    22    17    1
    18    10    28    1
    19    16    17   ar
    20    16    21   ar
    21    17    18   ar
    22    21    20   ar
    23    28    32    1
    24    28    27    1
    25    28    26    1
    26    32    30    1
    27    27    25    1
    28    18    19   ar
    29    26    24    1
    30    20    19   ar
    31    30    29    1
    32    30    31    1
    33    25    29    1
    34    25    23    1
    35    24    31    1
    36    24    23    1
