@<TRIPOS>MOLECULE
1z4v_DAN_A_1.pdb
 20 20 0 0 0
SMALL
GASTEIGER

@<TRIPOS>ATOM
      1  C1       146.2730  -46.3110 -158.0210 C.2   601  DAN601      0.3914
      2  C2       145.8410  -45.1930 -158.7850 C.3   601  DAN601      0.2203
      3  C3       144.7000  -44.3510 -158.2830 C.3   601  DAN601      0.0760
      4  C4       144.5790  -43.0160 -159.0680 C.3   601  DAN601      0.1773
      5  C5       144.9520  -43.1970 -160.5230 C.3   601  DAN601      0.1552
      6  C6       146.4030  -43.7100 -160.5850 C.3   601  DAN601      0.1710
      7  C7       146.8540  -43.9600 -162.0370 C.3   601  DAN601      0.2134
      8  C8       148.3000  -44.4260 -162.1470 C.3   601  DAN601      0.2173
      9  C9       148.7100  -44.6780 -163.6140 C.3   601  DAN601      0.2175
     10  C10      143.9850  -41.6370 -162.1860 C.2   601  DAN601      0.2420
     11  C11      143.9560  -40.2480 -162.7710 C.3   601  DAN601      0.0964
     12  N5       144.8110  -41.8970 -161.1790 N.am  601  DAN601     -0.2020
     13  O1A      145.6320  -46.7250 -156.8870 O.co2 601  DAN601     -0.2430
     14  O1B      147.3210  -46.9670 -158.4000 O.co2 601  DAN601     -0.2430
     15  O4       143.2370  -42.5620 -158.9450 O.3   601  DAN601     -0.2211
     16  O6       146.4920  -44.9780 -159.8910 O.3   601  DAN601     -0.3429
     17  O7       146.0600  -44.9960 -162.6150 O.3   601  DAN601     -0.2176
     18  O8       149.1470  -43.4120 -161.6020 O.3   601  DAN601     -0.2175
     19  O9       148.5380  -43.5600 -164.4560 O.3   601  DAN601     -0.2175
     20  O10      143.1550  -42.5800 -162.7240 O.2   601  DAN601     -0.2733
@<TRIPOS>BOND
     1    19     9    1
     2     9     8    1
     3    11    10    1
     4    20    10    2
     5    17     7    1
     6    10    12   am
     7     8     7    1
     8     8    18    1
     9     7     6    1
    10    12     5    1
    11     6     5    1
    12     6    16    1
    13     5     4    1
    14    16     2    1
    15     4    15    1
    16     4     3    1
    17     2     3    1
    18     2     1    1
    19    14     1   ar
    20     1    13   ar
