@<TRIPOS>MOLECULE
1z4w_DAN_A_1.pdb
 20 20 0 0 0
SMALL
GASTEIGER

@<TRIPOS>ATOM
      1  C1       146.2670  -46.3120 -158.0310 C.2   601  DAN601      0.3914
      2  C2       145.8280  -45.2100 -158.7820 C.3   601  DAN601      0.2203
      3  C3       144.6950  -44.3330 -158.2990 C.3   601  DAN601      0.0760
      4  C4       144.5820  -43.0060 -159.0800 C.3   601  DAN601      0.1773
      5  C5       144.9520  -43.1950 -160.5360 C.3   601  DAN601      0.1552
      6  C6       146.4030  -43.7130 -160.5980 C.3   601  DAN601      0.1710
      7  C7       146.8540  -43.9640 -162.0450 C.3   601  DAN601      0.2134
      8  C8       148.3000  -44.4210 -162.1550 C.3   601  DAN601      0.2173
      9  C9       148.7180  -44.6840 -163.6150 C.3   601  DAN601      0.2175
     10  C10      144.0010  -41.6400 -162.2050 C.2   601  DAN601      0.2420
     11  C11      143.9750  -40.2490 -162.7880 C.3   601  DAN601      0.0964
     12  N5       144.8170  -41.8940 -161.1920 N.am  601  DAN601     -0.2020
     13  O1A      145.6080  -46.7200 -156.8740 O.co2 601  DAN601     -0.2430
     14  O1B      147.3090  -46.9800 -158.3880 O.co2 601  DAN601     -0.2430
     15  O4       143.2380  -42.5360 -158.9640 O.3   601  DAN601     -0.2211
     16  O6       146.4820  -44.9790 -159.9020 O.3   601  DAN601     -0.3429
     17  O7       146.0780  -45.0110 -162.6210 O.3   601  DAN601     -0.2176
     18  O8       149.1500  -43.4050 -161.6220 O.3   601  DAN601     -0.2175
     19  O9       148.5510  -43.5760 -164.4670 O.3   601  DAN601     -0.2175
     20  O10      143.1710  -42.5950 -162.7550 O.2   601  DAN601     -0.2733
@<TRIPOS>BOND
     1    19     9    1
     2     9     8    1
     3    11    10    1
     4    20    10    2
     5    17     7    1
     6    10    12   am
     7     8     7    1
     8     8    18    1
     9     7     6    1
    10    12     5    1
    11     6     5    1
    12     6    16    1
    13     5     4    1
    14    16     2    1
    15     4    15    1
    16     4     3    1
    17     2     3    1
    18     2     1    1
    19    14     1   ar
    20     1    13   ar
