@<TRIPOS>MOLECULE
1z4x_SLT_A_1.pdb
 43 45 0 0 0
SMALL
GASTEIGER

@<TRIPOS>ATOM
      1  O17      142.4710  -42.6870 -162.5280 O.2   923  SLT923     -0.2733
      2  C17      143.2670  -41.8240 -162.1350 C.2   923  SLT923      0.2420
      3  C18      143.3020  -40.5040 -162.8510 C.3   923  SLT923      0.0964
      4  N12      144.0630  -41.9430 -161.1070 N.am  923  SLT923     -0.2020
      5  C12      144.1940  -43.1240 -160.2670 C.3   923  SLT923      0.1554
      6  C13      145.6820  -43.5730 -160.3040 C.3   923  SLT923      0.1733
      7  O13      145.8490  -44.7830 -159.4940 O.3   923  SLT923     -0.3239
      8  C14      146.2070  -43.9120 -161.7040 C.3   923  SLT923      0.2135
      9  O14      145.5590  -45.0780 -162.1350 O.3   923  SLT923     -0.2176
     10  C15      147.6960  -44.1670 -161.6750 C.3   923  SLT923      0.2173
     11  O15      148.3020  -42.9170 -161.2920 O.3   923  SLT923     -0.2175
     12  C16      148.2190  -44.6120 -163.0490 C.3   923  SLT923      0.2175
     13  O16      147.7760  -43.7680 -164.1160 O.3   923  SLT923     -0.2175
     14  C11      143.7860  -42.9210 -158.8230 C.3   923  SLT923      0.1797
     15  O11      142.4150  -42.5390 -158.8360 O.3   923  SLT923     -0.2210
     16  C10      143.9490  -44.1670 -157.9660 C.3   923  SLT923      0.1028
     17  C9       144.8250  -45.2630 -158.6060 C.3   923  SLT923      0.2863
     18  C19      145.5190  -46.0810 -157.5030 C.2   923  SLT923      0.4152
     19  O20      146.7420  -46.2650 -157.4950 O.co2 923  SLT923     -0.2402
     20  O19      144.8060  -46.5650 -156.5920 O.co2 923  SLT923     -0.2402
     21  O9       143.9570  -46.1590 -159.3660 O.3   923  SLT923     -0.3229
     22  C3       144.2910  -47.5210 -159.6350 C.3   923  SLT923      0.1861
     23  C4       143.5010  -48.4550 -158.7020 C.3   923  SLT923      0.2113
     24  C5       143.8510  -49.9310 -158.9870 C.3   923  SLT923      0.1834
     25  O5       143.6230  -50.2310 -160.3580 O.3   923  SLT923     -0.3256
     26  C6       143.0550  -50.8470 -158.0730 C.3   923  SLT923      0.2142
     27  O6       143.4640  -52.1650 -158.4220 O.3   923  SLT923     -0.2176
     28  O4       142.1000  -48.1970 -158.8710 O.3   923  SLT923     -0.2177
     29  C2       144.0090  -47.9660 -161.0770 C.3   923  SLT923      0.2374
     30  O2       144.8100  -47.2230 -161.9720 O.3   923  SLT923     -0.2150
     31  C1       144.3850  -49.4240 -161.2570 C.3   923  SLT923      0.2694
     32  O1       144.1050  -49.7840 -162.5700 O.3   923  SLT923     -0.3257
     33  C4A      144.7360  -50.9300 -163.1280 C.3   923  SLT923      0.1804
     34  C5A      145.2510  -50.3810 -164.4800 C.3   923  SLT923      0.1804
     35  O5A      145.8520  -51.4400 -165.2360 O.3   923  SLT923     -0.3237
     36  C6A      146.3450  -49.3220 -164.3150 C.3   923  SLT923      0.2141
     37  O6A      145.8580  -48.0180 -164.0220 O.3   923  SLT923     -0.2176
     38  C3A      143.7120  -52.0420 -163.3550 C.3   923  SLT923      0.2168
     39  O3A      143.2470  -52.5870 -162.1120 O.3   923  SLT923     -0.2175
     40  C2A      144.4030  -53.1040 -164.1960 C.3   923  SLT923      0.2433
     41  O2A      143.4660  -54.1590 -164.4410 O.3   923  SLT923     -0.2148
     42  C1A      144.9180  -52.5120 -165.5290 C.3   923  SLT923      0.3023
     43  O1A      143.8400  -51.9660 -166.2690 O.3   923  SLT923     -0.1869
@<TRIPOS>BOND
     1    43    42    1
     2    42    35    1
     3    42    40    1
     4    35    34    1
     5    34    36    1
     6    34    33    1
     7    41    40    1
     8    36    37    1
     9    40    38    1
    10    13    12    1
    11    38    33    1
    12    38    39    1
    13    33    32    1
    14    12    10    1
    15     3     2    1
    16    32    31    1
    17     1     2    2
    18     2     4   am
    19     9     8    1
    20    30    29    1
    21     8    10    1
    22     8     6    1
    23    10    11    1
    24    31    29    1
    25    31    25    1
    26     4     5    1
    27    29    22    1
    28    25    24    1
    29     6     5    1
    30     6     7    1
    31     5    14    1
    32    22    21    1
    33    22    23    1
    34     7    17    1
    35    21    17    1
    36    24    23    1
    37    24    26    1
    38    28    23    1
    39    15    14    1
    40    14    16    1
    41    17    16    1
    42    17    18    1
    43    27    26    1
    44    18    19   ar
    45    18    20   ar
