@<TRIPOS>MOLECULE
1z4z_DAN_A_1.pdb
 20 20 0 0 0
SMALL
GASTEIGER

@<TRIPOS>ATOM
      1  C1       146.2530  -46.3190 -158.0570 C.2   601  DAN601      0.3914
      2  C2       145.8270  -45.2030 -158.8170 C.3   601  DAN601      0.2203
      3  C3       144.6930  -44.3220 -158.3040 C.3   601  DAN601      0.0760
      4  C4       144.5780  -42.9890 -159.0720 C.3   601  DAN601      0.1773
      5  C5       144.9450  -43.1730 -160.5340 C.3   601  DAN601      0.1552
      6  C6       146.3980  -43.7020 -160.6020 C.3   601  DAN601      0.1710
      7  C7       146.8540  -43.9620 -162.0460 C.3   601  DAN601      0.2134
      8  C8       148.3020  -44.4230 -162.1410 C.3   601  DAN601      0.2173
      9  C9       148.7170  -44.6840 -163.6090 C.3   601  DAN601      0.2175
     10  C10      143.9880  -41.6270 -162.1880 C.2   601  DAN601      0.2420
     11  C11      143.9540  -40.2400 -162.7740 C.3   601  DAN601      0.0964
     12  N5       144.8110  -41.8730 -161.1820 N.am  601  DAN601     -0.2020
     13  O1A      145.5980  -46.7470 -156.9280 O.co2 601  DAN601     -0.2430
     14  O1B      147.3220  -46.9720 -158.4500 O.co2 601  DAN601     -0.2430
     15  O4       143.2420  -42.5120 -158.9400 O.3   601  DAN601     -0.2211
     16  O6       146.4660  -44.9620 -159.9190 O.3   601  DAN601     -0.3429
     17  O7       146.0720  -45.0140 -162.6160 O.3   601  DAN601     -0.2176
     18  O8       149.1530  -43.3990 -161.6000 O.3   601  DAN601     -0.2175
     19  O9       148.5500  -43.5700 -164.4570 O.3   601  DAN601     -0.2175
     20  O10      143.1590  -42.5910 -162.7270 O.2   601  DAN601     -0.2733
@<TRIPOS>BOND
     1    19     9    1
     2     9     8    1
     3    11    10    1
     4    20    10    2
     5    17     7    1
     6    10    12   am
     7     8     7    1
     8     8    18    1
     9     7     6    1
    10    12     5    1
    11     6     5    1
    12     6    16    1
    13     5     4    1
    14    16     2    1
    15     4    15    1
    16     4     3    1
    17     2     3    1
    18     2     1    1
    19    14     1   ar
    20     1    13   ar
