@<TRIPOS>MOLECULE
1z50_DAN_A_1.pdb
 20 20 0 0 0
SMALL
GASTEIGER

@<TRIPOS>ATOM
      1  C1       146.0970  -46.3270 -158.1260 C.2   601  DAN601      0.3914
      2  C2       145.6420  -45.2330 -158.9250 C.3   601  DAN601      0.2203
      3  C3       144.5240  -44.3650 -158.4080 C.3   601  DAN601      0.0760
      4  C4       144.4560  -43.0090 -159.1580 C.3   601  DAN601      0.1773
      5  C5       144.7980  -43.1680 -160.6250 C.3   601  DAN601      0.1552
      6  C6       146.2310  -43.7460 -160.7120 C.3   601  DAN601      0.1710
      7  C7       146.6900  -43.9770 -162.1650 C.3   601  DAN601      0.2134
      8  C8       148.1250  -44.4790 -162.2580 C.3   601  DAN601      0.2173
      9  C9       148.5680  -44.7350 -163.7190 C.3   601  DAN601      0.2175
     10  C10      143.8980  -41.5270 -162.2530 C.2   601  DAN601      0.2420
     11  C11      143.9000  -40.1160 -162.7870 C.3   601  DAN601      0.0964
     12  N5       144.6940  -41.8360 -161.2330 N.am  601  DAN601     -0.2020
     13  O1A      145.3750  -46.8090 -157.0640 O.co2 601  DAN601     -0.2430
     14  O1B      147.2370  -46.8870 -158.3940 O.co2 601  DAN601     -0.2430
     15  O4       143.1380  -42.4850 -159.0010 O.3   601  DAN601     -0.2211
     16  O6       146.2510  -45.0470 -160.0560 O.3   601  DAN601     -0.3429
     17  O7       145.8870  -44.9840 -162.7700 O.3   601  DAN601     -0.2176
     18  O8       148.9900  -43.4930 -161.6820 O.3   601  DAN601     -0.2175
     19  O9       148.3860  -43.6360 -164.5810 O.3   601  DAN601     -0.2175
     20  O10      143.0670  -42.4420 -162.8540 O.2   601  DAN601     -0.2733
@<TRIPOS>BOND
     1    19     9    1
     2     9     8    1
     3    20    10    2
     4    11    10    1
     5    17     7    1
     6     8     7    1
     7     8    18    1
     8    10    12   am
     9     7     6    1
    10    12     5    1
    11     6     5    1
    12     6    16    1
    13     5     4    1
    14    16     2    1
    15     4    15    1
    16     4     3    1
    17     2     3    1
    18     2     1    1
    19    14     1   ar
    20     1    13   ar
