@<TRIPOS>MOLECULE
1z53_PP9_A_1.pdb
 42 46 0 0 0
SMALL
GASTEIGER

@<TRIPOS>ATOM
      1  CHA       25.7650   18.6050   27.0540 C.2   296  PP9296      0.0981
      2  CHB       22.6300   18.0760   23.2710 C.2   296  PP9296      0.0981
      3  CHC       25.0710   14.1750   21.7850 C.2   296  PP9296      0.1301
      4  CHD       28.0510   14.4980   25.6450 C.2   296  PP9296      0.1304
      5  NA        24.4190   18.0610   25.0290 N.2   296  PP9296     -0.3338
      6  C1A       24.7990   18.8720   26.0720 C.1   296  PP9296      0.0112
      7  C2A       23.9910   20.0870   26.0050 C.2   296  PP9296      0.0404
      8  C3A       23.1120   19.9230   24.9550 C.2   296  PP9296      0.0402
      9  C4A       23.3730   18.6680   24.3540 C.1   296  PP9296      0.0112
     10  CMA       22.0950   20.9380   24.4720 C.3   296  PP9296      0.0418
     11  CAA       24.0030   21.1170   27.0630 C.3   296  PP9296      0.0482
     12  CBA       25.1730   22.0650   27.0760 C.3   296  PP9296      0.1194
     13  CGA       25.0570   23.0120   28.2260 C.2   296  PP9296      0.3652
     14  O1A       23.9590   23.6260   28.4120 O.co2 296  PP9296     -0.2456
     15  O2A       26.0590   23.2050   28.9460 O.co2 296  PP9296     -0.2456
     16  NB        24.2330   16.3390   22.6230 N.2   296  PP9296     -0.3673
     17  C1B       23.1720   17.1960   22.3650 C.2   296  PP9296      0.1469
     18  C2B       22.5810   16.7740   21.1460 C.2   296  PP9296      0.0141
     19  C3B       23.1030   15.5510   20.8380 C.2   296  PP9296      0.0333
     20  C4B       24.2120   15.2820   21.7360 C.1   296  PP9296      0.0084
     21  CMB       21.4320   17.5220   20.5260 C.3   296  PP9296      0.0341
     22  CAB       22.7380   14.6220   19.8220 C.3   296  PP9296      0.0358
     23  CBB       21.4240   14.5220   19.2510 C.3   296  PP9296      0.0057
     24  NC        26.3800   14.6620   23.8190 N.2   296  PP9296     -0.3324
     25  C1C       26.1960   14.0530   22.5970 C.1   296  PP9296      0.0186
     26  C2C       27.1690   12.9950   22.4800 C.2   296  PP9296      0.0448
     27  C3C       28.0600   13.1480   23.5070 C.2   296  PP9296      0.0626
     28  C4C       27.5500   14.1550   24.3770 C.1   296  PP9296      0.0223
     29  CMC       27.3730   12.2110   21.1880 C.3   296  PP9296      0.0422
     30  CAC       29.3180   12.4560   23.7520 C.2   296  PP9296      0.0099
     31  CBC       29.5820   11.1460   23.4390 C.2   296  PP9296      0.0007
     32  ND        26.7670   16.5870   26.0450 N.2   296  PP9296     -0.3673
     33  C1D       27.5680   15.5270   26.4770 C.1   296  PP9296      0.0085
     34  C2D       27.9990   15.8580   27.7970 C.2   296  PP9296      0.0336
     35  C3D       27.2960   16.9240   28.2310 C.2   296  PP9296      0.0143
     36  C4D       26.5110   17.3860   27.1420 C.2   296  PP9296      0.1469
     37  CMD       28.7640   14.8580   28.6500 C.3   296  PP9296      0.0412
     38  CAD       27.3080   17.5690   29.6240 C.3   296  PP9296      0.0411
     39  CBD       28.3280   18.7350   29.6540 C.3   296  PP9296      0.1188
     40  CGD       28.3850   19.4750   30.9840 C.2   296  PP9296      0.3652
     41  O1D       29.0410   20.5530   30.9850 O.co2 296  PP9296     -0.2456
     42  O2D       27.8060   19.0400   31.9910 O.co2 296  PP9296     -0.2456
@<TRIPOS>BOND
     1    23    22    1
     2    22    19    1
     3    21    18    1
     4    19    18    2
     5    19    20    1
     6    18    17    1
     7    29    26    1
     8    20     3    2
     9    20    16    2
    10     3    25    1
    11    17    16    2
    12    17     2    1
    13    26    25    2
    14    26    27    1
    15    25    24    2
    16     2     9    2
    17    31    30    2
    18    27    30    1
    19    27    28    2
    20    24    28    2
    21     9     8    1
    22     9     5    2
    23    28     4    1
    24    10     8    1
    25     8     7    2
    26     5     6    2
    27     4    33    2
    28     7     6    1
    29     7    11    1
    30    32    33    2
    31    32    36    2
    32     6     1    2
    33    33    34    1
    34     1    36    1
    35    11    12    1
    36    12    13    1
    37    36    35    1
    38    34    35    2
    39    34    37    1
    40    13    14   ar
    41    13    15   ar
    42    35    38    1
    43    38    39    1
    44    39    40    1
    45    40    41   ar
    46    40    42   ar
