@<TRIPOS>MOLECULE
1z57_DBQ_A_1.pdb
 18 20 0 0 0
SMALL
GASTEIGER

@<TRIPOS>ATOM
      1  O1         7.1310   13.9730   27.1250 O.2     1  DBQ1       -0.2210
      2  C5         6.6870   13.2000   26.2570 C.1     1  DBQ1        0.1643
      3  N2         6.1700   12.0150   26.5210 N.2     1  DBQ1       -0.2016
      4  C6         5.6690   11.0200   25.5680 C.3     1  DBQ1        0.1384
      5  C7         4.7510   11.5530   24.4680 C.3     1  DBQ1        0.0358
      6  C4         6.8640   13.7830   24.9150 C.2     1  DBQ1        0.1451
      7  N1         7.5990   14.8810   24.7110 N.2     1  DBQ1       -0.2366
      8  C1         7.6730   15.1720   23.3980 C.2     1  DBQ1        0.0951
      9  C2         6.9670   14.2400   22.7070 C.2     1  DBQ1        0.0013
     10  C3         6.4690   13.2780   23.5940 C.3     1  DBQ1        0.0826
     11  C8         5.5940   12.1300   23.3450 C.3     1  DBQ1        0.0784
     12  C9         5.5070   11.6080   21.9670 C.2     1  DBQ1        0.2170
     13  N4         6.2030   11.9660   20.8730 N.2     1  DBQ1       -0.3168
     14  C11        5.7260   11.1600   19.9040 C.1     1  DBQ1        0.2522
     15  N5         6.2140   11.3100   18.6660 N.pl3   1  DBQ1       -0.0226
     16  N3         4.7690   10.2720   20.2010 N.2     1  DBQ1       -0.2479
     17  C10        4.6310   10.5130   21.5010 C.1     1  DBQ1        0.2425
     18  O2         3.8330    9.8360   22.2240 O.2     1  DBQ1       -0.2062
@<TRIPOS>BOND
     1    15    14    1
     2    14    16    2
     3    14    13    2
     4    16    17    2
     5    13    12    2
     6    17    12    1
     7    17    18    2
     8    12    11    1
     9     9     8    2
    10     9    10    1
    11    11    10    1
    12    11     5    1
    13     8     7    1
    14    10     6    1
    15     5     4    1
    16     7     6    2
    17     6     2    1
    18     4     3    1
    19     2     3    2
    20     2     1    2
