@<TRIPOS>MOLECULE
1z59_ADP_A_1.pdb
 27 29 0 0 0
SMALL
GASTEIGER

@<TRIPOS>ATOM
      1  PB        23.0520   51.2570   16.7720 P.3   2001  ADP2001     0.5373
      2  O1B       21.6950   51.1870   16.1470 O.2   2001  ADP2001    -0.2221
      3  O2B       23.9110   50.0700   16.2600 O.3   2001  ADP2001    -0.1143
      4  O3B       22.9270   51.2300   18.3140 O.3   2001  ADP2001    -0.1143
      5  PA        23.2470   53.7960   15.6100 P.3   2001  ADP2001     0.2231
      6  O1A       24.3800   54.6460   15.1930 O.3   2001  ADP2001    -0.4370
      7  O2A       22.4070   53.2910   14.4280 O.2   2001  ADP2001    -0.5169
      8  O3A       23.8510   52.5980   16.4240 O.3   2001  ADP2001    -0.2261
      9  O5'       22.3460   54.6340   16.6630 O.3   2001  ADP2001    -0.3111
     10  C5'       22.8790   55.1320   17.8740 C.3   2001  ADP2001     0.1813
     11  C4'       21.8160   55.1140   18.9730 C.3   2001  ADP2001     0.1821
     12  O4'       20.8830   56.1670   18.7970 O.3   2001  ADP2001    -0.3135
     13  C3'       20.9760   53.8450   18.9830 C.3   2001  ADP2001     0.2184
     14  O3'       21.5980   52.7940   19.6830 O.3   2001  ADP2001    -0.2174
     15  C2'       19.7080   54.3110   19.6470 C.3   2001  ADP2001     0.2570
     16  O2'       19.8520   54.2860   21.0460 O.3   2001  ADP2001    -0.2130
     17  C1'       19.6020   55.7650   19.2240 C.3   2001  ADP2001     0.3186
     18  N9        18.6010   55.9330   18.1450 N.pl3 2001  ADP2001    -0.1439
     19  C8        18.8310   56.2130   16.8200 C.3   2001  ADP2001     0.3377
     20  N7        17.6400   56.3210   16.1880 N.2   2001  ADP2001    -0.2095
     21  C5        16.6510   56.1240   17.0820 C.2   2001  ADP2001     0.2526
     22  C6        15.2650   56.1100   16.9650 C.2   2001  ADP2001     0.4393
     23  N6        14.6820   56.1990   15.7610 N.pl3 2001  ADP2001     0.2180
     24  N1        14.5060   55.8740   18.0910 N.2   2001  ADP2001     0.0021
     25  C2        15.1080   55.6480   19.3140 C.3   2001  ADP2001     0.5254
     26  N3        16.4840   55.6430   19.4140 N.2   2001  ADP2001    -0.0055
     27  C4        17.2420   55.8790   18.3210 C.2   2001  ADP2001     0.3518
@<TRIPOS>BOND
     1     7     5    2
     2     6     5    1
     3     5     8    1
     4     5     9    1
     5    23    22    1
     6     2     1    2
     7    20    19    1
     8    20    21    2
     9     3     1    1
    10     8     1    1
    11     9    10    1
    12     1     4    1
    13    19    18    1
    14    22    21    1
    15    22    24    2
    16    21    27    1
    17    10    11    1
    18    24    25    1
    19    18    27    1
    20    18    17    1
    21    27    26    2
    22    12    11    1
    23    12    17    1
    24    11    13    1
    25    13    15    1
    26    13    14    1
    27    17    15    1
    28    25    26    1
    29    15    16    1
