@<TRIPOS>MOLECULE
1z5a_ADP_A_1.pdb
 27 29 0 0 0
SMALL
GASTEIGER

@<TRIPOS>ATOM
      1  PB         4.5380   44.0250   79.2400 P.3   2001  ADP2001     0.5373
      2  O1B        3.7120   44.7440   80.2750 O.3   2001  ADP2001    -0.1143
      3  O2B        5.7200   43.3070   79.7780 O.3   2001  ADP2001    -0.1143
      4  O3B        4.8900   44.8930   78.0590 O.2   2001  ADP2001    -0.2221
      5  PA         2.0240   42.7570   78.6150 P.3   2001  ADP2001     0.2231
      6  O1A        1.6610   41.5440   77.7970 O.2   2001  ADP2001    -0.5169
      7  O2A        1.3810   42.7290   79.9830 O.3   2001  ADP2001    -0.4370
      8  O3A        3.6170   42.8430   78.6680 O.3   2001  ADP2001    -0.2261
      9  O5'        1.5310   44.0830   77.8440 O.3   2001  ADP2001    -0.3111
     10  C5'        1.7350   44.1810   76.4320 C.3   2001  ADP2001     0.1813
     11  C4'        1.7480   45.6280   75.9800 C.3   2001  ADP2001     0.1821
     12  O4'        0.3890   46.0140   75.8560 O.3   2001  ADP2001    -0.3135
     13  C3'        2.3350   46.5850   77.0140 C.3   2001  ADP2001     0.2184
     14  O3'        3.7150   46.8310   76.8380 O.3   2001  ADP2001    -0.2174
     15  C2'        1.5150   47.8410   76.8450 C.3   2001  ADP2001     0.2570
     16  O2'        2.0650   48.6600   75.8280 O.3   2001  ADP2001    -0.2130
     17  C1'        0.1990   47.3320   76.3350 C.3   2001  ADP2001     0.3186
     18  N9        -0.8540   47.3610   77.3890 N.pl3 2001  ADP2001    -0.1439
     19  C8        -1.3820   46.3040   78.0480 C.3   2001  ADP2001     0.3377
     20  N7        -2.3690   46.6980   78.8970 N.2   2001  ADP2001    -0.2095
     21  C5        -2.4690   48.0320   78.8090 C.2   2001  ADP2001     0.2526
     22  C6        -3.3000   49.0870   79.4480 C.2   2001  ADP2001     0.4393
     23  N6        -4.2290   48.7730   80.3890 N.pl3 2001  ADP2001     0.2180
     24  N1        -3.1150   50.3550   79.0350 N.2   2001  ADP2001     0.0021
     25  C2        -2.1800   50.6860   78.1080 C.3   2001  ADP2001     0.5254
     26  N3        -1.3810   49.7740   77.4930 N.2   2001  ADP2001    -0.0055
     27  C4        -1.4820   48.4700   77.8010 C.2   2001  ADP2001     0.3518
@<TRIPOS>BOND
     1    16    15    1
     2    12    11    1
     3    12    17    1
     4    11    10    1
     5    11    13    1
     6    17    15    1
     7    17    18    1
     8    10     9    1
     9    14    13    1
    10    15    13    1
    11    18    27    1
    12    18    19    1
    13    26    27    2
    14    26    25    1
    15     6     5    2
    16    27    21    1
    17     9     5    1
    18    19    20    1
    19     4     1    2
    20    25    24    1
    21     5     8    1
    22     5     7    1
    23     8     1    1
    24    21    20    2
    25    21    22    1
    26    24    22    2
    27     1     3    1
    28     1     2    1
    29    22    23    1
