@<TRIPOS>MOLECULE
1z5b_ADP_A_1.pdb
 27 29 0 0 0
SMALL
GASTEIGER

@<TRIPOS>ATOM
      1  PB        34.1950   24.6510  136.4090 P.3   1001  ADP1001     0.5373
      2  O1B       33.9920   23.5290  137.3590 O.3   1001  ADP1001    -0.1143
      3  O2B       33.0500   24.8120  135.3660 O.2   1001  ADP1001    -0.2221
      4  O3B       34.3870   25.9410  137.1970 O.3   1001  ADP1001    -0.1143
      5  PA        36.4850   23.1150  135.5470 P.3   1001  ADP1001     0.2231
      6  O1A       36.7490   22.5020  136.8630 O.3   1001  ADP1001    -0.4370
      7  O2A       37.7620   23.5650  134.8250 O.2   1001  ADP1001    -0.5169
      8  O3A       35.5320   24.4010  135.5740 O.3   1001  ADP1001    -0.2261
      9  O5'       35.7190   22.0190  134.6480 O.3   1001  ADP1001    -0.3111
     10  C5'       35.3050   22.3150  133.3290 C.3   1001  ADP1001     0.1813
     11  C4'       34.0030   21.5570  133.0450 C.3   1001  ADP1001     0.1821
     12  O4'       34.3200   20.1750  132.9770 O.3   1001  ADP1001    -0.3135
     13  C3'       32.9260   21.6690  134.1310 C.3   1001  ADP1001     0.2184
     14  O3'       32.0790   22.7890  133.9770 O.3   1001  ADP1001    -0.2174
     15  C2'       32.1610   20.3570  133.9550 C.3   1001  ADP1001     0.2570
     16  O2'       31.2250   20.4570  132.8990 O.3   1001  ADP1001    -0.2130
     17  C1'       33.2400   19.4060  133.4650 C.3   1001  ADP1001     0.3186
     18  N9        33.7440   18.5060  134.5240 N.pl3 1001  ADP1001    -0.1439
     19  C8        34.9240   18.6010  135.2250 C.3   1001  ADP1001     0.3377
     20  N7        35.0290   17.5320  136.0570 N.2   1001  ADP1001    -0.2095
     21  C5        33.9280   16.7440  135.8930 C.2   1001  ADP1001     0.2526
     22  C6        33.5100   15.5500  136.4860 C.2   1001  ADP1001     0.4393
     23  N6        34.1590   15.0030  137.5170 N.pl3 1001  ADP1001     0.2180
     24  N1        32.3260   14.9950  136.0760 N.2   1001  ADP1001     0.0021
     25  C2        31.5440   15.6040  135.1110 C.3   1001  ADP1001     0.5254
     26  N3        31.9530   16.7900  134.5300 N.2   1001  ADP1001    -0.0055
     27  C4        33.1220   17.3460  134.9190 C.2   1001  ADP1001     0.3518
@<TRIPOS>BOND
     1    16    15    1
     2    12    11    1
     3    12    17    1
     4    11    10    1
     5    11    13    1
     6    10     9    1
     7    17    15    1
     8    17    18    1
     9    15    13    1
    10    14    13    1
    11    18    27    1
    12    18    19    1
    13    26    27    2
    14    26    25    1
    15     9     5    1
    16     7     5    2
    17    27    21    1
    18    25    24    1
    19    19    20    1
    20     3     1    2
    21     5     8    1
    22     5     6    1
    23     8     1    1
    24    21    20    2
    25    21    22    1
    26    24    22    2
    27     1     4    1
    28     1     2    1
    29    22    23    1
