@<TRIPOS>MOLECULE
1z5c_ADP_A_1.pdb
 27 29 0 0 0
SMALL
GASTEIGER

@<TRIPOS>ATOM
      1  PB        33.7480   24.3580  137.1920 P.3   1001  ADP1001     0.5373
      2  O1B       33.5430   23.3870  138.2720 O.3   1001  ADP1001    -0.1143
      3  O2B       33.5800   25.8000  137.7560 O.3   1001  ADP1001    -0.1143
      4  O3B       32.7260   24.1480  136.0710 O.2   1001  ADP1001    -0.2221
      5  PA        36.1370   22.9470  136.6510 P.3   1001  ADP1001     0.2231
      6  O1A       37.3930   23.2360  135.9100 O.2   1001  ADP1001    -0.5169
      7  O2A       36.3480   22.5750  138.0860 O.3   1001  ADP1001    -0.4370
      8  O3A       35.1780   24.1990  136.5490 O.3   1001  ADP1001    -0.2261
      9  O5'       35.3520   21.7620  135.8250 O.3   1001  ADP1001    -0.3111
     10  C5'       35.1230   21.9040  134.4410 C.3   1001  ADP1001     0.1813
     11  C4'       33.9540   21.0290  134.0130 C.3   1001  ADP1001     0.1821
     12  O4'       34.3990   19.6750  134.0040 O.3   1001  ADP1001    -0.3135
     13  C3'       32.8180   21.0720  134.9940 C.3   1001  ADP1001     0.2184
     14  O3'       31.8890   22.1310  134.7440 O.3   1001  ADP1001    -0.2174
     15  C2'       32.1910   19.6890  134.8390 C.3   1001  ADP1001     0.2570
     16  O2'       31.2130   19.6990  133.8130 O.3   1001  ADP1001    -0.2130
     17  C1'       33.3350   18.8290  134.3770 C.3   1001  ADP1001     0.3186
     18  N9        33.7800   17.9390  135.4680 N.pl3 1001  ADP1001    -0.1439
     19  C8        34.9640   18.0130  136.1850 C.3   1001  ADP1001     0.3377
     20  N7        35.0300   16.9630  137.0460 N.2   1001  ADP1001    -0.2095
     21  C5        33.9140   16.2130  136.8830 C.2   1001  ADP1001     0.2526
     22  C6        33.4540   15.0300  137.5140 C.2   1001  ADP1001     0.4393
     23  N6        34.1670   14.4150  138.4870 N.pl3 1001  ADP1001     0.2180
     24  N1        32.2460   14.5010  137.0980 N.2   1001  ADP1001     0.0021
     25  C2        31.5160   15.0980  136.1030 C.3   1001  ADP1001     0.5254
     26  N3        31.9620   16.2680  135.4830 N.2   1001  ADP1001    -0.0055
     27  C4        33.1330   16.8140  135.8770 C.2   1001  ADP1001     0.3518
@<TRIPOS>BOND
     1    16    15    1
     2    12    11    1
     3    12    17    1
     4    11    10    1
     5    11    13    1
     6    17    15    1
     7    17    18    1
     8    10     9    1
     9    14    13    1
    10    15    13    1
    11    18    27    1
    12    18    19    1
    13    26    27    2
    14    26    25    1
    15     9     5    1
    16    27    21    1
    17     6     5    2
    18     4     1    2
    19    25    24    1
    20    19    20    1
    21     8     5    1
    22     8     1    1
    23     5     7    1
    24    21    20    2
    25    21    22    1
    26    24    22    2
    27     1     3    1
    28     1     2    1
    29    22    23    1
