@<TRIPOS>MOLECULE
1z5l_PBS_A_1.pdb
 42 42 0 0 0
SMALL
GASTEIGER

@<TRIPOS>ATOM
      1  C17        9.2930   -4.2850    8.0410 C.3   601  PBS601      0.0000
      2  C16       10.0880   -5.4110    8.7070 C.3   601  PBS601      0.0000
      3  C15        9.6020   -5.6540   10.1310 C.3   601  PBS601      0.0000
      4  C14       10.7010   -5.2940   11.1290 C.3   601  PBS601      0.0000
      5  C13       10.2450   -5.5810   12.5540 C.3   601  PBS601      0.0000
      6  C12       11.3920   -5.3400   13.5240 C.3   601  PBS601      0.0000
      7  C11       11.5980   -3.8370   13.7390 C.3   601  PBS601      0.0000
      8  C10       11.8980   -3.4920   15.1750 C.3   601  PBS601      0.0000
      9  C9        11.6520   -1.9870   15.3200 C.3   601  PBS601      0.0000
     10  C8        12.7290   -1.2490   16.1440 C.3   601  PBS601      0.0000
     11  C7        13.7480   -0.6220   15.2140 C.3   601  PBS601      0.0000
     12  C6        14.2630    0.7790   15.6300 C.3   601  PBS601      0.0001
     13  C5        14.5340    1.5220   14.3080 C.3   601  PBS601      0.0027
     14  C4        15.6110    2.6540   14.3340 C.3   601  PBS601      0.0356
     15  C3        17.0220    2.1140   14.0000 C.3   601  PBS601      0.1839
     16  O32       16.9560    1.1650   12.9360 O.3   601  PBS601     -0.2204
     17  C2        18.0150    3.2070   13.5770 C.3   601  PBS601      0.2043
     18  O1        17.6110    3.6420   12.2950 O.3   601  PBS601     -0.2185
     19  C1        18.1100    4.4390   14.5080 C.3   601  PBS601      0.1576
     20  N         18.4480    4.1210   15.9350 N.am  601  PBS601     -0.2019
     21  C18       17.9290    4.8480   16.9420 C.2   601  PBS601      0.2415
     22  O2        17.1610    5.7870   16.7660 O.2   601  PBS601     -0.2733
     23  C19       18.3160    4.4850   18.3690 C.3   601  PBS601      0.0868
     24  C20       17.5600    3.3060   18.9330 C.3   601  PBS601      0.0096
     25  C21       16.1420    3.5700   19.4310 C.3   601  PBS601      0.0005
     26  C22       15.3770    2.2410   19.2270 C.3   601  PBS601      0.0000
     27  C23       14.5700    1.8380   20.4630 C.3   601  PBS601      0.0000
     28  C24       13.2160    1.2120   20.1060 C.3   601  PBS601      0.0000
     29  C25       12.2470    1.2720   21.2870 C.3   601  PBS601      0.0000
     30  C         19.1340    5.4420   13.9500 C.3   601  PBS601      0.1691
     31  OC1       20.4000    4.7370   13.8590 O.3   601  PBS601     -0.3266
     32  CG1       21.6700    5.4610   13.6570 C.3   601  PBS601      0.2695
     33  OG        21.8600    6.4070   14.6820 O.3   601  PBS601     -0.3256
     34  CG        22.1240    5.8750   16.0300 C.3   601  PBS601      0.1835
     35  CG5       22.0940    7.1170   16.9230 C.3   601  PBS601      0.2142
     36  OG6       20.7040    7.3190   17.2450 O.3   601  PBS601     -0.2176
     37  CG4       23.3650    4.9650   16.1230 C.3   601  PBS601      0.2144
     38  OG5       24.6170    5.6800   15.9650 O.3   601  PBS601     -0.2176
     39  CG3       23.2460    3.9120   15.0310 C.3   601  PBS601      0.2198
     40  OG4       24.4600    3.1730   15.0000 O.3   601  PBS601     -0.2174
     41  CG2       22.9130    4.5260   13.6390 C.3   601  PBS601      0.2406
     42  OG3       22.6550    3.4590   12.7300 O.3   601  PBS601     -0.2149
@<TRIPOS>BOND
     1     1     2    1
     2     2     3    1
     3     3     4    1
     4     4     5    1
     5    18    17    1
     6     5     6    1
     7    42    41    1
     8    16    15    1
     9     6     7    1
    10    17    15    1
    11    17    19    1
    12    41    32    1
    13    41    39    1
    14    32    31    1
    15    32    33    1
    16     7     8    1
    17    31    30    1
    18    30    19    1
    19    15    14    1
    20    13    14    1
    21    13    12    1
    22    19    20    1
    23    33    34    1
    24    40    39    1
    25    39    37    1
    26     8     9    1
    27    11    12    1
    28    11    10    1
    29     9    10    1
    30    20    21   am
    31    38    37    1
    32    34    37    1
    33    34    35    1
    34    22    21    2
    35    35    36    1
    36    21    23    1
    37    23    24    1
    38    24    25    1
    39    26    25    1
    40    26    27    1
    41    28    27    1
    42    28    29    1
