@<TRIPOS>MOLECULE
1z5m_LI8_A_1.pdb
 35 37 0 0 0
SMALL
GASTEIGER

@<TRIPOS>ATOM
      1  C1        -8.7460   43.4960   43.4960 C.2   501  LI8501      0.1007
      2  C2        -7.3900   43.5560   43.9640 C.2   501  LI8501      0.2197
      3  N3        -6.7700   42.3830   44.2310 N.2   501  LI8501     -0.3187
      4  C4        -7.3610   41.1770   44.0690 C.1   501  LI8501      0.1709
      5  N5        -8.6250   41.1340   43.6130 N.2   501  LI8501     -0.1677
      6  C6        -9.3230   42.2380   43.3290 C.2   501  LI8501      0.1224
      7 BR7        -9.8060   44.9890   43.1270 Br    501  LI8501     -0.0432
      8  N8        -6.7680   40.0080   44.3260 N.pl3 501  LI8501     -0.1357
      9  C10       -5.5720   39.7600   44.8740 C.ar  501  LI8501      0.0839
     10  C11       -4.4620   40.6670   44.8930 C.ar  501  LI8501      0.0340
     11  C12       -3.2410   40.2990   45.5070 C.ar  501  LI8501      0.0762
     12  C13       -3.1410   39.0030   46.1000 C.ar  501  LI8501      0.0167
     13  C14       -4.2250   38.1020   46.0860 C.ar  501  LI8501      0.0027
     14  C15       -5.4340   38.4910   45.4780 C.ar  501  LI8501      0.0174
     15  N16       -2.2360   41.2050   45.5260 N.am  501  LI8501     -0.1622
     16  C18       -0.9940   41.0960   45.0570 C.2   501  LI8501      0.3275
     17  O19       -0.6370   40.0570   44.4640 O.2   501  LI8501     -0.2504
     18  N20       -0.0910   42.0830   45.2450 N.am  501  LI8501     -0.2626
     19  C21       -0.3450   43.3050   45.9240 C.3   501  LI8501      0.0951
     20  C22        0.9980   43.6460   46.6200 C.3   501  LI8501      0.0233
     21  C23        2.0170   42.6180   46.0440 C.3   501  LI8501      0.0233
     22  C24        1.2750   41.9940   44.8530 C.3   501  LI8501      0.0951
     23  N25       -6.7370   44.7340   44.1560 N.pl3 501  LI8501     -0.2085
     24  C27       -5.4410   44.8800   44.7410 C.3   501  LI8501      0.1167
     25  C28       -4.3080   44.6490   43.7190 C.3   501  LI8501      0.0468
     26  N29       -4.6850   46.9010   42.7280 N.am  501  LI8501     -0.2050
     27  C31       -3.8420   47.7490   43.3860 C.2   501  LI8501      0.2488
     28  O32       -2.7280   47.2800   43.8010 O.2   501  LI8501     -0.2729
     29  C33       -4.4230   45.5140   42.4440 C.3   501  LI8501      0.1170
     30  C34       -4.1590   49.2330   43.6380 C.3   501  LI8501      0.1420
     31  C35       -2.8220   50.0500   43.6160 C.3   501  LI8501      0.0185
     32  C36       -5.0880   49.8530   42.5270 C.3   501  LI8501      0.0185
     33  C37       -4.7640   49.4030   44.9870 C.2   501  LI8501      0.2681
     34  O38       -5.8370   50.0190   45.1910 O.2   501  LI8501     -0.2712
     35  N39       -4.1800   48.9110   46.0750 N.am  501  LI8501     -0.0874
@<TRIPOS>BOND
     1    29    26    1
     2    29    25    1
     3    32    30    1
     4    26    27   am
     5     7     1    1
     6     6     1    2
     7     6     5    1
     8    27    30    1
     9    27    28    2
    10     1     2    1
    11     5     4    2
    12    31    30    1
    13    30    33    1
    14    25    24    1
    15     2    23    1
    16     2     3    2
    17     4     3    2
    18     4     8    1
    19    23    24    1
    20     8     9    1
    21    17    16    2
    22    22    18    1
    23    22    21    1
    24     9    10   ar
    25     9    14   ar
    26    10    11   ar
    27    33    34    2
    28    33    35   am
    29    16    18   am
    30    16    15   am
    31    18    19    1
    32    14    13   ar
    33    11    15    1
    34    11    12   ar
    35    19    20    1
    36    21    20    1
    37    13    12   ar
