@<TRIPOS>MOLECULE
1z5n_SR1_A_1.pdb
 11 11 0 0 0
SMALL
GASTEIGER

@<TRIPOS>ATOM
      1  CS        56.7250   68.9460   22.7940 C.3   233  SR1233      0.0693
      2  S         56.0820   70.5720   23.2390 S.3   233  SR1233     -0.1367
      3  C5'       56.9650   71.5930   22.0480 C.3   233  SR1233      0.0899
      4  C4'       58.3910   71.8730   22.4770 C.3   233  SR1233      0.1616
      5  O4'       59.1430   72.3320   21.3170 O.3   233  SR1233     -0.3254
      6  C1'       59.4050   73.7200   21.4370 C.3   233  SR1233      0.3023
      7  O1'       60.7940   73.9190   21.7750 O.3   233  SR1233     -0.1869
      8  C2'       58.5130   74.2070   22.5730 C.3   233  SR1233      0.2433
      9  O2'       59.0230   75.3900   23.1370 O.3   233  SR1233     -0.2148
     10  C3'       58.5500   72.9950   23.4980 C.3   233  SR1233      0.2151
     11  O3'       59.8120   72.8700   24.1600 O.3   233  SR1233     -0.2176
@<TRIPOS>BOND
     1     5     6    1
     2     5     4    1
     3     6     7    1
     4     6     8    1
     5     3     4    1
     6     3     2    1
     7     4    10    1
     8     8     9    1
     9     8    10    1
    10     1     2    1
    11    10    11    1
