@<TRIPOS>MOLECULE
1z5n_ADE_A_1.pdb
 10 11 0 0 0
SMALL
GASTEIGER

@<TRIPOS>ATOM
      1  N9        56.8590   74.3760   19.3760 N.2   234  ADE234     -0.1914
      2  C8        56.7900   73.9650   18.0920 C.3   234  ADE234      0.2618
      3  N7        55.5290   73.9560   17.5920 N.2   234  ADE234     -0.2267
      4  C5        54.7600   74.3950   18.6370 C.2   234  ADE234      0.2303
      5  C6        53.3550   74.6170   18.7930 C.2   234  ADE234      0.4393
      6  N6        52.5110   74.3940   17.7980 N.pl3 234  ADE234      0.2185
      7  N1        52.9030   75.0740   20.0340 N.2   234  ADE234     -0.0265
      8  C2        53.7990   75.2900   21.0340 C.3   234  ADE234      0.4008
      9  N3        55.1610   75.1060   20.9740 N.2   234  ADE234     -0.1640
     10  C4        55.5580   74.6570   19.7470 C.1   234  ADE234      0.0579
@<TRIPOS>BOND
     1     3     2    1
     2     3     4    2
     3     6     5    1
     4     2     1    1
     5     4     5    1
     6     4    10    1
     7     5     7    2
     8     1    10    2
     9    10     9    2
    10     7     8    1
    11     9     8    1
