@<TRIPOS>MOLECULE
1z5o_MTA_A_1.pdb
 20 22 0 0 0
SMALL
GASTEIGER

@<TRIPOS>ATOM
      1  CS        55.9070   69.9460   22.6580 C.3   5233  MTA5233     0.0693
      2  S5'       55.3690   71.5600   23.3250 S.3   5233  MTA5233    -0.1367
      3  C5'       55.9700   72.6590   22.0000 C.3   5233  MTA5233     0.0899
      4  C4'       57.4460   73.0640   22.1730 C.3   5233  MTA5233     0.1630
      5  O4'       57.9140   73.5930   20.8990 O.3   5233  MTA5233    -0.3153
      6  C2'       57.4160   75.4510   22.3040 C.3   5233  MTA5233     0.2569
      7  O2'       58.2990   76.5580   22.7090 O.3   5233  MTA5233    -0.2130
      8  C3'       57.7060   74.1660   23.1990 C.3   5233  MTA5233     0.2168
      9  O3'       59.1280   74.1460   23.6210 O.3   5233  MTA5233    -0.2175
     10  C1'       57.6690   75.0540   20.8030 C.3   5233  MTA5233     0.3185
     11  N9        56.4410   75.2170   19.8050 N.pl3 5233  MTA5233    -0.1439
     12  C8        56.5200   74.9530   18.4530 C.3   5233  MTA5233     0.3377
     13  N7        55.3830   75.1310   17.7960 N.2   5233  MTA5233    -0.2095
     14  C5        54.4970   75.5350   18.7570 C.2   5233  MTA5233     0.2526
     15  C6        53.1060   75.8800   18.7200 C.2   5233  MTA5233     0.4393
     16  N6        52.3970   75.8360   17.5750 N.pl3 5233  MTA5233     0.2180
     17  N1        52.5060   76.2570   19.9270 N.2   5233  MTA5233     0.0021
     18  C2        53.2350   76.2880   21.0760 C.3   5233  MTA5233     0.5254
     19  N3        54.5540   75.9750   21.2140 N.2   5233  MTA5233    -0.0055
     20  C4        55.1210   75.6060   20.0090 C.2   5233  MTA5233     0.3518
@<TRIPOS>BOND
     1    16    15    1
     2    13    12    1
     3    13    14    2
     4    12    11    1
     5    15    14    1
     6    15    17    2
     7    14    20    1
     8    11    20    1
     9    11    10    1
    10    17    18    1
    11    20    19    2
    12    10     5    1
    13    10     6    1
    14     5     4    1
    15    18    19    1
    16     3     4    1
    17     3     2    1
    18     4     8    1
    19     6     7    1
    20     6     8    1
    21     1     2    1
    22     8     9    1
