@<TRIPOS>MOLECULE
1z5u_CMP_A_1.pdb
 22 25 0 0 0
SMALL
GASTEIGER

@<TRIPOS>ATOM
      1  P         49.0150   10.3460   79.9120 P.3   502  CMP502      0.2141
      2  O1P       49.3520   11.8000   79.9310 O.3   502  CMP502     -0.4373
      3  O2P       49.8710    9.3900   79.1510 O.2   502  CMP502     -0.5172
      4  O5'       48.9660    9.8210   81.4320 O.3   502  CMP502     -0.3114
      5  C5'       47.7440    9.7700   82.1890 C.3   502  CMP502      0.1812
      6  C4'       46.6430    9.3030   81.2920 C.3   502  CMP502      0.1793
      7  O4'       45.3560    9.2100   81.9340 O.3   502  CMP502     -0.3136
      8  C3'       46.4010   10.3200   80.2090 C.3   502  CMP502      0.1884
      9  O3'       47.5060   10.2060   79.3270 O.3   502  CMP502     -0.3111
     10  C2'       45.0540    9.8620   79.6610 C.3   502  CMP502      0.2541
     11  O2'       45.1750    8.7730   78.7680 O.3   502  CMP502     -0.2131
     12  C1'       44.3570    9.3760   80.9420 C.3   502  CMP502      0.3185
     13  N9        43.3280   10.2730   81.4590 N.pl3 502  CMP502     -0.1439
     14  C8        43.4670   11.5400   81.9700 C.3   502  CMP502      0.3377
     15  N7        42.3360   12.0770   82.3600 N.2   502  CMP502     -0.2095
     16  C5        41.3890   11.0960   82.0920 C.2   502  CMP502      0.2526
     17  C6        39.9940   11.0430   82.2890 C.2   502  CMP502      0.4393
     18  N6        39.2880   12.0310   82.8550 N.pl3 502  CMP502      0.2180
     19  N1        39.3410    9.9190   81.8910 N.2   502  CMP502      0.0021
     20  C2        40.0560    8.9200   81.3450 C.3   502  CMP502      0.5254
     21  N3        41.3730    8.8490   81.1250 N.2   502  CMP502     -0.0055
     22  C4        41.9850    9.9830   81.5270 C.2   502  CMP502      0.3518
@<TRIPOS>BOND
     1    11    10    1
     2     3     1    2
     3     9     1    1
     4     9     8    1
     5    10     8    1
     6    10    12    1
     7     1     2    1
     8     1     4    1
     9     8     6    1
    10    12    13    1
    11    12     7    1
    12    21    20    1
    13    21    22    2
    14     6     7    1
    15     6     5    1
    16    20    19    1
    17     4     5    1
    18    13    22    1
    19    13    14    1
    20    22    16    1
    21    19    17    2
    22    14    15    1
    23    16    17    1
    24    16    15    2
    25    17    18    1
