@<TRIPOS>MOLECULE
1z5v_GSP_A_1.pdb
 32 34 0 0 0
SMALL
GASTEIGER

@<TRIPOS>ATOM
      1  PG         9.5430  -13.3480   13.9420 P.3   2466  GSP2466     0.4340
      2  O3B       10.9330  -12.7580   14.5880 O.3   2466  GSP2466    -0.2405
      3  S1G       10.3090  -14.8310   13.0980 S.3   2466  GSP2466     0.0416
      4  O2G        8.6870  -13.4950   15.1440 O.3   2466  GSP2466    -0.1305
      5  O3G        9.0840  -12.5580   12.7610 O.2   2466  GSP2466    -0.2423
      6  PB        11.1070  -11.4560   15.6080 P.3   2466  GSP2466     0.2262
      7  O1B       10.3240  -10.4540   14.9210 O.2   2466  GSP2466    -0.5168
      8  O2B       10.7700  -11.6100   17.0570 O.3   2466  GSP2466    -0.4369
      9  PA        13.8070  -12.0820   16.1140 P.3   2466  GSP2466     0.2189
     10  O1A       13.7970  -12.0310   17.6100 O.3   2466  GSP2466    -0.4371
     11  O2A       13.7040  -13.3680   15.3480 O.2   2466  GSP2466    -0.5170
     12  O3A       12.6890  -11.1290   15.5700 O.3   2466  GSP2466    -0.2701
     13  O5'       15.1880  -11.3300   15.5970 O.3   2466  GSP2466    -0.3112
     14  C5'       15.8720  -11.6310   14.3310 C.3   2466  GSP2466     0.1813
     15  C4'       17.1950  -10.8850   14.3630 C.3   2466  GSP2466     0.1799
     16  O4'       17.5240  -10.4880   15.7430 O.3   2466  GSP2466    -0.3326
     17  C3'       18.4120  -11.7720   13.9250 C.3   2466  GSP2466     0.2158
     18  O3'       19.3400  -10.8920   13.2190 O.3   2466  GSP2466    -0.2175
     19  C2'       19.0680  -12.2710   15.2780 C.3   2466  GSP2466     0.2310
     20  O2'       20.5150  -12.4370   15.1330 O.3   2466  GSP2466    -0.2158
     21  C1'       18.6960  -11.1300   16.3070 C.3   2466  GSP2466     0.2293
     22  N9        18.1960  -11.5620   17.6530 N.pl3 2466  GSP2466    -0.2354
     23  C8        17.1360  -12.3530   18.0650 C.3   2466  GSP2466     0.2246
     24  N7        16.9900  -12.5070   19.3500 N.2   2466  GSP2466    -0.2322
     25  C5        18.0530  -11.7420   19.8530 C.2   2466  GSP2466     0.2182
     26  C6        18.4290  -11.5120   21.2450 C.1   2466  GSP2466     0.2372
     27  O6        17.8070  -11.9970   22.1970 O.2   2466  GSP2466    -0.2069
     28  N1        19.5610  -10.6820   21.3060 N.2   2466  GSP2466    -0.2485
     29  C2        20.2620  -10.1290   20.2290 C.1   2466  GSP2466     0.2531
     30  N2        21.3150   -9.3660   20.4480 N.pl3 2466  GSP2466    -0.0226
     31  N3        19.9040  -10.3480   18.9310 N.2   2466  GSP2466    -0.3074
     32  C4        18.7880  -11.1630   18.8180 C.2   2466  GSP2466     0.2300
@<TRIPOS>BOND
     1     5     1    2
     2     3     1    1
     3    18    17    1
     4    17    15    1
     5    17    19    1
     6     1     2    1
     7     1     4    1
     8    14    15    1
     9    14    13    1
    10    15    16    1
    11     2     6    1
    12     7     6    2
    13    20    19    1
    14    19    21    1
    15    11     9    2
    16    12     6    1
    17    12     9    1
    18    13     9    1
    19     6     8    1
    20    16    21    1
    21     9    10    1
    22    21    22    1
    23    22    23    1
    24    22    32    1
    25    23    24    1
    26    32    31    2
    27    32    25    1
    28    31    29    2
    29    24    25    2
    30    25    26    1
    31    29    30    1
    32    29    28    2
    33    26    28    2
    34    26    27    2
