@<TRIPOS>MOLECULE
1z5w_GTP_A_1.pdb
 32 34 0 0 0
SMALL
GASTEIGER

@<TRIPOS>ATOM
      1  PG         8.7760  -13.0020   14.1000 P.3   2466  GTP2466     0.5373
      2  O1G        8.8690  -14.4530   13.8800 O.3   2466  GTP2466    -0.1143
      3  O2G        7.9360  -12.6220   15.3400 O.3   2466  GTP2466    -0.1143
      4  O3G        8.1860  -12.3820   12.8270 O.2   2466  GTP2466    -0.2221
      5  O3B       10.2560  -12.4890   14.2530 O.3   2466  GTP2466    -0.2258
      6  PB        10.9900  -11.2140   14.9810 P.3   2466  GTP2466     0.2277
      7  O1B       11.9830  -12.0480   14.2920 O.2   2466  GTP2466    -0.5168
      8  O2B       10.1480  -11.3770   16.2150 O.3   2466  GTP2466    -0.4368
      9  O3A       12.0990  -11.5390   16.0760 O.3   2466  GTP2466    -0.2700
     10  PA        13.3900  -12.4770   16.2210 P.3   2466  GTP2466     0.2189
     11  O1A       14.1060  -12.3040   17.4990 O.3   2466  GTP2466    -0.4371
     12  O2A       13.8070  -13.3080   15.0500 O.2   2466  GTP2466    -0.5170
     13  O5'       14.3580  -11.3520   15.5580 O.3   2466  GTP2466    -0.3112
     14  C5'       15.5960  -11.8980   15.0760 C.3   2466  GTP2466     0.1813
     15  C4'       16.5920  -10.9950   14.5100 C.3   2466  GTP2466     0.1799
     16  O4'       17.1880  -10.3740   15.7090 O.3   2466  GTP2466    -0.3326
     17  C3'       17.8080  -11.6900   13.8670 C.3   2466  GTP2466     0.2158
     18  O3'       18.5450  -10.7820   12.9800 O.3   2466  GTP2466    -0.2175
     19  C2'       18.6060  -12.1530   15.0880 C.3   2466  GTP2466     0.2310
     20  O2'       20.0050  -12.1870   14.7250 O.3   2466  GTP2466    -0.2158
     21  C1'       18.4050  -11.0790   16.1140 C.3   2466  GTP2466     0.2293
     22  N9        18.1010  -11.4580   17.5430 N.pl3 2466  GTP2466    -0.2354
     23  C8        17.0800  -12.2920   17.9660 C.3   2466  GTP2466     0.2246
     24  N7        16.9900  -12.4580   19.2340 N.2   2466  GTP2466    -0.2322
     25  C5        18.0270  -11.6840   19.7600 C.2   2466  GTP2466     0.2182
     26  C6        18.4200  -11.4690   21.1130 C.1   2466  GTP2466     0.2372
     27  O6        17.9260  -11.9400   22.1640 O.2   2466  GTP2466    -0.2069
     28  N1        19.5350  -10.5970   21.2260 N.2   2466  GTP2466    -0.2485
     29  C2        20.1960   -9.9970   20.1610 C.1   2466  GTP2466     0.2531
     30  N2        21.2170   -9.2110   20.5310 N.pl3 2466  GTP2466    -0.0226
     31  N3        19.8360  -10.1910   18.8510 N.2   2466  GTP2466    -0.3074
     32  C4        18.7360  -11.0420   18.7230 C.2   2466  GTP2466     0.2300
@<TRIPOS>BOND
     1     4     1    2
     2    18    17    1
     3    17    15    1
     4    17    19    1
     5     2     1    1
     6     1     5    1
     7     1     3    1
     8     5     6    1
     9     7     6    2
    10    15    14    1
    11    15    16    1
    12    20    19    1
    13     6     9    1
    14     6     8    1
    15    12    10    2
    16    14    13    1
    17    19    21    1
    18    13    10    1
    19    16    21    1
    20     9    10    1
    21    21    22    1
    22    10    11    1
    23    22    23    1
    24    22    32    1
    25    23    24    1
    26    32    31    2
    27    32    25    1
    28    31    29    2
    29    24    25    2
    30    25    26    1
    31    29    30    1
    32    29    28    2
    33    26    28    2
    34    26    27    2
