@<TRIPOS>MOLECULE
1z5x_P1A_E_1.pdb
 33 36 0 0 0
SMALL
GASTEIGER

@<TRIPOS>ATOM
      1  C5        22.9270   65.6790    3.7580 C.3     5  P1A5        0.0649
      2  C10       23.4410   67.1560    4.0460 C.3     5  P1A5        0.0130
      3  C1        24.3650   67.1140    5.2890 C.3     5  P1A5        0.0363
      4  C2        23.6870   66.5080    6.5230 C.3     5  P1A5        0.1821
      5  C3        23.1500   65.0640    6.2650 C.3     5  P1A5        0.1825
      6  C4        22.1760   65.0840    5.0240 C.3     5  P1A5        0.0432
      7  C9        22.1250   68.0740    4.3070 C.3     5  P1A5        0.0212
      8  C19       24.2550   67.6640    2.8270 C.3     5  P1A5        0.0008
      9  C11       22.5600   69.5470    4.5920 C.3     5  P1A5        0.0042
     10  C8        21.1300   67.9240    3.0820 C.2     5  P1A5       -0.0146
     11  C12       21.4890   70.6260    4.3570 C.3     5  P1A5        0.0031
     12  C14       20.1340   69.0480    2.9150 C.3     5  P1A5        0.1417
     13  C13       20.7620   70.5290    2.9730 C.3     5  P1A5        0.0316
     14  C18       21.7690   70.7480    1.7870 C.3     5  P1A5        0.0028
     15  C17       19.4160   71.3000    2.7430 C.3     5  P1A5        0.0332
     16  O14       19.2500   68.8900    4.0740 O.3     5  P1A5       -0.2215
     17  C15       19.1550   69.0660    1.7370 C.3     5  P1A5        0.0344
     18  C20       19.4660   72.8630    2.4720 C.3     5  P1A5        0.1545
     19  C16       18.7470   70.5290    1.5460 C.3     5  P1A5        0.0055
     20  C22       18.0540   73.4410    2.1750 C.3     5  P1A5        0.1796
     21  O20       20.2480   73.1290    1.2730 O.3     5  P1A5       -0.2231
     22  C21       20.1200   73.6240    3.6690 C.3     5  P1A5        0.0356
     23  C6        21.9550   65.6570    2.5630 C.2     5  P1A5        0.1722
     24  C7        21.0970   66.7950    2.3000 C.2     5  P1A5        0.0313
     25  O3        24.2350   64.1750    5.9680 O.3     5  P1A5       -0.2204
     26  O2        24.5880   66.4800    7.6350 O.3     5  P1A5       -0.2204
     27  O22       18.2310   74.8460    1.9170 O.3     5  P1A5       -0.2205
     28  C23       16.9660   73.3060    3.3000 C.3     5  P1A5        0.0355
     29  C24       15.5960   73.6820    2.7080 C.3     5  P1A5        0.0027
     30  C25       14.3750   73.3270    3.4270 C.3     5  P1A5        0.0001
     31  C26       13.6120   72.2110    2.6230 C.3     5  P1A5        0.0000
     32  C27       13.4970   74.5150    3.6560 C.3     5  P1A5        0.0000
     33  O6        21.8800   64.6750    1.8360 O.2     5  P1A5       -0.2914
@<TRIPOS>BOND
     1    21    18    1
     2    19    17    1
     3    19    15    1
     4    17    12    1
     5    14    13    1
     6    33    23    2
     7    27    20    1
     8    20    18    1
     9    20    28    1
    10    24    23    1
    11    24    10    2
    12    18    15    1
    13    18    22    1
    14    23     1    1
    15    31    30    1
    16    29    28    1
    17    29    30    1
    18    15    13    1
    19     8     2    1
    20    12    13    1
    21    12    10    1
    22    12    16    1
    23    13    11    1
    24    10     7    1
    25    30    32    1
    26     1     2    1
    27     1     6    1
    28     2     7    1
    29     2     3    1
    30     7     9    1
    31    11     9    1
    32     6     5    1
    33     3     4    1
    34    25     5    1
    35     5     4    1
    36     4    26    1
