@<TRIPOS>MOLECULE
1z62_IAA_A_1.pdb
 25 28 0 0 0
SMALL
GASTEIGER

@<TRIPOS>ATOM
      1  O4        30.0180    3.6290   49.7340 O.co2 990  IAA990     -0.2414
      2  C18       30.4040    2.5320   50.1070 C.2   990  IAA990      0.4114
      3  O3        31.7030    2.2150   49.9840 O.co2 990  IAA990     -0.2414
      4  C17       29.4450    1.5430   50.7510 C.3   990  IAA990      0.3510
      5  O2        28.1470    2.1420   50.8080 O.2   990  IAA990     -0.3650
      6  N3        27.2960    1.2780   51.5210 N.2   990  IAA990     -0.0834
      7  C10       26.0660    1.6520   51.7920 C.2   990  IAA990      0.1375
      8  C9        25.0550    0.9490   52.6230 C.2   990  IAA990      0.1602
      9  C8        25.1820   -0.2560   53.2470 C.2   990  IAA990      0.1279
     10  C7        24.1670   -0.8530   54.1090 C.1   990  IAA990      0.2073
     11  O1        23.0710   -0.3620   54.4100 O.2   990  IAA990     -0.2092
     12  N1        24.6410   -2.0370   54.5290 N.2   990  IAA990     -0.3328
     13  C1        25.8220   -2.2860   54.0650 C.ar  990  IAA990      0.1452
     14  C2        26.6770   -3.3980   54.2440 C.ar  990  IAA990      0.0331
     15  C3        27.9620   -3.4210   53.5980 C.ar  990  IAA990      0.0027
     16  C4        28.3850   -2.3500   52.7800 C.ar  990  IAA990      0.0002
     17  C5        27.5390   -1.2680   52.6140 C.ar  990  IAA990      0.0034
     18  C6        26.2620   -1.2290   53.2500 C.ar  990  IAA990      0.0450
     19  N2        23.9470    1.7250   52.7030 N.2   990  IAA990     -0.4034
     20  C11       24.1050    2.8720   51.9900 C.2   990  IAA990      0.1185
     21  C16       23.2250    3.9390   51.8180 C.2   990  IAA990      0.0282
     22  C15       23.6320    5.0320   51.0400 C.2   990  IAA990      0.0020
     23  C14       24.9150    5.0810   50.4410 C.2   990  IAA990     -0.0037
     24  C13       25.8090    4.0170   50.6080 C.2   990  IAA990     -0.0133
     25  C12       25.3960    2.9030   51.3920 C.3   990  IAA990      0.1201
@<TRIPOS>BOND
     1     1     2   ar
     2     3     2   ar
     3     2     4    1
     4    23    24    2
     5    23    22    1
     6    24    25    1
     7     4     5    1
     8     5     6    1
     9    22    21    2
    10    25     7    1
    11    25    20    1
    12     6     7    2
    13     7     8    1
    14    21    20    1
    15    20    19    2
    16    17    16   ar
    17    17    18   ar
    18     8    19    2
    19     8     9    1
    20    16    15   ar
    21     9    18    2
    22     9    10    1
    23    18    13   ar
    24    15    14   ar
    25    13    14   ar
    26    13    12    2
    27    10    11    2
    28    10    12    2
