@<TRIPOS>MOLECULE
1z6d_IMP_A_1.pdb
 23 25 0 0 0
SMALL
GASTEIGER

@<TRIPOS>ATOM
      1  P         36.2720   -2.8330   23.3730 P.3   919  IMP919      0.5327
      2  O1P       34.8620   -3.1660   22.9990 O.3   919  IMP919     -0.1145
      3  O2P       36.3110   -1.8870   24.5510 O.3   919  IMP919     -0.1145
      4  O3P       37.0690   -2.3120   22.2100 O.2   919  IMP919     -0.2224
      5  O5'       36.9420   -4.2480   23.7920 O.3   919  IMP919     -0.2675
      6  C5'       36.9850   -5.3160   22.8450 C.3   919  IMP919      0.1860
      7  C4'       38.1660   -6.2560   23.1370 C.3   919  IMP919      0.1823
      8  O4'       38.1630   -7.3940   22.2700 O.3   919  IMP919     -0.3135
      9  C3'       39.5110   -5.5630   22.9200 C.3   919  IMP919      0.2184
     10  O3'       40.3050   -5.6430   24.0860 O.3   919  IMP919     -0.2174
     11  C2'       40.1780   -6.3450   21.8140 C.3   919  IMP919      0.2570
     12  O2'       41.1220   -7.2010   22.4050 O.3   919  IMP919     -0.2130
     13  C1'       39.0930   -7.2310   21.2310 C.3   919  IMP919      0.3186
     14  N9        38.4090   -6.5920   20.0800 N.pl3 919  IMP919     -0.1435
     15  C8        38.5020   -5.2790   19.6790 C.3   919  IMP919      0.3382
     16  N7        37.7150   -5.1010   18.5890 N.2   919  IMP919     -0.2054
     17  C5        37.1150   -6.2890   18.3100 C.2   919  IMP919      0.2446
     18  C6        36.2310   -6.6650   17.3100 C.1   919  IMP919      0.1792
     19  O6        35.8330   -5.8520   16.4660 O.2   919  IMP919     -0.2203
     20  N1        35.8020   -7.9750   17.2550 N.2   919  IMP919     -0.1458
     21  C2        36.2340   -8.8990   18.1880 C.3   919  IMP919      0.4017
     22  N3        37.1010   -8.5190   19.1930 N.2   919  IMP919     -0.0334
     23  C4        37.5500   -7.2310   19.2330 C.2   919  IMP919      0.3528
@<TRIPOS>BOND
     1    19    18    2
     2    20    18    2
     3    20    21    1
     4    18    17    1
     5    21    22    1
     6    17    16    2
     7    17    23    1
     8    16    15    1
     9    22    23    2
    10    23    14    1
    11    15    14    1
    12    14    13    1
    13    13    11    1
    14    13     8    1
    15    11    12    1
    16    11     9    1
    17     4     1    2
    18     8     7    1
    19     6     7    1
    20     6     5    1
    21     9     7    1
    22     9    10    1
    23     2     1    1
    24     1     5    1
    25     1     3    1
