@<TRIPOS>MOLECULE
1z6e_IK8_A_1.pdb
 38 42 0 0 0
SMALL
GASTEIGER

@<TRIPOS>ATOM
      1  F          2.6460   27.9550   53.1860 F     711  IK8711     -0.1643
      2  F1         2.6820   26.4560   54.6720 F     711  IK8711     -0.1643
      3  F2         3.5120   26.1060   52.7180 F     711  IK8711     -0.1643
      4  OT1       12.2170   27.6850   52.4430 O.2   711  IK8711     -0.3520
      5  O1         8.2020   29.3600   56.3580 O.2   711  IK8711     -0.2663
      6  N         12.1390   28.5390   51.4060 N.ar  711  IK8711     -0.0586
      7  N1        10.3140   29.9370   50.4830 N.pl3 711  IK8711     -0.1037
      8  N2         6.8810   27.7950   54.3520 N.ar  711  IK8711     -0.2252
      9  N3         5.8980   27.1470   53.6570 N.ar  711  IK8711     -0.1610
     10  N4         6.2450   30.3470   56.9360 N.am  711  IK8711     -0.1719
     11  C         11.0340   27.5590   53.0420 C.ar  711  IK8711      0.1783
     12  C1        10.0800   28.4000   52.3350 C.ar  711  IK8711      0.0766
     13  C2        10.8570   28.9980   51.3150 C.ar  711  IK8711      0.2110
     14  C3        10.5740   26.7930   54.2410 C.ar  711  IK8711      0.0418
     15  C4         9.1700   26.8740   54.7090 C.ar  711  IK8711      0.0224
     16  C5         8.2100   27.7260   53.9540 C.ar  711  IK8711      0.0832
     17  C6         8.6760   28.5020   52.7610 C.ar  711  IK8711      0.0253
     18  C7         4.7110   27.4850   54.1830 C.ar  711  IK8711      0.1741
     19  C8         4.9120   28.3780   55.2720 C.ar  711  IK8711      0.0487
     20  C9         6.3130   28.5580   55.3520 C.ar  711  IK8711      0.1394
     21  C10        3.3450   26.9950   53.6810 C.3   711  IK8711      0.4366
     22  C13        6.9760   29.4340   56.2410 C.2   711  IK8711      0.2869
     23  C14        6.7990   31.3390   57.7130 C.ar  711  IK8711      0.1012
     24  C15        7.5870   31.0050   58.8890 C.ar  711  IK8711      0.1568
     25  C16        8.1980   31.9800   59.7480 C.ar  711  IK8711      0.0485
     26  C17        8.0100   33.3790   59.4090 C.ar  711  IK8711      0.0675
     27  C18        7.2340   33.7410   58.2070 C.ar  711  IK8711      0.0190
     28  C19        6.6110   32.7370   57.3450 C.ar  711  IK8711      0.0204
     29  N5         8.4670   34.3420   60.3390 N.ar  711  IK8711     -0.2911
     30  C21        9.7120   34.9040   60.3640 C.ar  711  IK8711      0.1019
     31  C22        9.7590   35.8160   61.4250 C.ar  711  IK8711      0.1192
     32  N6         8.5370   35.8010   62.0450 N.ar  711  IK8711     -0.2276
     33  C25        7.7650   34.8940   61.3830 C.ar  711  IK8711      0.1407
     34  F3         7.7730   29.7180   59.1680 F     711  IK8711     -0.2027
     35  C11        6.3060   34.5810   61.7770 C.3   711  IK8711      0.1375
     36  N7         6.1390   34.1820   63.2100 N.3   711  IK8711     -0.2639
     37  C20        6.5330   35.1040   64.3010 C.3   711  IK8711      0.0900
     38  C23        6.3330   32.7740   63.5730 C.3   711  IK8711      0.0900
@<TRIPOS>BOND
     1     7    13    1
     2    13     6   ar
     3    13    12   ar
     4     6     4   ar
     5    12    17   ar
     6    12    11   ar
     7     4    11   ar
     8     3    21    1
     9    17    16   ar
    10    11    14   ar
    11     1    21    1
    12     9    18   ar
    13     9     8   ar
    14    21    18    1
    15    21     2    1
    16    16     8    1
    17    16    15   ar
    18    18    19   ar
    19    14    15   ar
    20     8    20   ar
    21    19    20   ar
    22    20    22    1
    23    22     5    2
    24    22    10   am
    25    10    23    1
    26    28    23   ar
    27    28    27   ar
    28    23    24   ar
    29    27    26   ar
    30    24    34    1
    31    24    25   ar
    32    26    25   ar
    33    26    29    1
    34    29    30   ar
    35    29    33   ar
    36    30    31   ar
    37    33    35    1
    38    33    32   ar
    39    31    32   ar
    40    35    36    1
    41    36    38    1
    42    36    37    1
