@<TRIPOS>MOLECULE
1z6f_BO9_A_1.pdb
 41 41 0 0 0
SMALL
GASTEIGER

@<TRIPOS>ATOM
      1  O36       50.5290    7.9210   32.8920 O.2   401  BO9401      0.0000
      2  C35       49.6190    8.3030   33.6150 C.2   401  BO9401      0.0000
      3  O37       49.8660    9.4050   34.5530 O.3   401  BO9401      0.0000
      4  C38       50.6820   10.5630   34.2990 C.3   401  BO9401      0.0000
      5  C41       50.2610   11.2330   32.9940 C.3   401  BO9401      0.0000
      6  C40       50.4650   11.5430   35.4470 C.3   401  BO9401      0.0000
      7  C39       52.1610   10.1880   34.2260 C.3   401  BO9401      0.0000
      8  N34       48.4240    7.7060   33.5630 N.am  401  BO9401      0.0000
      9  C30       47.2680    8.0830   34.3770 C.3   401  BO9401      0.0000
     10  C31       47.5380    7.9650   35.8840 C.2   401  BO9401      0.0000
     11  O33       47.8050    6.8440   36.3800 O.co2 401  BO9401      0.0000
     12  O32       47.4910    9.0090   36.5760 O.co2 401  BO9401      0.0000
     13  C29       46.1140    7.1580   33.9580 C.3   401  BO9401      0.0000
     14  C28       46.1090    6.8440   32.4610 C.3   401  BO9401      0.0000
     15  C26       44.7340    6.7940   31.8190 C.2   401  BO9401      0.0000
     16  O27       44.3620    5.7700   31.2560 O.2   401  BO9401      0.0000
     17  N25       43.9820    7.8970   31.8700 N.am  401  BO9401      0.0000
     18  C9        42.6660    7.9680   31.2440 C.3   401  BO9401      0.0000
     19  C7        42.8980    8.4860   29.8470 C.2   401  BO9401      0.0000
     20  O8        43.5670    9.4990   29.6700 O.2   401  BO9401      0.0000
     21  N6        42.4130    7.7700   28.8280 N.am  401  BO9401      0.0000
     22  C4        42.6230    8.2050   27.4490 C.3   401  BO9401      0.0000
     23  C5        41.2890    8.6660   26.8640 C.3   401  BO9401      0.0000
     24  B1        43.2480    6.9960   26.5980 B     401  BO9401      0.0000
     25  O3        44.6600    6.6510   27.1080 O.3   401  BO9401      0.0000
     26  O2        42.3690    5.7460   26.6750 O.3   401  BO9401      0.0000
     27  C10       41.9120    8.9960   32.0810 C.3   401  BO9401      0.0000
     28  C11       40.4110    8.7790   32.1820 C.3   401  BO9401      0.0000
     29  C12       39.8550    9.7290   33.2470 C.3   401  BO9401      0.0000
     30  C13       39.3700    8.9940   34.4990 C.3   401  BO9401      0.0000
     31  N14       40.2180    9.3850   35.6190 N.am  401  BO9401      0.0000
     32  C15       39.9930   10.2740   36.5960 C.2   401  BO9401      0.0000
     33  O16       40.8190   10.4730   37.4770 O.2   401  BO9401      0.0000
     34  O17       38.7540   11.0480   36.6480 O.3   401  BO9401      0.0000
     35  C18       38.5810   12.2080   35.8280 C.3   401  BO9401      0.0000
     36  C19       37.8760   13.3220   36.5690 C.ar  401  BO9401      0.0000
     37  C24       38.1680   14.6500   36.2550 C.ar  401  BO9401      0.0000
     38  C23       37.5290   15.6920   36.9280 C.ar  401  BO9401      0.0000
     39  C22       36.5870   15.4050   37.9170 C.ar  401  BO9401      0.0000
     40  C21       36.2900   14.0780   38.2330 C.ar  401  BO9401      0.0000
     41  C20       36.9340   13.0370   37.5600 C.ar  401  BO9401      0.0000
@<TRIPOS>BOND
     1    24    26    1
     2    24    25    1
     3    24    22    1
     4    23    22    1
     5    22    21    1
     6    21    19   am
     7    20    19    2
     8    19    18    1
     9    18    17    1
    10    18    27    1
    11    16    15    2
    12    15    17   am
    13    15    14    1
    14    27    28    1
    15    28    29    1
    16    14    13    1
    17     1     2    2
    18     5     4    1
    19    29    30    1
    20     8     2   am
    21     8     9    1
    22     2     3    1
    23    13     9    1
    24     7     4    1
    25     4     3    1
    26     4     6    1
    27     9    10    1
    28    30    31    1
    29    31    32   am
    30    35    36    1
    31    35    34    1
    32    10    11   ar
    33    10    12   ar
    34    37    36   ar
    35    37    38   ar
    36    36    41   ar
    37    32    34    1
    38    32    33    2
    39    38    39   ar
    40    41    40   ar
    41    39    40   ar
