@<TRIPOS>MOLECULE
1z6h_BTI_A_1.pdb
 30 31 0 0 0
SMALL
GASTEIGER

@<TRIPOS>ATOM
      1  C11        3.3030  -28.8310   -5.9270 C.2   135  BTI135      0.1981
      2  O11        4.1770  -27.9670   -5.8560 O.2   135  BTI135     -0.2890
      3  C10        2.1660  -28.7080   -6.9430 C.3   135  BTI135      0.0134
      4  C9         1.2780  -27.4730   -6.7370 C.3   135  BTI135     -0.0459
      5  C8         0.8970  -27.2190   -5.2710 C.3   135  BTI135     -0.0516
      6  C7        -0.3320  -26.3120   -5.1590 C.3   135  BTI135     -0.0394
      7  C2        -0.7160  -26.1370   -3.6840 C.3   135  BTI135      0.0255
      8  S1        -1.2820  -27.6120   -2.8080 S.3   135  BTI135     -0.1536
      9  C6        -1.8550  -26.5480   -1.4760 C.3   135  BTI135      0.0143
     10  C5        -2.4460  -25.2800   -2.1010 C.3   135  BTI135      0.0529
     11  N3        -3.8250  -25.4920   -2.4940 N.am  135  BTI135     -0.2940
     12  C3        -4.0750  -25.4450   -3.8080 C.2   135  BTI135      0.3002
     13  O3        -5.1530  -25.6090   -4.3740 O.2   135  BTI135     -0.2528
     14  N2        -2.8950  -25.1590   -4.3670 N.am  135  BTI135     -0.2937
     15  C4        -1.7730  -25.0370   -3.4540 C.3   135  BTI135      0.0555
     16 H102        1.5310  -29.5940   -6.8780 H     135  BTI135      0.0346
     17 H103        2.5870  -28.6830   -7.9490 H     135  BTI135      0.0346
     18  H92        0.3690  -27.6390   -7.3110 H     135  BTI135      0.0269
     19  H93        1.7850  -26.5910   -7.1290 H     135  BTI135      0.0269
     20  H82        1.7380  -26.7450   -4.7630 H     135  BTI135      0.0266
     21  H83        0.6740  -28.1580   -4.7710 H     135  BTI135      0.0266
     22  H72       -1.1660  -26.7590   -5.7040 H     135  BTI135      0.0276
     23  H73       -0.0990  -25.3380   -5.5930 H     135  BTI135      0.0276
     24  H2         0.1950  -25.8320   -3.1730 H     135  BTI135      0.0431
     25  H62       -0.9890  -26.2670   -0.8770 H     135  BTI135      0.0395
     26  H63       -2.5830  -27.0590   -0.8460 H     135  BTI135      0.0395
     27  H5        -2.3520  -24.4210   -1.4360 H     135  BTI135      0.0525
     28  HN3       -4.5500  -25.6320   -1.8070 H     135  BTI135      0.1506
     29  HN2       -2.7690  -25.0540   -5.3630 H     135  BTI135      0.1506
     30  H4        -1.3530  -24.0350   -3.5140 H     135  BTI135      0.0528
@<TRIPOS>BOND
     1    17     3    1
     2    18     4    1
     3    19     4    1
     4     3    16    1
     5     3     4    1
     6     3     1    1
     7     4     5    1
     8     1     2    2
     9    22     6    1
    10    23     6    1
    11    29    14    1
    12     5     6    1
    13     5    21    1
    14     5    20    1
    15     6     7    1
    16    13    12    2
    17    14    12   am
    18    14    15    1
    19    12    11   am
    20     7    15    1
    21     7    24    1
    22     7     8    1
    23    30    15    1
    24    15    10    1
    25     8     9    1
    26    11    10    1
    27    11    28    1
    28    10     9    1
    29    10    27    1
    30     9    25    1
    31     9    26    1
