@<TRIPOS>MOLECULE
1z6j_PY3_H_1.pdb
 48 51 0 0 0
SMALL
GASTEIGER

@<TRIPOS>ATOM
      1  C3        32.4380    4.3760   10.7720 C.ar  403  PY3403      0.0768
      2  C4        33.8430    4.5090   10.8910 C.ar  403  PY3403      0.0373
      3  C5        34.6760    3.5310   10.3210 C.ar  403  PY3403      0.1002
      4  C1        32.8080    2.3050    9.5340 C.ar  403  PY3403      0.1002
      5  C2        31.9290    3.2530   10.0800 C.ar  403  PY3403      0.0373
      6  N6        34.1400    2.4700    9.6690 N.ar  403  PY3403     -0.2422
      7  N7        31.6400    5.3710   11.3620 N.am  403  PY3403     -0.1754
      8  C8        30.3140    5.4530   11.3390 C.2   403  PY3403      0.2687
      9  C9        29.6000    6.5190   12.0610 C.ar  403  PY3403      0.0533
     10  O10       29.5790    4.6800   10.7620 O.2   403  PY3403     -0.2680
     11  C11       28.8870    7.5430   11.4180 C.ar  403  PY3403      0.0039
     12  C12       28.2170    8.5040   12.2460 C.ar  403  PY3403     -0.0022
     13  C13       28.2700    8.4300   13.6710 C.ar  403  PY3403      0.0077
     14  C14       29.0050    7.3890   14.2980 C.ar  403  PY3403      0.0976
     15  C15       29.6680    6.4400   13.4860 C.ar  403  PY3403      0.0123
     16  C16       29.0720    7.3190   15.7660 C.2   403  PY3403      0.4766
     17  N17       28.5830    8.3300   16.5320 N.pl3 403  PY3403      0.2047
     18  N18       29.5990    6.2850   16.3620 N.pl3 403  PY3403      0.2047
     19  C19       28.7430    7.7550    9.9410 C.3   403  PY3403      0.1417
     20  N20       29.7600    8.7760    9.5160 N.am  403  PY3403     -0.1989
     21  C21       30.9530    8.4320    9.0230 C.2   403  PY3403      0.2649
     22  C22       32.0070    9.5110    8.9880 C.3   403  PY3403      0.1959
     23  N23       33.4140    9.0560    8.9670 N.ar  403  PY3403     -0.2828
     24  O24       31.1910    7.3040    8.6370 O.2   403  PY3403     -0.2712
     25  C25       33.8650    8.3960   10.1290 C.ar  403  PY3403      0.2945
     26  C26       35.2890    8.0000   10.2390 C.ar  403  PY3403      0.2048
     27  N27       36.0860    8.2790    9.2340 N.ar  403  PY3403     -0.2219
     28  C28       35.6480    8.9110    8.0670 C.ar  403  PY3403      0.1177
     29  C29       34.3530    9.2840    7.9240 C.ar  403  PY3403      0.0822
     30  C30       33.9160    9.8710    6.6410 C.ar  403  PY3403      0.0189
     31  N31       35.7670    7.3740   11.3670 N.pl3 403  PY3403     -0.2181
     32  C32       37.1910    7.1700   11.6760 C.3   403  PY3403      0.0943
     33  C33       37.3540    7.1500   13.2260 C.3   403  PY3403      0.0234
     34  C34       37.6510    5.8470   11.0200 C.3   403  PY3403      0.0234
     35  C35       34.4330   11.1300    6.2080 C.ar  403  PY3403      0.0195
     36  C36       33.9760   11.6970    4.9830 C.ar  403  PY3403      0.0893
     37  C37       33.0060   11.0090    4.2070 C.ar  403  PY3403      0.0226
     38  C38       32.4820    9.7740    4.6120 C.ar  403  PY3403      0.0564
     39  C39       32.9380    9.2000    5.8370 C.ar  403  PY3403      0.0061
     40  N40       34.4580   12.9310    4.5440 N.pl3 403  PY3403     -0.1281
     41  C41       31.4540    9.1120    3.7900 C.2   403  PY3403      0.2648
     42  N42       30.5540    9.8430    3.0600 N.am  403  PY3403     -0.2034
     43  C43       29.4670    9.3210    2.1800 C.3   403  PY3403      0.0957
     44  C44       28.0840    9.8380    2.6450 C.3   403  PY3403      0.0217
     45  C45       27.0990    8.7580    3.1840 C.3   403  PY3403      0.0018
     46  O46       31.4220    7.8970    3.7810 O.2   403  PY3403     -0.2684
     47  C47       29.7800    9.7400    0.7270 C.3   403  PY3403      0.0234
     48  O48       33.1330    8.1460   11.0960 O.2   403  PY3403     -0.2638
@<TRIPOS>BOND
     1    47    43    1
     2    43    44    1
     3    43    42    1
     4    44    45    1
     5    42    41   am
     6    46    41    2
     7    41    38    1
     8    37    38   ar
     9    37    36   ar
    10    40    36    1
    11    38    39   ar
    12    36    35   ar
    13    39    30   ar
    14    35    30   ar
    15    30    29    1
    16    29    28   ar
    17    29    23   ar
    18    28    27   ar
    19    24    21    2
    20    23    22    1
    21    23    25   ar
    22    22    21    1
    23    21    20   am
    24    27    26   ar
    25    20    19    1
    26     4     6   ar
    27     4     5   ar
    28     6     3   ar
    29    19    11    1
    30     5     1   ar
    31    25    26   ar
    32    25    48    2
    33    26    31    1
    34     3     2   ar
    35    10     8    2
    36     1     2   ar
    37     1     7    1
    38    34    32    1
    39     8     7   am
    40     8     9    1
    41    31    32    1
    42    11     9   ar
    43    11    12   ar
    44    32    33    1
    45     9    15   ar
    46    12    13   ar
    47    15    14   ar
    48    13    14   ar
    49    14    16    1
    50    16    18    2
    51    16    17    1
