@<TRIPOS>MOLECULE
1z6l_DRE_A_1.pdb
 15 14 0 0 0
SMALL
GASTEIGER

@<TRIPOS>ATOM
      1  NAA       63.9690  -22.1520   -1.6060 N.3   804  DRE804     -0.1314
      2  CAB       65.2870  -21.9680   -2.2290 C.3   804  DRE804      0.1093
      3  CAC       66.3530  -22.7130   -1.4220 C.3   804  DRE804      0.0205
      4  CAD       66.0610  -24.2140   -1.3720 C.3   804  DRE804      0.0016
      5  CAE       67.1280  -24.9500   -0.5600 C.3   804  DRE804      0.0015
      6  CAF       66.7710  -26.4290   -0.4040 C.3   804  DRE804      0.0188
      7  CAG       67.8250  -27.1520    0.4380 C.3   804  DRE804      0.0887
      8  NAH       67.4490  -28.5650    0.5950 N.3   804  DRE804     -0.2181
      9  CAI       68.5060  -29.3190    1.2870 C.3   804  DRE804      0.0887
     10  CAJ       69.5700  -29.8030    0.2980 C.3   804  DRE804      0.0188
     11  CAK       70.3540  -28.6380   -0.3100 C.3   804  DRE804      0.0015
     12  CAL       71.4250  -29.1320   -1.2850 C.3   804  DRE804      0.0016
     13  CAM       72.2900  -27.9800   -1.8030 C.3   804  DRE804      0.0205
     14  CAN       73.1130  -27.3440   -0.6800 C.3   804  DRE804      0.1093
     15  NAO       73.8830  -26.2120   -1.2140 N.3   804  DRE804     -0.1314
@<TRIPOS>BOND
     1     2     1    1
     2     2     3    1
     3    13    12    1
     4    13    14    1
     5     3     4    1
     6     4     5    1
     7    12    11    1
     8    15    14    1
     9     5     6    1
    10     6     7    1
    11    11    10    1
    12    10     9    1
    13     7     8    1
    14     8     9    1
