@<TRIPOS>MOLECULE
1z6p_194_A_1.pdb
 31 33 0 0 0
SMALL
GASTEIGER

@<TRIPOS>ATOM
      1  C1        30.5040    0.0440   52.1840 C.ar  843  194843      0.0099
      2  C2        29.1630   -0.2510   52.1070 C.ar  843  194843      0.0377
      3  C3        28.5540   -0.3870   50.8790 C.ar  843  194843      0.1456
      4  C4        29.2610   -0.3620   49.7050 C.ar  843  194843      0.0443
      5  C5        30.5910   -0.0270   49.7610 C.ar  843  194843      0.0892
      6  C6        31.1940    0.2620   50.9960 C.ar  843  194843      0.0863
      7  C10       32.5060    0.9780   51.1290 C.2   843  194843      0.3880
      8  O1        33.4070    0.5470   51.7720 O.co2 843  194843     -0.2405
      9  O2        32.5980    2.1990   50.5400 O.co2 843  194843     -0.2405
     10  C20       31.2730    0.0530   48.4890 C.2   843  194843      0.3881
     11  O5        32.1130   -0.9580   48.1130 O.co2 843  194843     -0.2405
     12  O4        31.0290    0.9680   47.7960 O.co2 843  194843     -0.2405
     13  O3        27.2090   -0.5640   50.7770 O.3   843  194843     -0.4522
     14  C31       26.7290   -1.6170   51.5270 C.ar  843  194843      0.1605
     15  C34       25.3550   -1.6180   51.7890 C.ar  843  194843      0.1081
     16  C35       24.7690   -2.6700   52.5300 C.ar  843  194843      0.0197
     17  C36       25.5900   -3.6370   53.1050 C.ar  843  194843      0.0015
     18  C37       26.9630   -3.6200   52.8770 C.ar  843  194843      0.0032
     19  C38       27.5110   -2.6520   52.0030 C.ar  843  194843      0.0388
     20  N1        24.6550   -0.5170   51.2980 N.am  843  194843     -0.1724
     21  C44       24.3410    0.5060   52.1230 C.2   843  194843      0.2691
     22  O6        24.2880    0.2770   53.3100 O.2   843  194843     -0.2680
     23  C51       24.0430    1.9050   51.6640 C.ar  843  194843      0.0570
     24  C53       23.9140    2.9440   52.6100 C.ar  843  194843      0.0286
     25  C54       23.5450    4.2460   52.1680 C.ar  843  194843      0.1430
     26  C55       23.2770    4.4870   50.8220 C.ar  843  194843      0.0241
     27  C56       23.4450    3.4810   49.9040 C.ar  843  194843      0.0018
     28  C57       23.8060    2.2220   50.3460 C.ar  843  194843      0.0047
     29  N2        23.6070    5.3760   53.0680 N.pl3 843  194843      0.0577
     30  O7        24.1480    5.2870   54.1090 O.2   843  194843     -0.1261
     31  O8        23.2250    6.5490   52.6940 O.2   843  194843     -0.1261
@<TRIPOS>BOND
     1    12    10   ar
     2    11    10   ar
     3    10     5    1
     4     4     5   ar
     5     4     3   ar
     6     5     6   ar
     7    27    28   ar
     8    27    26   ar
     9    28    23   ar
    10     9     7   ar
    11    13     3    1
    12    13    14    1
    13    26    25   ar
    14     3     2   ar
    15     6     7    1
    16     6     1   ar
    17     7     8   ar
    18    20    15    1
    19    20    21   am
    20    14    15   ar
    21    14    19   ar
    22    23    21    1
    23    23    24   ar
    24    15    16   ar
    25    19    18   ar
    26     2     1   ar
    27    21    22    2
    28    25    24   ar
    29    25    29    1
    30    16    17   ar
    31    31    29    2
    32    18    17   ar
    33    29    30    2
