@<TRIPOS>MOLECULE
1z6q_195_A_1.pdb
 43 46 0 0 0
SMALL
GASTEIGER

@<TRIPOS>ATOM
      1  C1        26.4030   -1.5600   51.6040 C.ar  843  195843      0.1605
      2  C2        25.0460   -1.4850   51.8600 C.ar  843  195843      0.1094
      3  C3        24.3930   -2.5320   52.5120 C.ar  843  195843      0.0363
      4  C4        25.1100   -3.6530   52.9100 C.ar  843  195843      0.0752
      5  C5        26.4880   -3.7210   52.6600 C.ar  843  195843      0.0198
      6  C6        27.1320   -2.6720   52.0110 C.ar  843  195843      0.0402
      7  O1        26.9950   -0.5350   50.8630 O.3   843  195843     -0.4522
      8  C7        28.3820   -0.4630   50.9950 C.ar  843  195843      0.1456
      9  C8        29.1700   -0.3910   49.8510 C.ar  843  195843      0.0443
     10  C9        30.5350   -0.1290   49.9520 C.ar  843  195843      0.0892
     11  C10       31.1120    0.0730   51.1790 C.ar  843  195843      0.0863
     12  C11       30.3390   -0.0210   52.3320 C.ar  843  195843      0.0099
     13  C12       28.9720   -0.2910   52.2420 C.ar  843  195843      0.0377
     14  C13       32.5190    0.4710   51.2540 C.2   843  195843      0.3880
     15  O2        33.2880   -0.2650   52.0780 O.co2 843  195843     -0.2405
     16  O3        32.9280    1.3920   50.6130 O.co2 843  195843     -0.2405
     17  C14       31.3720   -0.1080   48.7550 C.2   843  195843      0.3881
     18  O4        32.3090   -1.0890   48.6960 O.co2 843  195843     -0.2405
     19  O5        31.2300    0.7260   47.9150 O.co2 843  195843     -0.2405
     20  N1        24.3800   -0.3410   51.5410 N.am  843  195843     -0.1723
     21  C15       24.7600    0.8010   52.1510 C.2   843  195843      0.2691
     22  C16       24.1470    2.0490   51.6660 C.ar  843  195843      0.0570
     23  O6        25.5840    0.7770   53.0570 O.2   843  195843     -0.2680
     24  C17       24.0730    3.1300   52.5250 C.ar  843  195843      0.0286
     25  C18       23.5930    4.3480   52.0790 C.ar  843  195843      0.1430
     26  C19       23.1780    4.4910   50.7690 C.ar  843  195843      0.0241
     27  C20       23.2390    3.4080   49.9020 C.ar  843  195843      0.0018
     28  C21       23.7260    2.1860   50.3490 C.ar  843  195843      0.0047
     29  N4        23.5550    5.4830   52.9930 N.pl3 843  195843      0.0577
     30  O7        23.0860    6.5250   52.6650 O.2   843  195843     -0.1261
     31  O8        24.0880    5.2480   54.2110 O.2   843  195843     -0.1261
     32  N2        24.4560   -4.6940   53.5380 N.am  843  195843     -0.1754
     33  C22       25.0310   -5.9150   53.6170 C.2   843  195843      0.2690
     34  O9        26.1160   -6.1480   53.0980 O.2   843  195843     -0.2680
     35  C23       24.2500   -6.9360   54.3750 C.ar  843  195843      0.0570
     36  C24       23.1810   -6.5570   55.1910 C.ar  843  195843      0.0286
     37  C25       22.4870   -7.5270   55.9350 C.ar  843  195843      0.1430
     38  C26       22.8650   -8.8520   55.8590 C.ar  843  195843      0.0241
     39  C27       23.9220   -9.2300   55.0450 C.ar  843  195843      0.0018
     40  C28       24.6170   -8.2740   54.3030 C.ar  843  195843      0.0047
     41  N3        21.3680   -7.1460   56.8120 N.pl3 843  195843      0.0577
     42  O10       21.2680   -6.0410   57.2460 O.2   843  195843     -0.1261
     43  O11       20.4870   -8.1430   57.0810 O.2   843  195843     -0.1261
@<TRIPOS>BOND
     1    19    17   ar
     2    18    17   ar
     3    17    10    1
     4     9    10   ar
     5     9     8   ar
     6    27    28   ar
     7    27    26   ar
     8    10    11   ar
     9    28    22   ar
    10    16    14   ar
    11    26    25   ar
    12     7     8    1
    13     7     1    1
    14     8    13   ar
    15    11    14    1
    16    11    12   ar
    17    14    15   ar
    18    20     2    1
    19    20    21   am
    20     1     2   ar
    21     1     6   ar
    22    22    21    1
    23    22    24   ar
    24     2     3   ar
    25     6     5   ar
    26    25    24   ar
    27    25    29    1
    28    21    23    2
    29    13    12   ar
    30     3     4   ar
    31     5     4   ar
    32    30    29    2
    33     4    32    1
    34    29    31    2
    35    34    33    2
    36    32    33   am
    37    33    35    1
    38    40    35   ar
    39    40    39   ar
    40    35    36   ar
    41    39    38   ar
    42    36    37   ar
    43    38    37   ar
    44    37    41    1
    45    41    43    2
    46    41    42    2
