@<TRIPOS>MOLECULE
1z6s_AMP_A_1.pdb
 23 25 0 0 0
SMALL
GASTEIGER

@<TRIPOS>ATOM
      1  P         36.5640    3.2770   13.5170 P.3   1101  AMP1101     0.5327
      2  O1P       35.0570    3.4010   13.6430 O.3   1101  AMP1101    -0.1145
      3  O2P       37.2200    4.1520   12.4810 O.2   1101  AMP1101    -0.2224
      4  O3P       37.1240    1.8710   13.6030 O.3   1101  AMP1101    -0.1145
      5  O5'       37.0790    3.8790   14.9080 O.3   1101  AMP1101    -0.2675
      6  C5'       37.0180    5.2730   15.1930 C.3   1101  AMP1101     0.1860
      7  C4'       38.1040    5.5720   16.2110 C.3   1101  AMP1101     0.1823
      8  O4'       37.5740    5.4310   17.5400 O.3   1101  AMP1101    -0.3135
      9  C3'       39.2660    4.5790   16.0950 C.3   1101  AMP1101     0.2184
     10  O3'       40.5090    5.2760   15.9320 O.3   1101  AMP1101    -0.2174
     11  C2'       39.2570    3.7880   17.3970 C.3   1101  AMP1101     0.2570
     12  O2'       40.5890    3.4810   17.8430 O.3   1101  AMP1101    -0.2130
     13  C1'       38.5330    4.7340   18.3470 C.3   1101  AMP1101     0.3186
     14  N9        37.8970    4.0440   19.5010 N.pl3 1101  AMP1101    -0.1439
     15  C8        38.1490    2.7820   19.9340 C.3   1101  AMP1101     0.3377
     16  N7        37.4050    2.4750   21.0100 N.2   1101  AMP1101    -0.2095
     17  C5        36.6710    3.5590   21.2820 C.2   1101  AMP1101     0.2526
     18  C6        35.6800    3.8930   22.2950 C.2   1101  AMP1101     0.4393
     19  N6        35.3730    2.9460   23.2290 N.pl3 1101  AMP1101     0.2180
     20  N1        35.1250    5.1490   22.2450 N.2   1101  AMP1101     0.0021
     21  C2        35.4600    6.0580   21.3070 C.3   1101  AMP1101     0.5254
     22  N3        36.3690    5.8070   20.3380 N.2   1101  AMP1101    -0.0055
     23  C4        36.9900    4.5930   20.2930 C.2   1101  AMP1101     0.3518
@<TRIPOS>BOND
     1     3     1    2
     2     1     4    1
     3     1     2    1
     4     1     5    1
     5     5     6    1
     6     6     7    1
     7    10     9    1
     8     9     7    1
     9     9    11    1
    10     7     8    1
    11    11    12    1
    12    11    13    1
    13     8    13    1
    14    13    14    1
    15    14    15    1
    16    14    23    1
    17    15    16    1
    18    23    22    2
    19    23    17    1
    20    22    21    1
    21    16    17    2
    22    17    18    1
    23    21    20    1
    24    20    18    2
    25    18    19    1
