@<TRIPOS>MOLECULE
1z6t_ADP_A_1.pdb
 27 29 0 0 0
SMALL
GASTEIGER

@<TRIPOS>ATOM
      1  PB        -7.3070   45.5430   72.3700 P.3   900  ADP900      0.5373
      2  O1B       -7.0710   45.9920   73.8000 O.3   900  ADP900     -0.1143
      3  O2B       -7.3140   46.7000   71.4450 O.2   900  ADP900     -0.2221
      4  O3B       -8.3750   44.4800   72.2560 O.3   900  ADP900     -0.1143
      5  PA        -4.8060   44.2570   73.0150 P.3   900  ADP900      0.2231
      6  O1A       -3.9890   45.4140   73.4710 O.2   900  ADP900     -0.5169
      7  O2A       -5.3150   43.2310   73.9950 O.3   900  ADP900     -0.4370
      8  O3A       -5.9420   44.7820   71.9900 O.3   900  ADP900     -0.2261
      9  O5'       -3.8890   43.4740   71.9570 O.3   900  ADP900     -0.3111
     10  C5'       -4.3350   42.2100   71.4500 C.3   900  ADP900      0.1813
     11  C4'       -3.1730   41.3000   71.1560 C.3   900  ADP900      0.1821
     12  O4'       -2.3970   41.9120   70.1230 O.3   900  ADP900     -0.3135
     13  C3'       -2.2270   41.1330   72.3370 C.3   900  ADP900      0.2184
     14  O3'       -2.6030   40.0540   73.2250 O.3   900  ADP900     -0.2174
     15  C2'       -0.9270   40.9020   71.6050 C.3   900  ADP900      0.2570
     16  O2'       -0.9310   39.5220   71.1910 O.3   900  ADP900     -0.2130
     17  C1'       -0.9910   41.7730   70.3790 C.3   900  ADP900      0.3186
     18  N9        -0.3310   43.1260   70.4720 N.pl3 900  ADP900     -0.1439
     19  C8        -0.9270   44.3090   70.6960 C.3   900  ADP900      0.3377
     20  N7        -0.0640   45.3520   70.6810 N.2   900  ADP900     -0.2095
     21  C5         1.1530   44.8090   70.4130 C.2   900  ADP900      0.2526
     22  C6         2.5400   45.3180   70.2750 C.2   900  ADP900      0.4393
     23  N6         2.8490   46.6430   70.3900 N.pl3 900  ADP900      0.2180
     24  N1         3.4820   44.4430   69.9490 N.2   900  ADP900      0.0021
     25  C2         3.2480   43.1230   69.8430 C.3   900  ADP900      0.5254
     26  N3         2.0270   42.5850   69.9930 N.2   900  ADP900     -0.0055
     27  C4         0.9570   43.3680   70.2540 C.2   900  ADP900      0.3518
@<TRIPOS>BOND
     1    25    24    1
     2    25    26    1
     3    24    22    2
     4    26    27    2
     5    12    17    1
     6    12    11    1
     7    27    21    1
     8    27    18    1
     9    22    23    1
    10    22    21    1
    11    17    18    1
    12    17    15    1
    13    21    20    2
    14    18    19    1
    15    20    19    1
    16    11    10    1
    17    11    13    1
    18    16    15    1
    19     3     1    2
    20    10     9    1
    21    15    13    1
    22     9     5    1
    23     8     1    1
    24     8     5    1
    25     4     1    1
    26    13    14    1
    27     1     2    1
    28     5     6    2
    29     5     7    1
