@<TRIPOS>MOLECULE
1z6x_GDP_A_1.pdb
 28 30 0 0 0
SMALL
GASTEIGER

@<TRIPOS>ATOM
      1  PB         5.4940  -16.5270  -13.7570 P.3   201  GDP201      0.5373
      2  O1B        5.9060  -15.7530  -12.5290 O.3   201  GDP201     -0.1143
      3  O2B        4.5560  -15.6860  -14.5830 O.2   201  GDP201     -0.2221
      4  O3B        4.8260  -17.8310  -13.3720 O.3   201  GDP201     -0.1143
      5  O3A        6.7800  -16.8510  -14.6650 O.3   201  GDP201     -0.2261
      6  PA         8.2310  -17.1220  -14.0380 P.3   201  GDP201      0.2231
      7  O1A        9.1560  -15.9790  -14.3500 O.2   201  GDP201     -0.5169
      8  O2A        8.1200  -17.4110  -12.5580 O.3   201  GDP201     -0.4370
      9  O5'        8.7470  -18.4360  -14.7790 O.3   201  GDP201     -0.3111
     10  C5'        8.6790  -18.5660  -16.1880 C.3   201  GDP201      0.1813
     11  C4'        9.7650  -19.5420  -16.5800 C.3   201  GDP201      0.1799
     12  O4'       10.3420  -19.0700  -17.7870 O.3   201  GDP201     -0.3326
     13  C3'       10.8750  -19.5540  -15.5470 C.3   201  GDP201      0.2158
     14  O3'       11.4310  -20.8680  -15.4680 O.3   201  GDP201     -0.2175
     15  C2'       11.8900  -18.5530  -16.0640 C.3   201  GDP201      0.2310
     16  O2'       13.2350  -18.9120  -15.7350 O.3   201  GDP201     -0.2158
     17  C1'       11.6620  -18.5800  -17.5630 C.3   201  GDP201      0.2293
     18  N9        11.7600  -17.2320  -18.1640 N.pl3 201  GDP201     -0.2354
     19  C8        11.3410  -16.0710  -17.6310 C.3   201  GDP201      0.2246
     20  N7        11.5960  -15.0470  -18.4800 N.2   201  GDP201     -0.2322
     21  C5        12.1780  -15.5540  -19.5790 C.2   201  GDP201      0.2182
     22  C6        12.7060  -15.0260  -20.8550 C.1   201  GDP201      0.2372
     23  O6        12.6520  -13.8050  -21.1030 O.2   201  GDP201     -0.2069
     24  N1        13.2370  -15.8960  -21.7300 N.2   201  GDP201     -0.2485
     25  C2        13.3000  -17.2210  -21.4770 C.1   201  GDP201      0.2531
     26  N2        13.8460  -18.0500  -22.3940 N.pl3 201  GDP201     -0.0226
     27  N3        12.8410  -17.7670  -20.3260 N.2   201  GDP201     -0.3074
     28  C4        12.2810  -16.9970  -19.3640 C.2   201  GDP201      0.2300
@<TRIPOS>BOND
     1    26    25    1
     2    24    25    2
     3    24    22    2
     4    25    27    2
     5    23    22    2
     6    22    21    1
     7    27    28    2
     8    21    28    1
     9    21    20    2
    10    28    18    1
    11    20    19    1
    12    18    19    1
    13    18    17    1
    14    12    17    1
    15    12    11    1
    16    17    15    1
    17    11    10    1
    18    11    13    1
    19    10     9    1
    20    15    16    1
    21    15    13    1
    22    13    14    1
    23     9     6    1
    24     5     6    1
    25     5     1    1
    26     3     1    2
    27     7     6    2
    28     6     8    1
    29     1     4    1
    30     1     2    1
