@<TRIPOS>MOLECULE
1z6y_GDP_A_1.pdb
 28 30 0 0 0
SMALL
GASTEIGER

@<TRIPOS>ATOM
      1  PB        15.6750  -28.2880    8.7960 P.3   180  GDP180      0.5373
      2  O1B       16.4060  -29.2500    7.8930 O.2   180  GDP180     -0.2221
      3  O2B       16.4930  -27.8800    9.9970 O.3   180  GDP180     -0.1143
      4  O3B       15.3790  -27.0360    8.0140 O.3   180  GDP180     -0.1143
      5  O3A       14.2510  -28.8330    9.2450 O.3   180  GDP180     -0.2261
      6  PA        13.7050  -30.3140    9.3820 P.3   180  GDP180      0.2231
      7  O1A       13.4170  -30.8790    8.0060 O.2   180  GDP180     -0.5169
      8  O2A       14.4690  -31.1610   10.3410 O.3   180  GDP180     -0.4370
      9  O5'       12.2630  -30.0620   10.0500 O.3   180  GDP180     -0.3111
     10  C5'       12.2740  -29.7860   11.4340 C.3   180  GDP180      0.1813
     11  C4'       11.0680  -30.4270   12.1070 C.3   180  GDP180      0.1799
     12  O4'        9.8130  -29.9420   11.6170 O.3   180  GDP180     -0.3326
     13  C3'       11.0910  -31.9180   11.9100 C.3   180  GDP180      0.2158
     14  O3'       10.7680  -32.3660   13.2250 O.3   180  GDP180     -0.2175
     15  C2'        9.9410  -32.2470   11.0020 C.3   180  GDP180      0.2310
     16  O2'        9.3510  -33.4620   11.5140 O.3   180  GDP180     -0.2158
     17  C1'        9.0230  -31.0080   11.1220 C.3   180  GDP180      0.2293
     18  N9         8.4430  -30.6450    9.8060 N.pl3 180  GDP180     -0.2354
     19  C8         9.0280  -30.5460    8.5960 C.3   180  GDP180      0.2246
     20  N7         8.1090  -30.2210    7.6440 N.2   180  GDP180     -0.2322
     21  C5         6.8910  -30.1120    8.2510 C.2   180  GDP180      0.2182
     22  C6         5.4830  -29.8100    7.8680 C.1   180  GDP180      0.2372
     23  O6         5.1450  -29.5360    6.6690 O.2   180  GDP180     -0.2069
     24  N1         4.5660  -29.8110    8.8750 N.2   180  GDP180     -0.2485
     25  C2         4.8770  -30.0860   10.1650 C.1   180  GDP180      0.2531
     26  N2         3.9400  -30.1470   11.1410 N.pl3 180  GDP180     -0.0226
     27  N3         6.1360  -30.3630   10.5650 N.2   180  GDP180     -0.3074
     28  C4         7.1450  -30.3840    9.6680 C.2   180  GDP180      0.2300
@<TRIPOS>BOND
     1    23    22    2
     2    20    21    2
     3    20    19    1
     4    22    21    1
     5    22    24    2
     6     2     1    2
     7     7     6    2
     8     4     1    1
     9    21    28    1
    10    19    18    1
    11     1     5    1
    12     1     3    1
    13    24    25    2
    14     5     6    1
    15     6     9    1
    16     6     8    1
    17    28    18    1
    18    28    27    2
    19    18    17    1
    20     9    10    1
    21    25    27    2
    22    25    26    1
    23    15    17    1
    24    15    16    1
    25    15    13    1
    26    17    12    1
    27    10    11    1
    28    12    11    1
    29    13    11    1
    30    13    14    1
