@<TRIPOS>MOLECULE
1z71_L17_A_1.pdb
 33 35 0 0 0
SMALL
GASTEIGER

@<TRIPOS>ATOM
      1  C8        20.0150  -14.4520   25.9800 C.2   1001  L171001     0.0039
      2  C2        20.0080  -15.8630   25.6670 C.3   1001  L171001     0.1972
      3  N1        21.1590  -16.4500   25.0960 N.4   1001  L171001    -0.1976
      4  C4        22.3270  -15.7730   24.7830 C.2   1001  L171001     0.1032
      5  C5        22.3750  -14.3660   25.0730 C.2   1001  L171001     0.0205
      6  C6        21.2230  -13.7280   25.6780 C.2   1001  L171001    -0.0009
      7  C11       18.7320  -16.6920   25.8170 C.3   1001  L171001     0.3104
      8  C1        18.0480  -17.0120   24.5060 C.3   1001  L171001     0.1958
      9  N18       17.5600  -15.8210   23.7490 N.2   1001  L171001    -0.2455
     10  C21       18.2560  -15.2230   22.6700 C.ar  1001  L171001     0.1785
     11  N2        17.6350  -14.1230   22.1380 N.ar  1001  L171001    -0.1155
     12  C10       18.2380  -13.4140   21.1620 C.ar  1001  L171001     0.1012
     13  C24       19.5230  -13.8110   20.6900 C.ar  1001  L171001     0.0733
     14  C25       20.1930  -14.9530   21.2110 C.ar  1001  L171001     0.0158
     15  C3        19.5470  -15.6850   22.2320 C.ar  1001  L171001     0.0409
     16  O28       16.3940  -13.7880   22.6310 O.3   1001  L171001    -0.1621
     17 CL2        20.2830  -12.9060   19.4560 Cl    1001  L171001    -0.0810
     18  C33       17.5180  -12.1950   20.6020 C.3   1001  L171001     0.1350
     19  C34       16.0640  -12.5320   20.2690 C.2   1001  L171001     0.2477
     20  N37       15.1880  -11.5910   20.6320 N.am  1001  L171001    -0.2024
     21  O38       15.7710  -13.5730   19.6870 O.2   1001  L171001    -0.2729
     22  C39       13.7570  -11.8680   20.4670 C.3   1001  L171001     0.1176
     23  C40       12.9560  -11.5960   21.6780 C.ar  1001  L171001    -0.0017
     24  C43       13.1500  -10.3940   22.4510 C.ar  1001  L171001     0.0088
     25  C44       12.2640  -10.1810   23.5720 C.ar  1001  L171001     0.0574
     26  C45       11.2270  -11.1410   23.9240 C.ar  1001  L171001     0.0114
     27  C50       11.9040  -12.5330   22.0220 C.ar  1001  L171001    -0.0026
     28  C9        11.0180  -12.3300   23.1430 C.ar  1001  L171001     0.0006
     29  F1        19.0440  -17.9000   26.3340 F     1001  L171001    -0.1997
     30  F2        17.8050  -16.0930   26.6000 F     1001  L171001    -0.1997
     31 CL1        12.4230   -8.7350   24.4950 Cl    1001  L171001    -0.0823
     32  O1        21.1140  -17.7710   24.7870 O.3   1001  L171001    -0.0837
     33  C7        13.1740  -11.0330   19.3310 C.3   1001  L171001     0.0283
@<TRIPOS>BOND
     1    33    22    1
     2    17    13    1
     3    21    19    2
     4    19    18    1
     5    19    20   am
     6    22    20    1
     7    22    23    1
     8    18    12    1
     9    13    12   ar
    10    13    14   ar
    11    12    11   ar
    12    14    15   ar
    13    23    27   ar
    14    23    24   ar
    15    27    28   ar
    16    11    16    1
    17    11    10   ar
    18    15    10   ar
    19    24    25   ar
    20    10     9    2
    21    28    26   ar
    22    25    26   ar
    23    25    31    1
    24     9     8    1
    25     8     7    1
    26     4     5    2
    27     4     3    1
    28    32     3    1
    29     5     6    1
    30     3     2    1
    31     2     7    1
    32     2     1    1
    33     6     1    2
    34     7    29    1
    35     7    30    1
