@<TRIPOS>MOLECULE
1z76_PBP_A_1.pdb
 10 10 0 0 0
SMALL
GASTEIGER

@<TRIPOS>ATOM
      1  CH        26.3040   40.5580   32.9400 C.3   1048  PBP1048     0.0773
      2  CG        25.5900   39.1400   30.7530 C.ar  1048  PBP1048     0.0347
      3  CD1       25.0480   39.0730   29.4410 C.ar  1048  PBP1048     0.0033
      4  CE1       24.8840   37.7840   28.7830 C.ar  1048  PBP1048     0.0068
      5  CD2       25.9670   37.8930   31.3810 C.ar  1048  PBP1048     0.0033
      6  CE2       25.8010   36.6230   30.7170 C.ar  1048  PBP1048     0.0068
      7  CZ        25.2470   36.5680   29.4130 C.ar  1048  PBP1048     0.0346
      8 BR         24.9560   34.8400   28.4980 Br    1048  PBP1048    -0.0490
      9  CR        25.7440   40.4060   31.4740 C.2   1048  PBP1048     0.1735
     10  O         25.3850   41.4900   30.9130 O.2   1048  PBP1048    -0.2913
@<TRIPOS>BOND
     1     8     7    1
     2     4     7   ar
     3     4     3   ar
     4     7     6   ar
     5     3     2   ar
     6     6     5   ar
     7     2     5   ar
     8     2     9    1
     9    10     9    2
    10     9     1    1
