@<TRIPOS>MOLECULE
1z7e_UGA_A_1.pdb
 37 39 0 0 0
SMALL
GASTEIGER

@<TRIPOS>ATOM
      1  C1'      117.0650   -4.5540   46.7440 C.3   1101  UGA1101     0.2746
      2  C2'      118.2210   -3.7680   47.3870 C.3   1101  UGA1101     0.2409
      3  O2'      117.6990   -2.7220   48.1910 O.3   1101  UGA1101    -0.2149
      4  C3'      119.1680   -3.1690   46.3510 C.3   1101  UGA1101     0.2203
      5  O3'      120.3110   -2.6620   47.0080 O.3   1101  UGA1101    -0.2174
      6  C4'      119.6150   -4.2340   45.3900 C.3   1101  UGA1101     0.2229
      7  O4'      120.5030   -3.6950   44.4230 O.3   1101  UGA1101    -0.2171
      8  C5'      118.3970   -4.8380   44.7180 C.3   1101  UGA1101     0.2529
      9  O5'      117.5840   -5.4510   45.7390 O.3   1101  UGA1101    -0.3167
     10  C6'      118.8600   -5.9660   43.7740 C.2   1101  UGA1101     0.3941
     11  O'P      119.3280   -7.0580   44.2740 O.co2 1101  UGA1101    -0.2429
     12  O'Q      119.1160   -5.6360   42.5890 O.co2 1101  UGA1101    -0.2429
     13  PB       114.6110   -4.0060   45.7220 P.3   1101  UGA1101     0.2208
     14  O1B      114.7170   -5.0530   44.6640 O.2   1101  UGA1101    -0.5170
     15  O2B      113.9460   -2.7090   45.3930 O.3   1101  UGA1101    -0.4371
     16  O3B      116.0630   -3.5970   46.3350 O.3   1101  UGA1101    -0.2857
     17  O3A      113.6740   -4.5230   46.9270 O.3   1101  UGA1101    -0.2703
     18  PA       113.2600   -5.9890   47.4800 P.3   1101  UGA1101     0.2189
     19  O1A      113.2470   -5.9370   48.9860 O.3   1101  UGA1101    -0.4371
     20  O2A      114.1540   -6.9900   46.8110 O.2   1101  UGA1101    -0.5170
     21  O5D      111.7740   -6.2030   46.9480 O.3   1101  UGA1101    -0.3112
     22  C5D      111.3580   -5.7340   45.6610 C.3   1101  UGA1101     0.1813
     23  C4D      110.0060   -5.0630   45.7700 C.3   1101  UGA1101     0.1799
     24  O4D      108.9990   -6.0390   46.1300 O.3   1101  UGA1101    -0.3320
     25  C3D      109.9260   -4.0630   46.9090 C.3   1101  UGA1101     0.2158
     26  O3D      110.4620   -2.7990   46.5320 O.3   1101  UGA1101    -0.2175
     27  C2D      108.4360   -3.9860   47.2090 C.3   1101  UGA1101     0.2319
     28  O2D      107.7520   -3.0510   46.4240 O.3   1101  UGA1101    -0.2157
     29  C1D      107.9740   -5.4010   46.8710 C.3   1101  UGA1101     0.2401
     30  N1       107.7010   -6.1700   48.0880 N.am  1101  UGA1101    -0.1766
     31  C6       108.7060   -6.5540   48.9370 C.2   1101  UGA1101     0.0929
     32  C2       106.3850   -6.4750   48.3570 C.1   1101  UGA1101     0.2845
     33  O2       105.4650   -6.1440   47.6320 O.2   1101  UGA1101    -0.1918
     34  N3       106.1830   -7.1750   49.5160 N.2   1101  UGA1101    -0.2452
     35  C4       107.1430   -7.5810   50.4210 C.1   1101  UGA1101     0.2182
     36  O4       106.7980   -8.1670   51.4500 O.2   1101  UGA1101    -0.2085
     37  C5       108.4780   -7.2290   50.0680 C.2   1101  UGA1101     0.1242
@<TRIPOS>BOND
     1    12    10   ar
     2    10    11   ar
     3    10     8    1
     4     7     6    1
     5    14    13    2
     6     8     6    1
     7     8     9    1
     8     6     4    1
     9    15    13    1
    10    22    23    1
    11    22    21    1
    12    13    16    1
    13    13    17    1
    14     9     1    1
    15    23    24    1
    16    23    25    1
    17    24    29    1
    18    16     1    1
    19     4     5    1
    20     4     2    1
    21    28    27    1
    22    26    25    1
    23     1     2    1
    24    20    18    2
    25    29    27    1
    26    29    30    1
    27    25    27    1
    28    17    18    1
    29    21    18    1
    30     2     3    1
    31    18    19    1
    32    33    32    2
    33    30    32   am
    34    30    31    1
    35    32    34    2
    36    31    37    2
    37    34    35    2
    38    37    35    1
    39    35    36    2
