@<TRIPOS>MOLECULE
1z7e_ATP_A_1.pdb
 31 33 0 0 0
SMALL
GASTEIGER

@<TRIPOS>ATOM
      1  PG       123.1980   -8.1300   47.7160 P.3   1001  ATP1001     0.5373
      2  O1G      123.5780   -6.6680   47.9180 O.3   1001  ATP1001    -0.1143
      3  O2G      124.1700   -8.9650   46.9100 O.2   1001  ATP1001    -0.2221
      4  O3G      121.7200   -8.4130   47.4720 O.3   1001  ATP1001    -0.1143
      5  PB       124.7890   -8.9590   50.1330 P.3   1001  ATP1001     0.2277
      6  O1B      125.2920  -10.3780   49.9710 O.3   1001  ATP1001    -0.4368
      7  O2B      125.7400   -7.7980   49.9040 O.2   1001  ATP1001    -0.5168
      8  O3B      123.4670   -8.7330   49.2110 O.3   1001  ATP1001    -0.2258
      9  PA       124.5290   -9.3980   53.0600 P.3   1001  ATP1001     0.2189
     10  O1A      123.3880   -8.9990   53.9570 O.3   1001  ATP1001    -0.4371
     11  O2A      124.8400  -10.8510   52.8790 O.2   1001  ATP1001    -0.5170
     12  O3A      124.1630   -8.8170   51.6080 O.3   1001  ATP1001    -0.2700
     13  O5'      125.7960   -8.5890   53.5990 O.3   1001  ATP1001    -0.3112
     14  C5'      127.1160   -9.1300   53.5630 C.3   1001  ATP1001     0.1813
     15  C4'      127.6860   -9.2890   54.9700 C.3   1001  ATP1001     0.1821
     16  O4'      128.1300   -8.0540   55.5730 O.3   1001  ATP1001    -0.3135
     17  C3'      126.7690   -9.8870   56.0250 C.3   1001  ATP1001     0.2184
     18  O3'      126.8700  -11.3070   55.9920 O.3   1001  ATP1001    -0.2174
     19  C2'      127.3190   -9.3840   57.3620 C.3   1001  ATP1001     0.2570
     20  O2'      127.9920  -10.3700   58.0910 O.3   1001  ATP1001    -0.2130
     21  C1'      128.3390   -8.3390   56.9340 C.3   1001  ATP1001     0.3186
     22  N9       128.4510   -7.1390   57.7580 N.pl3 1001  ATP1001    -0.1439
     23  C8       127.5450   -6.1600   58.0590 C.3   1001  ATP1001     0.3377
     24  N7       128.0100   -5.2480   58.8830 N.2   1001  ATP1001    -0.2095
     25  C5       129.3140   -5.6570   59.1340 C.2   1001  ATP1001     0.2526
     26  C6       130.3540   -5.1130   59.9220 C.2   1001  ATP1001     0.4393
     27  N6       130.2390   -3.9970   60.6370 N.pl3 1001  ATP1001     0.2180
     28  N1       131.5350   -5.7690   59.9420 N.2   1001  ATP1001     0.0021
     29  C2       131.6570   -6.8840   59.2210 C.3   1001  ATP1001     0.5254
     30  N3       130.7600   -7.4880   58.4440 N.2   1001  ATP1001    -0.0055
     31  C4       129.5970   -6.8150   58.4440 C.2   1001  ATP1001     0.3518
@<TRIPOS>BOND
     1     3     1    2
     2     4     1    1
     3     1     2    1
     4     1     8    1
     5     8     5    1
     6     7     5    2
     7     6     5    1
     8     5    12    1
     9    12     9    1
    10    11     9    2
    11     9    13    1
    12     9    10    1
    13    14    13    1
    14    14    15    1
    15    15    16    1
    16    15    17    1
    17    16    21    1
    18    18    17    1
    19    17    19    1
    20    21    19    1
    21    21    22    1
    22    19    20    1
    23    22    23    1
    24    22    31    1
    25    23    24    1
    26    30    31    2
    27    30    29    1
    28    31    25    1
    29    24    25    2
    30    25    26    1
    31    29    28    1
    32    26    28    2
    33    26    27    1
