@<TRIPOS>MOLECULE
1z7j_T4A_A_1.pdb
 22 23 0 0 0
SMALL
GASTEIGER

@<TRIPOS>ATOM
      1  C1        21.6590   44.1090    0.9660 C.ar  128  T4A128     -0.0099
      2  C2        22.6320   44.5580    1.8230 C.ar  128  T4A128      0.0051
      3  C3        22.8670   43.8530    3.0340 C.ar  128  T4A128      0.0647
      4  C4        22.1430   42.7350    3.3670 C.ar  128  T4A128      0.1558
      5  C5        21.1710   42.3090    2.5050 C.ar  128  T4A128      0.0647
      6  C6        20.9100   42.9910    1.2780 C.ar  128  T4A128      0.0051
      7  C7        21.4570   44.8180   -0.3740 C.3   128  T4A128      0.1404
      8  C8        21.7310   44.0670   -1.5240 C.2   128  T4A128      0.3692
      9  C1'       21.8040   42.3550    5.7590 C.ar  128  T4A128      0.1464
     10  C6'       21.0750   43.5330    5.8840 C.ar  128  T4A128      0.0465
     11  C5'       20.4950   43.8070    7.1590 C.ar  128  T4A128      0.0724
     12  C4'       20.6250   42.9630    8.2560 C.ar  128  T4A128      0.2064
     13  C3'       21.3490   41.8130    8.0900 C.ar  128  T4A128      0.0724
     14  C2'       21.9570   41.4730    6.8540 C.ar  128  T4A128      0.0465
     15  I3        24.3650   44.5760    4.2980 I     128  T4A128     -0.0393
     16  I5        20.0260   40.6140    2.9610 I     128  T4A128     -0.0393
     17  I5'       19.4030   45.5720    7.3580 I     128  T4A128     -0.0391
     18  I3'       21.5810   40.4940    9.7180 I     128  T4A128     -0.0391
     19  O8        21.6840   42.8060   -1.4680 O.co2 128  T4A128     -0.2453
     20  O9        22.0150   44.6660   -2.6010 O.co2 128  T4A128     -0.2453
     21  O4        22.4090   42.0280    4.5490 O.3   128  T4A128     -0.4526
     22  O4'       20.0520   43.2650    9.4630 O.3   128  T4A128     -0.2857
@<TRIPOS>BOND
     1    20     8   ar
     2     8    19   ar
     3     8     7    1
     4     7     1    1
     5     1     6   ar
     6     1     2   ar
     7     6     5   ar
     8     2     3   ar
     9     5    16    1
    10     5     4   ar
    11     3     4   ar
    12     3    15    1
    13     4    21    1
    14    21     9    1
    15     9    10   ar
    16     9    14   ar
    17    10    11   ar
    18    14    13   ar
    19    11    17    1
    20    11    12   ar
    21    13    12   ar
    22    13    18    1
    23    12    22    1
