@<TRIPOS>MOLECULE
1z7l_TBR_A_1.pdb
 18 16 0 0 0
SMALL
GASTEIGER

@<TRIPOS>ATOM
      1 TA1        56.6370    2.9180   65.1260 Ta    999  TBR999      0.0000
      2 TA2        57.3090    1.1620   62.8620 Ta    999  TBR999      0.0000
      3 TA3        55.7770    3.6460   62.4100 Ta    999  TBR999      0.0000
      4 TA4        58.5710    3.4330   61.5140 Ta    999  TBR999      0.0000
      5 TA5        57.9200    5.1570   63.7490 Ta    999  TBR999      0.0000
      6 TA6        59.4290    2.6970   64.1920 Ta    999  TBR999      0.0000
      7 BR1        56.0350    0.3710   64.9910 Br    999  TBR999      0.0000
      8 BR2        54.1670    3.4280   64.4770 Br    999  TBR999      0.0000
      9 BR3        56.8010    5.3110   66.0900 Br    999  TBR999      0.0000
     10 BR4        58.6700    2.2710   66.6460 Br    999  TBR999      0.0000
     11 BR5        54.9980    1.2690   61.6650 Br    999  TBR999      0.0000
     12 BR6        55.7710    6.2110   62.7680 Br    999  TBR999      0.0000
     13 BR7        59.1830    5.9620   61.6310 Br    999  TBR999      0.0000
     14 BR8        61.0460    2.9190   62.1480 Br    999  TBR999      0.0000
     15 BR9        58.4250    1.0250   60.5280 Br    999  TBR999      0.0000
     16 BRA        56.5610    4.0730   59.9810 Br    999  TBR999      0.0000
     17 BRB        60.2180    5.0680   64.9410 Br    999  TBR999      0.0000
     18 BRC        59.4570    0.1090   63.8390 Br    999  TBR999      0.0000
@<TRIPOS>BOND
     1    16     3    1
     2    15     2    1
     3     4    14    1
     4     4     5    1
     5     4     6    1
     6    13     5    1
     7    11     2    1
     8     3     1    1
     9    12     5    1
    10     2    18    1
    11     2     7    1
    12     5     6    1
    13     5    17    1
    14     6    10    1
    15     8     1    1
    16     1     9    1
