@<TRIPOS>MOLECULE
1z7n_PRP_E_1.pdb
 22 22 0 0 0
SMALL
GASTEIGER

@<TRIPOS>ATOM
      1  C1       118.3710   -0.9720   -5.2140 C.3   4007  PRP4007     0.2742
      2  C2       119.7070   -0.1720   -5.2980 C.3   4007  PRP4007     0.2408
      3  C3       120.4090   -0.7560   -6.5130 C.3   4007  PRP4007     0.2167
      4  C4       119.9730   -2.1970   -6.5560 C.3   4007  PRP4007     0.1808
      5  C5       121.0370   -3.1410   -6.0990 C.3   4007  PRP4007     0.1859
      6  O1       117.3420   -0.2710   -6.0450 O.3   4007  PRP4007    -0.2857
      7  O2       119.4330    1.2310   -5.4140 O.3   4007  PRP4007    -0.2149
      8  O3       119.9640   -0.0190   -7.6790 O.3   4007  PRP4007    -0.2175
      9  O4       118.7060   -2.2530   -5.7230 O.3   4007  PRP4007    -0.3255
     10  O5       121.7390   -3.8020   -7.1790 O.3   4007  PRP4007    -0.2675
     11  P        123.2670   -4.3620   -7.0920 P.3   4007  PRP4007     0.5327
     12  O1P      123.7290   -4.7500   -8.4860 O.2   4007  PRP4007    -0.2224
     13  O2P      124.1270   -3.2750   -6.4570 O.3   4007  PRP4007    -0.1145
     14  O3P      123.1170   -5.5850   -6.1890 O.3   4007  PRP4007    -0.1145
     15  PA       115.7320   -0.5460   -5.8840 P.3   4007  PRP4007     0.2249
     16  O1A      115.3320   -0.5180   -4.4620 O.3   4007  PRP4007    -0.4370
     17  O2A      115.0150    0.4220   -6.7610 O.2   4007  PRP4007    -0.5169
     18  O3A      115.6640   -2.0540   -6.4340 O.3   4007  PRP4007    -0.2260
     19  PB       116.0290   -2.6130   -7.9670 P.3   4007  PRP4007     0.5373
     20  O1B      117.1820   -3.6060   -7.7440 O.3   4007  PRP4007    -0.1143
     21  O2B      116.4340   -1.4080   -8.7940 O.2   4007  PRP4007    -0.2221
     22  O3B      114.7630   -3.2800   -8.4580 O.3   4007  PRP4007    -0.1143
@<TRIPOS>BOND
     1    21    19    2
     2    12    11    2
     3    22    19    1
     4    19    20    1
     5    19    18    1
     6     8     3    1
     7    10    11    1
     8    10     5    1
     9    11    13    1
    10    11    14    1
    11    17    15    2
    12     4     3    1
    13     4     5    1
    14     4     9    1
    15     3     2    1
    16    18    15    1
    17     6    15    1
    18     6     1    1
    19    15    16    1
    20     9     1    1
    21     7     2    1
    22     2     1    1
