@<TRIPOS>MOLECULE
1z7w_PLP_A_1.pdb
 15 15 0 0 0
SMALL
GASTEIGER

@<TRIPOS>ATOM
      1  N1        80.2850   44.5630  -19.9410 N.ar  400  PLP400     -0.2452
      2  C2        79.1660   44.0430  -19.3250 C.ar  400  PLP400      0.0978
      3  C2A       77.8810   44.0040  -20.1600 C.3   400  PLP400      0.0555
      4  C3        79.2780   43.6040  -18.0110 C.ar  400  PLP400      0.2049
      5  O3        78.1180   43.0840  -17.4230 O.3   400  PLP400     -0.2857
      6  C4        80.4700   43.6680  -17.2830 C.ar  400  PLP400      0.0182
      7  C4A       80.5320   43.1680  -15.8160 C.3   400  PLP400      0.0342
      8  C5        81.6290   44.2100  -17.9180 C.ar  400  PLP400      0.0261
      9  C6        81.4650   44.6340  -19.2420 C.ar  400  PLP400      0.0965
     10  C5A       83.0180   44.3770  -17.2950 C.3   400  PLP400      0.1815
     11  O4P       83.6020   43.2500  -16.6590 O.3   400  PLP400     -0.2653
     12  P         84.2790   43.3540  -15.2440 P.3   400  PLP400      0.5329
     13  O1P       84.7370   41.9680  -15.0140 O.3   400  PLP400     -0.1145
     14  O2P       83.2170   43.7500  -14.2760 O.3   400  PLP400     -0.1145
     15  O3P       85.3800   44.3130  -15.2890 O.2   400  PLP400     -0.2224
@<TRIPOS>BOND
     1     3     2    1
     2     1     2   ar
     3     1     9   ar
     4     2     4   ar
     5     9     8   ar
     6     4     5    1
     7     4     6   ar
     8     8    10    1
     9     8     6   ar
    10    10    11    1
    11     6     7    1
    12    11    12    1
    13    15    12    2
    14    12    13    1
    15    12    14    1
