@<TRIPOS>MOLECULE
1z7y_AA5_A_1.pdb
 24 24 0 0 0
SMALL
GASTEIGER

@<TRIPOS>ATOM
      1  N         78.9700   42.5890  -14.4870 N.3   501  AA5501     -0.1993
      2  CA        78.8690   43.0960  -13.0760 C.3   501  AA5501      0.1988
      3  C         77.3660   43.3500  -12.6800 C.2   501  AA5501      0.3844
      4  O1        77.0130   43.2560  -11.4800 O.co2 501  AA5501     -0.2437
      5  CB        79.7120   44.4120  -12.8710 C.2   501  AA5501      0.0089
      6  CG        79.0580   45.7150  -13.3730 C.2   501  AA5501      0.0283
      7  SD        80.0140   47.2380  -13.1020 S.3   501  AA5501     -0.1125
      8  CE        78.7130   48.3340  -12.4600 C.3   501  AA5501      0.0742
      9  O2        76.5420   43.6690  -13.5640 O.co2 501  AA5501     -0.2437
     10  C2        79.5060   43.2790  -18.7820 C.ar  501  AA5501      0.0978
     11  C2A       78.4150   43.1700  -19.8330 C.3   501  AA5501      0.0555
     12  C3        79.2990   42.7630  -17.5020 C.ar  501  AA5501      0.2062
     13  C4        80.3400   42.8790  -16.5000 C.ar  501  AA5501      0.0353
     14  C4A       80.0880   42.3030  -15.0700 C.3   501  AA5501      0.1189
     15  C5        81.5790   43.5060  -16.8280 C.ar  501  AA5501      0.0275
     16  C5A       82.7200   43.6840  -15.7850 C.3   501  AA5501      0.1816
     17  C6        81.7500   44.0070  -18.1290 C.ar  501  AA5501      0.0965
     18  N1        80.7250   43.8850  -19.0950 N.ar  501  AA5501     -0.2452
     19  O1P       85.7570   41.6660  -14.3010 O.3   501  AA5501     -0.1145
     20  O2P       85.5940   44.0970  -14.5930 O.2   501  AA5501     -0.2224
     21  O3        78.0830   42.1710  -17.2170 O.3   501  AA5501     -0.2856
     22  O3P       83.8880   42.9860  -13.1500 O.3   501  AA5501     -0.1145
     23  O4P       83.7610   42.6750  -15.6910 O.3   501  AA5501     -0.2653
     24  P         84.7450   42.7450  -14.3610 P.3   501  AA5501      0.5329
@<TRIPOS>BOND
     1    11    10    1
     2    18    10   ar
     3    18    17   ar
     4    10    12   ar
     5    17    15   ar
     6    12    21    1
     7    12    13   ar
     8    15    13   ar
     9    15    16    1
    10    13    14    1
    11    16    23    1
    12    23    24    1
    13    14     1    1
    14    20    24    2
    15     1     2    1
    16    24    19    1
    17    24    22    1
    18     9     3   ar
    19     6     7    1
    20     6     5    2
    21     7     8    1
    22     2     5    1
    23     2     3    1
    24     3     4   ar
