@<TRIPOS>MOLECULE
1z7z_III_5_1.pdb
 38 37 0 0 0
SMALL
GASTEIGER

@<TRIPOS>ATOM
      1  N         51.1280   13.8940  136.1830 N.3   235  LEU235     -0.1231
      2  CA        50.5950   12.6130  136.5920 C.3   235  LEU235      0.1693
      3  C         51.5410   11.7230  137.3830 C.2   235  LEU235      0.2592
      4  O         52.7240   11.5860  137.0760 O.2   235  LEU235     -0.2718
      5  CB        49.8820   11.8400  135.4460 C.3   235  LEU235      0.0284
      6  CG        50.7430   11.3190  134.2730 C.3   235  LEU235      0.0019
      7  CD1       49.9500   10.2590  133.4900 C.3   235  LEU235      0.0001
      8  CD2       51.1920   12.4260  133.3060 C.3   235  LEU235      0.0001
      9  N         50.9720   11.1210  138.4550 N.am  236  ILE236     -0.1966
     10  CA        51.5620   10.2860  139.4960 C.3   236  ILE236      0.1727
     11  C         52.7710    9.4540  139.0830 C.2   236  ILE236      0.2617
     12  O         53.8600    9.5920  139.6370 O.2   236  ILE236     -0.2715
     13  CB        50.4530    9.4470  140.1770 C.3   236  ILE236      0.0290
     14  CG1       50.9590    8.5050  141.3060 C.3   236  ILE236      0.0022
     15  CG2       49.5970    8.6780  139.1350 C.3   236  ILE236      0.0023
     16  CD1       49.8580    7.6490  141.9500 C.3   236  ILE236      0.0001
     17  N         52.6140    8.5540  138.0970 N.am  237  GLY237     -0.1940
     18  CA        53.6120    7.5530  137.7790 C.3   237  GLY237      0.2014
     19  C         53.2850    6.3040  138.5400 C.2   237  GLY237      0.2639
     20  O         52.2300    5.7190  138.3170 O.2   237  GLY237     -0.2714
     21  N         54.1870    5.8780  139.4510 N.am  238  ARG238     -0.1963
     22  CA        54.0860    4.6230  140.1880 C.3   238  ARG238      0.1729
     23  C         55.3740    4.3510  140.9410 C.2   238  ARG238      0.2616
     24  O         55.3400    3.9090  142.0850 O.2   238  ARG238     -0.2715
     25  CB        53.7850    3.4350  139.2380 C.3   238  ARG238      0.0348
     26  CG        54.0870    2.0000  139.7080 C.3   238  ARG238      0.0492
     27  CD        53.7880    1.0460  138.5540 C.3   238  ARG238      0.2205
     28  NE        54.2300   -0.3440  138.8590 N.pl3 238  ARG238     -0.0865
     29  CZ        55.4400   -0.7800  138.4840 C.cat 238  ARG238      0.5346
     30  NH1       56.5620   -0.0800  138.6390 N.pl3 238  ARG238      0.1354
     31  NH2       55.5180   -1.9740  137.8980 N.pl3 238  ARG238      0.1354
     32  N         56.5340    4.6120  140.3010 N.am  239  THR239     -0.1951
     33  CA        57.8820    4.3040  140.7960 C.3   239  THR239      0.1897
     34  C         58.2140    2.7930  140.7190 C.2   239  THR239      0.2313
     35  O         57.6150    2.1110  139.8340 O.2   239  THR239     -0.2863
     36  CB        58.3500    5.0520  142.0660 C.3   239  THR239      0.1794
     37  OG1       57.5690    4.8000  143.2260 O.3   239  THR239     -0.2208
     38  CG2       58.2170    6.5510  141.7530 C.3   239  THR239      0.0378
@<TRIPOS>BOND
     1     8     6    1
     2     7     6    1
     3     6     5    1
     4     5     2    1
     5     1     2    1
     6     2     3    1
     7     4     3    2
     8     3     9   am
     9    18    17    1
    10    18    19    1
    11    31    29    1
    12    17    11   am
    13    20    19    2
    14     9    10    1
    15    29    30    1
    16    29    28    2
    17    19    21   am
    18    27    28    1
    19    27    26    1
    20    11    10    1
    21    11    12    2
    22    15    13    1
    23    25    26    1
    24    25    22    1
    25    21    22    1
    26    10    13    1
    27    35    34    2
    28    13    14    1
    29    22    23    1
    30    32    33    1
    31    32    23   am
    32    34    33    1
    33    33    36    1
    34    23    24    2
    35    14    16    1
    36    38    36    1
    37    36    37    1
