@<TRIPOS>MOLECULE
1z82_G3H_A_1.pdb
 10 9 0 0 0
SMALL
GASTEIGER

@<TRIPOS>ATOM
      1  O1        30.7200   27.2280   47.0540 O.3   600  G3H600     -0.2175
      2  C1        29.3120   27.1270   46.9230 C.3   600  G3H600      0.2174
      3  C2        28.6300   27.0800   48.2940 C.3   600  G3H600      0.2147
      4  O2        28.5800   28.3720   48.8820 O.3   600  G3H600     -0.2176
      5  C3        27.1950   26.5740   48.1410 C.3   600  G3H600      0.1892
      6  O1P       26.3950   27.5110   47.4050 O.3   600  G3H600     -0.2674
      7  O2P       24.5640   27.9770   49.1120 O.3   600  G3H600     -0.1145
      8  O3P       24.1920   28.4750   46.6660 O.2   600  G3H600     -0.2224
      9  O4P       24.2660   26.0610   47.6640 O.3   600  G3H600     -0.1145
     10  P         24.7720   27.5190   47.6790 P.3   600  G3H600      0.5327
@<TRIPOS>BOND
     1     8    10    2
     2     2     1    1
     3     2     3    1
     4     6    10    1
     5     6     5    1
     6     9    10    1
     7    10     7    1
     8     5     3    1
     9     3     4    1
