@<TRIPOS>MOLECULE
1z82_G3P_B_1.pdb
 10 9 0 0 0
SMALL
GASTEIGER

@<TRIPOS>ATOM
      1  O1        31.4490   32.7000   22.8620 O.3   600  G3P600     -0.2175
      2  C1        30.7770   31.5880   22.3510 C.3   600  G3P600      0.2174
      3  C2        31.7980   30.7480   21.6330 C.3   600  G3P600      0.2147
      4  O2        32.8300   31.3570   20.9180 O.3   600  G3P600     -0.2176
      5  C3        31.2680   29.5770   20.8500 C.3   600  G3P600      0.1892
      6  O1P       31.9760   28.5670   21.5370 O.3   600  G3P600     -0.2674
      7  O4P       32.8840   26.3110   22.0570 O.3   600  G3P600     -0.1145
      8  O2P       33.0200   27.3220   19.6760 O.2   600  G3P600     -0.2224
      9  O3P       30.8680   26.5650   20.5400 O.3   600  G3P600     -0.1145
     10  P         32.2110   27.1290   20.9530 P.3   600  G3P600      0.5327
@<TRIPOS>BOND
     1     8    10    2
     2     9    10    1
     3     5     6    1
     4     5     3    1
     5     4     3    1
     6    10     6    1
     7    10     7    1
     8     3     2    1
     9     2     1    1
