@<TRIPOS>MOLECULE
1z82_NDP_A_1.pdb
 48 52 0 0 0
SMALL
GASTEIGER

@<TRIPOS>ATOM
      1  PA        30.9200   26.2210   12.1700 P.3   500  NDP500      0.2189
      2  O1A       29.4640   26.4040   12.3920 O.2   500  NDP500     -0.5170
      3  O2A       31.5990   25.4430   13.2130 O.3   500  NDP500     -0.4371
      4  O5B       31.2290   25.5260   10.7530 O.3   500  NDP500     -0.3112
      5  C5B       32.5640   25.4350   10.2650 C.3   500  NDP500      0.1813
      6  C4B       32.7550   26.2950    9.0170 C.3   500  NDP500      0.1820
      7  O4B       34.0510   26.1080    8.4370 O.3   500  NDP500     -0.3136
      8  C3B       31.7610   25.9980    7.8950 C.3   500  NDP500      0.2157
      9  O3B       31.2080   27.2100    7.3820 O.3   500  NDP500     -0.2175
     10  C2B       32.6520   25.3380    6.8540 C.3   500  NDP500      0.2314
     11  O2B       32.1240   25.4240    5.5520 O.3   500  NDP500     -0.2630
     12  C1B       33.8700   26.2280    7.0310 C.3   500  NDP500      0.3158
     13  N9A       35.0400   26.0970    6.0920 N.pl3 500  NDP500     -0.1439
     14  C8A       35.5470   27.1020    5.2410 C.3   500  NDP500      0.3377
     15  N7A       36.6230   26.6650    4.5350 N.2   500  NDP500     -0.2095
     16  C5A       36.7840   25.3980    4.9940 C.2   500  NDP500      0.2526
     17  C6A       37.7200   24.4850    4.6450 C.2   500  NDP500      0.4393
     18  N6A       38.7360   24.8900    3.9200 N.pl3 500  NDP500      0.2180
     19  N1A       37.6580   23.2440    5.2820 N.2   500  NDP500      0.0021
     20  C2A       36.6740   22.9540    6.2340 C.3   500  NDP500      0.5254
     21  N3A       35.7340   23.8990    6.5890 N.2   500  NDP500     -0.0055
     22  C4A       35.8240   25.0530    5.9540 C.2   500  NDP500      0.3518
     23  O3        31.7320   27.6060   11.9970 O.3   500  NDP500     -0.2703
     24  PN        31.5820   28.8950   12.9830 P.3   500  NDP500      0.2189
     25  O1N       30.8940   30.0070   12.2650 O.2   500  NDP500     -0.5170
     26  O2N       31.0570   28.3960   14.2590 O.3   500  NDP500     -0.4371
     27  O5D       33.1960   29.1820   13.0040 O.3   500  NDP500     -0.3112
     28  C5D       33.8650   30.3110   12.4670 C.3   500  NDP500      0.1813
     29  C4D       34.5310   31.1520   13.5890 C.3   500  NDP500      0.1799
     30  O4D       33.5580   31.7970   14.4190 O.3   500  NDP500     -0.3327
     31  C3D       35.3720   30.2750   14.5020 C.3   500  NDP500      0.2158
     32  O3D       36.6730   30.7880   14.7430 O.3   500  NDP500     -0.2175
     33  C2D       34.5280   30.2780   15.7780 C.3   500  NDP500      0.2309
     34  O2D       35.2870   30.0400   16.9360 O.3   500  NDP500     -0.2158
     35  C1D       33.8290   31.6310   15.7960 C.3   500  NDP500      0.2263
     36  N1N       32.6300   31.7090   16.7000 N.pl3 500  NDP500     -0.2787
     37  C2N       31.6160   30.7870   16.6460 C.3   500  NDP500      0.1244
     38  C3N       30.5120   30.8910   17.4770 C.2   500  NDP500      0.0544
     39  C7N       29.4000   29.9180   17.3850 C.2   500  NDP500      0.2818
     40  O7N       29.2700   28.9570   16.3560 O.2   500  NDP500     -0.2670
     41  N7N       28.5190   29.9410   18.3570 N.am  500  NDP500     -0.0839
     42  C4N       30.2000   32.1800   18.2070 C.2   500  NDP500      0.0033
     43  C5N       31.3590   33.1030   18.2100 C.2   500  NDP500      0.0157
     44  C6N       32.4840   32.8320   17.4540 C.2   500  NDP500      0.0633
     45  P2B       31.3010   24.2250    4.8280 P.3   500  NDP500      0.5328
     46  O1X       29.8220   24.3260    5.1720 O.3   500  NDP500     -0.1145
     47  O2X       31.8370   22.8900    5.2750 O.3   500  NDP500     -0.1145
     48  O3X       31.5630   24.5380    3.3610 O.2   500  NDP500     -0.2224
@<TRIPOS>BOND
     1    48    45    2
     2    18    17    1
     3    15    16    2
     4    15    14    1
     5    17    16    1
     6    17    19    2
     7    45    46    1
     8    45    47    1
     9    45    11    1
    10    16    22    1
    11    14    13    1
    12    19    20    1
    13    11    10    1
    14    22    13    1
    15    22    21    2
    16    13    12    1
    17    20    21    1
    18    10    12    1
    19    10     8    1
    20    12     7    1
    21     9     8    1
    22     8     6    1
    23     7     6    1
    24     6     5    1
    25     5     4    1
    26     4     1    1
    27    23     1    1
    28    23    24    1
    29     1     2    2
    30     1     3    1
    31    25    24    2
    32    28    27    1
    33    28    29    1
    34    24    27    1
    35    24    26    1
    36    29    30    1
    37    29    31    1
    38    30    35    1
    39    31    32    1
    40    31    33    1
    41    33    35    1
    42    33    34    1
    43    35    36    1
    44    40    39    2
    45    37    36    1
    46    37    38    1
    47    36    44    1
    48    39    38    1
    49    39    41   am
    50    44    43    2
    51    38    42    2
    52    42    43    1
