@<TRIPOS>MOLECULE
1z84_AMP_A_1.pdb
 22 24 0 0 0
SMALL
GASTEIGER

@<TRIPOS>ATOM
      1  P         31.9110   -5.2140  -27.9530 P.3   601  AMP601      0.3942
      2  O1P       30.9610   -6.1970  -27.3170 O.3   601  AMP601     -0.1425
      3  O2P       31.4080   -3.9110  -28.5650 O.3   601  AMP601     -0.1425
      4  O5'       33.0750   -4.9190  -26.8640 O.3   601  AMP601     -0.2926
      5  C5'       34.1870   -4.1200  -27.2030 C.3   601  AMP601      0.1831
      6  C4'       35.1870   -4.1740  -26.0570 C.3   601  AMP601      0.1822
      7  O4'       36.4420   -3.7600  -26.5680 O.3   601  AMP601     -0.3135
      8  C3'       34.8050   -3.1610  -24.9890 C.3   601  AMP601      0.2184
      9  O3'       34.6120   -3.8470  -23.7610 O.3   601  AMP601     -0.2174
     10  C2'       35.9790   -2.1840  -24.8790 C.3   601  AMP601      0.2570
     11  O2'       36.3710   -1.9170  -23.5240 O.3   601  AMP601     -0.2130
     12  C1'       37.0850   -2.9770  -25.5370 C.3   601  AMP601      0.3186
     13  N9        38.0830   -2.1460  -26.2550 N.pl3 601  AMP601     -0.1439
     14  C8        37.8290   -1.0000  -26.9140 C.3   601  AMP601      0.3377
     15  N7        38.9630   -0.5700  -27.5090 N.2   601  AMP601     -0.2095
     16  C5        39.9530   -1.4570  -27.2280 C.2   601  AMP601      0.2526
     17  C6        41.3910   -1.6090  -27.5450 C.2   601  AMP601      0.4393
     18  N6        42.0130   -0.6820  -28.2980 N.pl3 601  AMP601      0.2180
     19  N1        42.0560   -2.7030  -27.0870 N.2   601  AMP601      0.0021
     20  C2        41.4270   -3.6380  -26.3220 C.3   601  AMP601      0.5254
     21  N3        40.1110   -3.5600  -25.9890 N.2   601  AMP601     -0.0055
     22  C4        39.3470   -2.5210  -26.4270 C.2   601  AMP601      0.3518
@<TRIPOS>BOND
     1     3     1    1
     2    18    17    1
     3     1     2    1
     4     1     4    1
     5    17    16    1
     6    17    19    2
     7    15    16    2
     8    15    14    1
     9    16    22    1
    10     5     4    1
    11     5     6    1
    12    19    20    1
    13    14    13    1
    14     7     6    1
    15     7    12    1
    16    22    13    1
    17    22    21    2
    18    20    21    1
    19    13    12    1
    20     6     8    1
    21    12    10    1
    22     8    10    1
    23     8     9    1
    24    10    11    1
