@<TRIPOS>MOLECULE
1z89_NAP_A_1.pdb
 48 52 0 0 0
SMALL
GASTEIGER

@<TRIPOS>ATOM
      1  PA        22.7440   -4.8300   27.0520 P.3   500  NAP500      0.2189
      2  O1A       23.6990   -3.8450   26.5640 O.2   500  NAP500     -0.5170
      3  O2A       21.7080   -4.5220   28.0530 O.3   500  NAP500     -0.4371
      4  O5B       23.6930   -6.0280   27.5860 O.3   500  NAP500     -0.3112
      5  C5B       23.0770   -7.2160   28.0890 C.3   500  NAP500      0.1813
      6  C4B       24.3130   -8.1640   28.3990 C.3   500  NAP500      0.1820
      7  O4B       25.0030   -7.5940   29.4810 O.3   500  NAP500     -0.3136
      8  C3B       23.8180   -9.5620   28.8670 C.3   500  NAP500      0.2157
      9  O3B       24.7930  -10.5120   28.3940 O.3   500  NAP500     -0.2175
     10  C2B       23.8860   -9.4550   30.4000 C.3   500  NAP500      0.2314
     11  O2B       24.2020  -10.7240   30.9530 O.3   500  NAP500     -0.2630
     12  C1B       25.0570   -8.5120   30.5460 C.3   500  NAP500      0.3158
     13  N9A       25.0270   -7.8090   31.7840 N.pl3 500  NAP500     -0.1439
     14  C8A       23.9240   -7.1840   32.3680 C.3   500  NAP500      0.3377
     15  N7A       24.2180   -6.5530   33.4770 N.2   500  NAP500     -0.2095
     16  C5A       25.5620   -6.7650   33.6410 C.2   500  NAP500      0.2526
     17  C6A       26.3900   -6.3020   34.6790 C.2   500  NAP500      0.4393
     18  N6A       26.0150   -5.5570   35.7160 N.pl3 500  NAP500      0.2180
     19  N1A       27.7430   -6.6900   34.5730 N.2   500  NAP500      0.0021
     20  C2A       28.2260   -7.4650   33.5140 C.3   500  NAP500      0.5254
     21  N3A       27.3980   -7.9110   32.5010 N.2   500  NAP500     -0.0055
     22  C4A       26.0480   -7.5340   32.5980 C.2   500  NAP500      0.3518
     23  O3        22.1290   -5.5520   25.7700 O.3   500  NAP500     -0.2703
     24  PN        20.7740   -5.6520   24.9450 P.3   500  NAP500      0.2189
     25  O1N       19.9440   -6.7950   25.4160 O.3   500  NAP500     -0.4371
     26  O2N       21.1490   -5.6840   23.4860 O.2   500  NAP500     -0.5170
     27  O5D       20.0190   -4.2480   25.1430 O.3   500  NAP500     -0.3112
     28  C5D       19.1540   -4.0010   26.3160 C.3   500  NAP500      0.1813
     29  C4D       17.6950   -4.1060   25.9140 C.3   500  NAP500      0.1799
     30  O4D       17.3730   -3.1020   24.8940 O.3   500  NAP500     -0.3327
     31  C3D       17.2560   -5.4300   25.2280 C.3   500  NAP500      0.2158
     32  O3D       17.2400   -6.5630   26.0540 O.3   500  NAP500     -0.2175
     33  C2D       15.9260   -4.9790   24.5910 C.3   500  NAP500      0.2309
     34  O2D       14.9820   -4.9270   25.6820 O.3   500  NAP500     -0.2158
     35  C1D       16.2530   -3.5700   24.1040 C.3   500  NAP500      0.2263
     36  N1N       16.7540   -3.5380   22.6490 N.pl3 500  NAP500     -0.2787
     37  C2N       15.8680   -2.9660   21.7420 C.3   500  NAP500      0.1244
     38  C3N       16.2420   -3.0520   20.3840 C.2   500  NAP500      0.0544
     39  C7N       15.3400   -2.4470   19.3100 C.2   500  NAP500      0.2818
     40  O7N       15.5840   -2.6220   18.1340 O.2   500  NAP500     -0.2670
     41  N7N       14.4570   -1.5820   19.7850 N.am  500  NAP500     -0.0839
     42  C4N       17.4490   -3.6940   19.9470 C.2   500  NAP500      0.0033
     43  C5N       18.3260   -4.2440   20.9140 C.2   500  NAP500      0.0157
     44  C6N       17.9840   -4.1830   22.2860 C.2   500  NAP500      0.0633
     45  P2B       23.1340  -11.6150   31.7980 P.3   500  NAP500      0.5328
     46  O1X       23.3480  -11.2170   33.2660 O.3   500  NAP500     -0.1145
     47  O2X       21.7840  -11.3570   31.2340 O.2   500  NAP500     -0.2224
     48  O3X       23.6170  -13.0500   31.5350 O.3   500  NAP500     -0.1145
@<TRIPOS>BOND
     1    40    39    2
     2    39    41   am
     3    39    38    1
     4    42    38    2
     5    42    43    1
     6    38    37    1
     7    43    44    2
     8    37    36    1
     9    44    36    1
    10    36    35    1
    11    26    24    2
    12    35    33    1
    13    35    30    1
    14    33    31    1
    15    33    34    1
    16    30    29    1
    17    24    27    1
    18    24    25    1
    19    24    23    1
    20    27    28    1
    21    31    29    1
    22    31    32    1
    23    23     1    1
    24    29    28    1
    25     2     1    2
    26     1     4    1
    27     1     3    1
    28     4     5    1
    29     5     6    1
    30     9     8    1
    31     6     8    1
    32     6     7    1
    33     8    10    1
    34     7    12    1
    35    10    12    1
    36    10    11    1
    37    12    13    1
    38    11    45    1
    39    47    45    2
    40    48    45    1
    41    13    14    1
    42    13    22    1
    43    45    46    1
    44    14    15    1
    45    21    22    2
    46    21    20    1
    47    22    16    1
    48    15    16    2
    49    20    19    1
    50    16    17    1
    51    19    17    2
    52    17    18    1
