@<TRIPOS>MOLECULE
1z89_62P_A_1.pdb
 21 23 0 0 0
SMALL
GASTEIGER

@<TRIPOS>ATOM
      1  C2        17.5790   -7.2140   17.6100 C.2   600  62P600      0.0527
      2  C3        16.9770   -7.0030   16.2750 C.2   600  62P600      0.2168
      3  S8        17.7480   -7.7880   14.8880 S.O2  600  62P600      0.0773
      4  O19       19.1770   -7.5830   15.0680 O.2   600  62P600     -0.1598
      5  O18       17.0810   -9.0420   14.6410 O.2   600  62P600     -0.1598
      6  C9        17.2540   -6.7130   13.5480 C.ar  600  62P600      0.2526
      7  O13       16.0030   -6.8450   13.0790 O.2   600  62P600     -0.4365
      8  C12       15.9320   -5.8400   12.1300 C.ar  600  62P600      0.1468
      9  C17       14.7660   -5.6200   11.3780 C.ar  600  62P600      0.0384
     10  C16       14.8530   -4.5640   10.4580 C.ar  600  62P600      0.0145
     11  C15       16.0490   -3.8470   10.3640 C.ar  600  62P600      0.0579
     12 CL21       16.0790   -2.5510    9.2130 Cl    600  62P600     -0.0822
     13  C14       17.2110   -4.0680   11.1070 C.ar  600  62P600      0.0143
     14  C11       17.0930   -5.1210   12.0150 C.ar  600  62P600      0.0357
     15  C10       18.0090   -5.7490   13.0250 C.ar  600  62P600      0.0341
     16  C20       19.4300   -5.3450   13.3240 C.3   600  62P600      0.0358
     17  N4        15.8830   -6.4000   16.1140 N.2   600  62P600     -0.1185
     18  N5        15.2130   -5.9060   17.1660 N.2   600  62P600     -0.0713
     19  C6        15.6270   -6.0260   18.3960 C.1   600  62P600      0.1734
     20  O7        15.0170   -5.5830   19.3620 O.2   600  62P600     -0.2204
     21  C1        16.9030   -6.7260   18.6610 C.2   600  62P600      0.0985
@<TRIPOS>BOND
     1    12    11    1
     2    11    10   ar
     3    11    13   ar
     4    10     9   ar
     5    13    14   ar
     6     9     8   ar
     7    14     8   ar
     8    14    15   ar
     9     8     7   ar
    10    15    16    1
    11    15     6   ar
    12     7     6   ar
    13     6     3    1
    14     5     3    2
    15     3     4    2
    16     3     2    1
    17    17     2    2
    18    17    18    1
    19     2     1    1
    20    18    19    2
    21     1    21    2
    22    19    21    1
    23    19    20    2
