@<TRIPOS>MOLECULE
1z8a_62P_A_1.pdb
 21 23 0 0 0
SMALL
GASTEIGER

@<TRIPOS>ATOM
      1  C2        17.5430   -7.2870   17.6240 C.2   600  62P600      0.0527
      2  C3        17.0440   -7.0560   16.2800 C.2   600  62P600      0.2168
      3  S8        17.7860   -7.7790   14.8870 S.O2  600  62P600      0.0773
      4  O19       19.2240   -7.7610   15.0670 O.2   600  62P600     -0.1598
      5  O18       17.1390   -9.0580   14.5570 O.2   600  62P600     -0.1598
      6  C9        17.3300   -6.6840   13.5810 C.ar  600  62P600      0.2526
      7  O13       16.1090   -6.8150   13.0940 O.2   600  62P600     -0.4365
      8  C12       16.0030   -5.8310   12.1470 C.ar  600  62P600      0.1468
      9  C17       14.8650   -5.6140   11.3830 C.ar  600  62P600      0.0384
     10  C16       14.9090   -4.5820   10.4680 C.ar  600  62P600      0.0145
     11  C15       16.0970   -3.8440   10.3700 C.ar  600  62P600      0.0579
     12 CL21       16.1280   -2.5420    9.2420 Cl    600  62P600     -0.0822
     13  C14       17.2360   -4.0550   11.1360 C.ar  600  62P600      0.0143
     14  C11       17.1670   -5.1050   12.0450 C.ar  600  62P600      0.0357
     15  C10       18.0960   -5.7060   13.0510 C.ar  600  62P600      0.0341
     16  C20       19.5080   -5.3660   13.4820 C.3   600  62P600      0.0358
     17  N4        15.9870   -6.3540   16.1020 N.2   600  62P600     -0.1185
     18  N5        15.3370   -5.8160   17.1250 N.2   600  62P600     -0.0713
     19  C6        15.7200   -6.0180   18.3860 C.1   600  62P600      0.1734
     20  O7        15.1270   -5.5580   19.3210 O.2   600  62P600     -0.2204
     21  C1        16.9050   -6.8000   18.6630 C.2   600  62P600      0.0985
@<TRIPOS>BOND
     1    12    11    1
     2    11    10   ar
     3    11    13   ar
     4    10     9   ar
     5    13    14   ar
     6     9     8   ar
     7    14     8   ar
     8    14    15   ar
     9     8     7   ar
    10    15    16    1
    11    15     6   ar
    12     7     6   ar
    13     6     3    1
    14     5     3    2
    15     3     4    2
    16     3     2    1
    17    17     2    2
    18    17    18    1
    19     2     1    1
    20    18    19    2
    21     1    21    2
    22    19    21    1
    23    19    20    2
