@<TRIPOS>MOLECULE
1z8a_NAP_A_1.pdb
 48 52 0 0 0
SMALL
GASTEIGER

@<TRIPOS>ATOM
      1  PA        22.8780   -4.7740   27.0720 P.3   500  NAP500      0.2189
      2  O1A       23.8080   -3.7310   26.5630 O.2   500  NAP500     -0.5170
      3  O2A       21.8010   -4.4370   28.0110 O.3   500  NAP500     -0.4371
      4  O5B       23.8000   -5.9580   27.5900 O.3   500  NAP500     -0.3112
      5  C5B       23.1950   -7.1910   28.0700 C.3   500  NAP500      0.1813
      6  C4B       24.3610   -8.1140   28.4310 C.3   500  NAP500      0.1820
      7  O4B       25.1350   -7.5690   29.4710 O.3   500  NAP500     -0.3136
      8  C3B       23.9340   -9.5240   28.8540 C.3   500  NAP500      0.2157
      9  O3B       24.9090  -10.4320   28.3320 O.3   500  NAP500     -0.2175
     10  C2B       24.0410   -9.4280   30.3940 C.3   500  NAP500      0.2314
     11  O2B       24.3600  -10.6910   30.9490 O.3   500  NAP500     -0.2630
     12  C1B       25.2270   -8.4740   30.5590 C.3   500  NAP500      0.3158
     13  N9A       25.1930   -7.7350   31.7780 N.pl3 500  NAP500     -0.1439
     14  C8A       24.1100   -7.0680   32.3420 C.3   500  NAP500      0.3377
     15  N7A       24.3840   -6.4440   33.4360 N.2   500  NAP500     -0.2095
     16  C5A       25.7190   -6.6810   33.6420 C.2   500  NAP500      0.2526
     17  C6A       26.5630   -6.2590   34.6750 C.2   500  NAP500      0.4393
     18  N6A       26.1680   -5.5010   35.7100 N.pl3 500  NAP500      0.2180
     19  N1A       27.8620   -6.6860   34.6080 N.2   500  NAP500      0.0021
     20  C2A       28.2810   -7.4610   33.5640 C.3   500  NAP500      0.5254
     21  N3A       27.5270   -7.9030   32.5220 N.2   500  NAP500     -0.0055
     22  C4A       26.2210   -7.4670   32.6060 C.2   500  NAP500      0.3518
     23  O3        22.2400   -5.4870   25.7590 O.3   500  NAP500     -0.2703
     24  PN        20.8840   -5.5960   24.9650 P.3   500  NAP500      0.2189
     25  O1N       20.0790   -6.7250   25.5090 O.3   500  NAP500     -0.4371
     26  O2N       21.2450   -5.6210   23.5200 O.2   500  NAP500     -0.5170
     27  O5D       20.1440   -4.1970   25.1640 O.3   500  NAP500     -0.3112
     28  C5D       19.2580   -3.9450   26.3010 C.3   500  NAP500      0.1813
     29  C4D       17.8090   -4.0440   25.8810 C.3   500  NAP500      0.1799
     30  O4D       17.4930   -3.0530   24.8960 O.3   500  NAP500     -0.3327
     31  C3D       17.3860   -5.3530   25.2130 C.3   500  NAP500      0.2158
     32  O3D       17.3410   -6.4750   26.0600 O.3   500  NAP500     -0.2175
     33  C2D       16.0390   -4.9430   24.5930 C.3   500  NAP500      0.2309
     34  O2D       15.0910   -4.8870   25.6730 O.3   500  NAP500     -0.2158
     35  C1D       16.4100   -3.5130   24.1060 C.3   500  NAP500      0.2263
     36  N1N       16.8480   -3.5000   22.6640 N.pl3 500  NAP500     -0.2787
     37  C2N       16.0140   -2.9720   21.7340 C.3   500  NAP500      0.1244
     38  C3N       16.3460   -2.9870   20.4160 C.2   500  NAP500      0.0544
     39  C7N       15.4570   -2.3430   19.3750 C.2   500  NAP500      0.2818
     40  O7N       15.6560   -2.5940   18.1810 O.2   500  NAP500     -0.2670
     41  N7N       14.5680   -1.4820   19.8050 N.am  500  NAP500     -0.0839
     42  C4N       17.5610   -3.6090   20.0010 C.2   500  NAP500      0.0033
     43  C5N       18.4230   -4.0830   20.9440 C.2   500  NAP500      0.0157
     44  C6N       18.0950   -4.0140   22.2920 C.2   500  NAP500      0.0633
     45  P2B       23.2970  -11.5870   31.8010 P.3   500  NAP500      0.5328
     46  O1X       23.4430  -11.1200   33.2580 O.3   500  NAP500     -0.1145
     47  O2X       21.9260  -11.3370   31.2390 O.2   500  NAP500     -0.2224
     48  O3X       23.8400  -12.9780   31.5880 O.3   500  NAP500     -0.1145
@<TRIPOS>BOND
     1    40    39    2
     2    39    41   am
     3    39    38    1
     4    42    38    2
     5    42    43    1
     6    38    37    1
     7    43    44    2
     8    37    36    1
     9    44    36    1
    10    36    35    1
    11    26    24    2
    12    35    33    1
    13    35    30    1
    14    33    31    1
    15    33    34    1
    16    30    29    1
    17    24    27    1
    18    24    25    1
    19    24    23    1
    20    27    28    1
    21    31    29    1
    22    31    32    1
    23    23     1    1
    24    29    28    1
    25     2     1    2
    26     1     4    1
    27     1     3    1
    28     4     5    1
    29     5     6    1
    30     9     8    1
    31     6     8    1
    32     6     7    1
    33     8    10    1
    34     7    12    1
    35    10    12    1
    36    10    11    1
    37    12    13    1
    38    11    45    1
    39    47    45    2
    40    48    45    1
    41    13    14    1
    42    13    22    1
    43    45    46    1
    44    14    15    1
    45    21    22    2
    46    21    20    1
    47    22    16    1
    48    15    16    2
    49    20    19    1
    50    16    17    1
    51    19    17    2
    52    17    18    1
