@<TRIPOS>MOLECULE
1z8d_AMP_A_1.pdb
 23 25 0 0 0
SMALL
GASTEIGER

@<TRIPOS>ATOM
      1  P         26.5250   -2.4810   33.6690 P.3   900  AMP900      0.5327
      2  O1P       25.2400   -1.8970   34.0730 O.3   900  AMP900     -0.1145
      3  O2P       27.3280   -1.5690   32.7970 O.2   900  AMP900     -0.2224
      4  O3P       26.3910   -3.8800   33.1020 O.3   900  AMP900     -0.1145
      5  O5'       27.3260   -2.6340   35.0750 O.3   900  AMP900     -0.2675
      6  C5'       27.8000   -1.4500   35.7680 C.3   900  AMP900      0.1860
      7  C4'       28.0220   -1.8810   37.2300 C.3   900  AMP900      0.1823
      8  O4'       26.7190   -2.1480   37.8720 O.3   900  AMP900     -0.3135
      9  C3'       28.9060   -3.2920   37.3680 C.3   900  AMP900      0.2184
     10  O3'       30.3590   -2.9010   37.3080 O.3   900  AMP900     -0.2174
     11  C2'       28.3770   -3.7150   38.8230 C.3   900  AMP900      0.2570
     12  O2'       29.0130   -3.0010   39.8630 O.3   900  AMP900     -0.2130
     13  C1'       26.8320   -3.2200   38.8320 C.3   900  AMP900      0.3186
     14  N9        25.9010   -4.3270   38.4490 N.pl3 900  AMP900     -0.1439
     15  C8        25.7280   -4.9420   37.1900 C.3   900  AMP900      0.3377
     16  N7        24.8130   -5.9310   37.1030 N.2   900  AMP900     -0.2095
     17  C5        24.3670   -5.9380   38.4280 C.2   900  AMP900      0.2526
     18  C6        23.3830   -6.7480   39.0770 C.2   900  AMP900      0.4393
     19  N6        22.7090   -7.7000   38.3400 N.pl3 900  AMP900      0.2180
     20  N1        23.1810   -6.4930   40.4330 N.2   900  AMP900      0.0021
     21  C2        23.8650   -5.5470   41.1190 C.3   900  AMP900      0.5254
     22  N3        24.8140   -4.7330   40.5880 N.2   900  AMP900     -0.0055
     23  C4        25.0190   -4.9780   39.2600 C.2   900  AMP900      0.3518
@<TRIPOS>BOND
     1     3     1    2
     2     4     1    1
     3     1     2    1
     4     1     5    1
     5     5     6    1
     6     6     7    1
     7    16    15    1
     8    16    17    2
     9    15    14    1
    10     7     9    1
    11     7     8    1
    12    10     9    1
    13     9    11    1
    14     8    13    1
    15    19    18    1
    16    17    18    1
    17    17    23    1
    18    14    13    1
    19    14    23    1
    20    11    13    1
    21    11    12    1
    22    18    20    2
    23    23    22    2
    24    20    21    1
    25    22    21    1
