@<TRIPOS>MOLECULE
1z8d_GLC_A_1.pdb
 12 12 0 0 0
SMALL
GASTEIGER

@<TRIPOS>ATOM
      1  C1        25.2950   23.4120   17.7110 C.3   901  GLC901      0.3024
      2  C2        24.6830   24.7830   17.4120 C.3   901  GLC901      0.2434
      3  C3        24.7970   25.6930   18.6420 C.3   901  GLC901      0.2199
      4  C4        24.1680   25.0130   19.8520 C.3   901  GLC901      0.2144
      5  C5        24.8200   23.6340   20.0590 C.3   901  GLC901      0.1836
      6  C6        24.2080   22.8520   21.2070 C.3   901  GLC901      0.2142
      7  O1        26.6490   23.5470   17.9720 O.3   901  GLC901     -0.1869
      8  O2        25.3480   25.3690   16.3060 O.3   901  GLC901     -0.2148
      9  O3        24.1380   26.9270   18.4030 O.3   901  GLC901     -0.2174
     10  O4        24.3590   25.8280   21.0010 O.3   901  GLC901     -0.2176
     11  O5        24.6680   22.8270   18.8620 O.3   901  GLC901     -0.3236
     12  O6        22.8010   22.7180   21.0500 O.3   901  GLC901     -0.2176
@<TRIPOS>BOND
     1     8     2    1
     2     2     1    1
     3     2     3    1
     4     1     7    1
     5     1    11    1
     6     9     3    1
     7     3     4    1
     8    11     5    1
     9     4     5    1
    10     4    10    1
    11     5     6    1
    12    12     6    1
