@<TRIPOS>MOLECULE
1z8d_ADE_A_1.pdb
 10 11 0 0 0
SMALL
GASTEIGER

@<TRIPOS>ATOM
      1  N9        33.0140   22.4510    2.4520 N.2   902  ADE902     -0.1914
      2  C8        33.7290   21.3510    3.0030 C.3   902  ADE902      0.2618
      3  N7        33.7260   21.2100    4.3830 N.2   902  ADE902     -0.2267
      4  C5        32.9400   22.3200    4.7140 C.2   902  ADE902      0.2303
      5  C6        32.4890   22.8410    5.9550 C.2   902  ADE902      0.4393
      6  N6        32.8490   22.1910    7.1260 N.pl3 902  ADE902      0.2185
      7  N1        31.6950   24.0000    5.8660 N.2   902  ADE902     -0.0265
      8  C2        31.3770   24.5870    4.6850 C.3   902  ADE902      0.4008
      9  N3        31.7770   24.1430    3.4650 N.2   902  ADE902     -0.1640
     10  C4        32.5420   23.0200    3.5670 C.1   902  ADE902      0.0579
@<TRIPOS>BOND
     1     1     2    1
     2     1    10    2
     3     2     3    1
     4     9    10    2
     5     9     8    1
     6    10     4    1
     7     3     4    2
     8     8     7    1
     9     4     5    1
    10     7     5    2
    11     5     6    1
