@<TRIPOS>MOLECULE
1z8g_III_L_1.pdb
 41 40 0 0 0
SMALL
GASTEIGER

@<TRIPOS>ATOM
      1  C         40.7490  -12.4920   34.5630 C.2     1  ACE1        0.2423
      2  O         40.2250  -12.0610   35.5930 O.2     1  ACE1       -0.2733
      3  CH3       41.7180  -13.6540   34.6720 C.3     1  ACE1        0.0964
      4  N         40.5010  -11.9770   33.3600 N.am    2  LYS2       -0.1978
      5  CA        39.2260  -11.3470   33.0300 C.3     2  LYS2        0.1727
      6  C         39.1780   -9.9310   33.5990 C.2     2  LYS2        0.2616
      7  O         38.6010   -9.6860   34.6620 O.2     2  LYS2       -0.2715
      8  CB        38.0700  -12.1990   33.5610 C.3     2  LYS2        0.0311
      9  CG        36.6870  -11.6520   33.2930 C.3     2  LYS2        0.0038
     10  CD        35.6540  -12.7470   33.4830 C.3     2  LYS2        0.0206
     11  CE        34.3670  -12.1890   34.0360 C.3     2  LYS2        0.1093
     12  NZ        34.6170  -11.5830   35.3720 N.3     2  LYS2       -0.1314
     13  N         39.7980   -9.0040   32.8780 N.am    3  GLN3       -0.1963
     14  CA        39.8570   -7.6140   33.3000 C.3     3  GLN3        0.1733
     15  C         39.1110   -6.6770   32.3580 C.2     3  GLN3        0.2616
     16  O         39.3010   -6.7050   31.1400 O.2     3  GLN3       -0.2715
     17  CB        41.3150   -7.1690   33.4190 C.3     3  GLN3        0.0408
     18  CG        41.5030   -5.7760   33.9850 C.3     3  GLN3        0.0908
     19  CD        42.9570   -5.3640   34.0170 C.2     3  GLN3        0.2608
     20  OE1       43.8450   -6.1680   33.7310 O.2     3  GLN3       -0.2717
     21  NE2       43.2130   -4.1050   34.3630 N.am    3  GLN3       -0.0878
     22  N         38.2790   -5.8250   32.9430 N.am    4  LEU4       -0.1963
     23  CA        37.4990   -4.8580   32.1820 C.3     4  LEU4        0.1728
     24  C         38.4030   -3.8810   31.4500 C.2     4  LEU4        0.2612
     25  O         39.4650   -3.4880   31.9370 O.2     4  LEU4       -0.2715
     26  CB        36.5720   -4.0910   33.1220 C.3     4  LEU4        0.0311
     27  CG        35.4380   -4.9300   33.7050 C.3     4  LEU4        0.0022
     28  CD1       34.7740   -4.1870   34.8550 C.3     4  LEU4        0.0001
     29  CD2       34.4380   -5.2540   32.6080 C.3     4  LEU4        0.0001
     30  N         37.9970   -3.4510   30.2580 N.am    5  ARG5       -0.2031
     31  CA        38.7030   -2.4430   29.4440 C.3     5  ARG5        0.1257
     32  C         38.0080   -1.0860   29.4110 C.3     5  ARG5        0.1718
     33  O         38.8810   -0.2470   29.0660 O.3     5  ARG5       -0.2213
     34  CB        39.0110   -3.0530   28.0720 C.3     5  ARG5        0.0280
     35  CG        39.8890   -4.2810   28.1380 C.3     5  ARG5        0.0488
     36  CD        39.9690   -4.9860   26.7970 C.3     5  ARG5        0.2205
     37  NE        40.9030   -6.1150   26.8990 N.pl3   5  ARG5       -0.0865
     38  CZ        41.2670   -6.8520   25.7520 C.cat   5  ARG5        0.5346
     39  NH1       40.5800   -6.6990   24.5300 N.pl3   5  ARG5        0.1354
     40  NH2       42.3340   -7.7630   25.9040 N.pl3   5  ARG5        0.1354
     41  C1        37.2400   -0.7210   30.6630 C.3     6  0QE6        0.0373
@<TRIPOS>BOND
     1    39    38    1
     2    38    40    1
     3    38    37    2
     4    36    37    1
     5    36    35    1
     6    34    35    1
     7    34    31    1
     8    33    32    1
     9    32    31    1
    10    32    41    1
    11    31    30    1
    12    30    24   am
    13    16    15    2
    14    24    25    2
    15    24    23    1
    16    23    22    1
    17    23    26    1
    18    15    22   am
    19    15    14    1
    20    29    27    1
    21    13    14    1
    22    13     6   am
    23     5     4    1
    24     5     8    1
    25     5     6    1
    26    26    27    1
    27     9    10    1
    28     9     8    1
    29    14    17    1
    30     4     1   am
    31    17    18    1
    32    10    11    1
    33     6     7    2
    34    27    28    1
    35    20    19    2
    36    18    19    1
    37    19    21   am
    38    11    12    1
    39     1     3    1
    40     1     2    2
