@<TRIPOS>MOLECULE
1z8i_0G6_B_1.pdb
 30 31 0 0 0
SMALL
GASTEIGER

@<TRIPOS>ATOM
      1  N         27.2870   32.4960   24.5280 N.3   301  0G6301     -0.1228
      2  CA        26.9350   31.7790   23.2670 C.3   301  0G6301      0.1721
      3  C         25.9900   32.6720   22.4630 C.2   301  0G6301      0.2437
      4  O         26.2240   33.8770   22.3420 O.2   301  0G6301     -0.2733
      5  CB        28.2040   31.5030   22.4590 C.3   301  0G6301      0.0547
      6  CG        27.9710   30.7290   21.1830 C.ar  301  0G6301     -0.0202
      7  CD1       27.3650   29.4740   21.2070 C.ar  301  0G6301     -0.0042
      8  CD2       28.4050   31.2320   19.9590 C.ar  301  0G6301     -0.0042
      9  CE1       27.1950   28.7260   20.0250 C.ar  301  0G6301     -0.0003
     10  CE2       28.2440   30.4990   18.7700 C.ar  301  0G6301     -0.0003
     11  CZ        27.6390   29.2410   18.8070 C.ar  301  0G6301     -0.0000
     12  N1        24.8650   32.2180   21.9550 N.am  301  0G6301     -0.2718
     13  CA1       23.9280   33.0740   21.2080 C.3   301  0G6301      0.1535
     14  C1        23.3960   34.2420   22.0080 C.2   301  0G6301      0.2598
     15  O1        23.0290   34.0750   23.1670 O.2   301  0G6301     -0.2715
     16  CB1       22.7800   32.1300   20.8580 C.3   301  0G6301      0.0310
     17  CG1       23.4070   30.7710   20.8650 C.3   301  0G6301      0.0237
     18  CD        24.3450   30.8400   22.0510 C.3   301  0G6301      0.0939
     19  N2        23.1220   35.2190   21.1430 N.am  301  0G6301     -0.1983
     20  CA2       22.4410   36.4110   21.6660 C.3   301  0G6301      0.1524
     21  C2        20.9430   36.5620   21.3410 C.2   301  0G6301      0.1707
     22  O2        20.2610   37.1800   22.1740 O.2   301  0G6301     -0.2943
     23  CB2       23.2210   37.7020   21.4400 C.3   301  0G6301      0.0329
     24  CG2       24.5820   37.6220   22.1320 C.3   301  0G6301      0.0491
     25  CD3       25.4420   38.8590   21.9510 C.3   301  0G6301      0.2205
     26  NE        26.5320   38.8860   22.9270 N.pl3 301  0G6301     -0.0865
     27  CZ1       27.5210   39.7760   22.9170 C.cat 301  0G6301      0.5346
     28  NH1       27.5610   40.7100   21.9780 N.pl3 301  0G6301      0.1354
     29  NH2       28.4640   39.7450   23.8540 N.pl3 301  0G6301      0.1354
     30  C3        20.2100   35.3360   20.7840 C.3   301  0G6301      0.0741
@<TRIPOS>BOND
     1    10    11   ar
     2    10     8   ar
     3    11     9   ar
     4     8     6   ar
     5     9     7   ar
     6    30    21    1
     7    16    17    1
     8    16    13    1
     9    17    18    1
    10    19    20    1
    11    19    14   am
    12     6     7   ar
    13     6     5    1
    14    13    12    1
    15    13    14    1
    16    21    20    1
    17    21    22    2
    18    23    20    1
    19    23    24    1
    20    25    24    1
    21    25    26    1
    22    12    18    1
    23    12     3   am
    24    28    27    1
    25    14    15    2
    26     4     3    2
    27     5     2    1
    28     3     2    1
    29    27    26    2
    30    27    29    1
    31     2     1    1
