@<TRIPOS>MOLECULE
1z8j_0G6_B_1.pdb
 30 31 0 0 0
SMALL
GASTEIGER

@<TRIPOS>ATOM
      1  N         27.2800   32.3150   24.6580 N.3   301  0G6301     -0.1228
      2  CA        26.9490   31.6020   23.3830 C.3   301  0G6301      0.1721
      3  C         26.0570   32.4670   22.4940 C.2   301  0G6301      0.2437
      4  O         26.3890   33.6180   22.1970 O.2   301  0G6301     -0.2733
      5  CB        28.2270   31.2490   22.6210 C.3   301  0G6301      0.0547
      6  CG        27.9800   30.4910   21.3460 C.ar  301  0G6301     -0.0202
      7  CD1       27.2570   29.3000   21.3610 C.ar  301  0G6301     -0.0042
      8  CD2       28.4680   30.9610   20.1300 C.ar  301  0G6301     -0.0042
      9  CE1       27.0230   28.5880   20.1830 C.ar  301  0G6301     -0.0003
     10  CE2       28.2410   30.2560   18.9470 C.ar  301  0G6301     -0.0003
     11  CZ        27.5160   29.0670   18.9750 C.ar  301  0G6301     -0.0000
     12  N1        24.9190   31.9160   22.0390 N.am  301  0G6301     -0.2718
     13  CA1       23.9930   32.6720   21.1780 C.3   301  0G6301      0.1535
     14  C1        23.4130   33.8540   21.9390 C.2   301  0G6301      0.2595
     15  O1        23.1730   33.7500   23.1410 O.2   301  0G6301     -0.2716
     16  CB1       22.9030   31.6510   20.8450 C.3   301  0G6301      0.0310
     17  CG1       23.5910   30.3240   20.9990 C.3   301  0G6301      0.0237
     18  CD        24.4470   30.5350   22.2330 C.3   301  0G6301      0.0939
     19  N2        23.1600   34.9620   21.2410 N.am  301  0G6301     -0.2032
     20  CA2       22.6030   36.1550   21.8900 C.3   301  0G6301      0.1257
     21  C2        21.1720   36.5080   21.4930 C.3   301  0G6301      0.1718
     22  O2        20.3850   37.0040   22.3440 O.3   301  0G6301     -0.2213
     23  CB2       23.5080   37.3440   21.6150 C.3   301  0G6301      0.0280
     24  CG2       24.8230   37.2320   22.3380 C.3   301  0G6301      0.0488
     25  CD3       25.6560   38.4750   22.1500 C.3   301  0G6301      0.2205
     26  NE        26.7410   38.5170   23.1220 N.pl3 301  0G6301     -0.0865
     27  CZ1       27.6830   39.4550   23.1450 C.cat 301  0G6301      0.5346
     28  NH1       27.6780   40.4320   22.2430 N.pl3 301  0G6301      0.1354
     29  NH2       28.6260   39.4250   24.0810 N.pl3 301  0G6301      0.1354
     30  C3        20.5130   35.1900   20.9890 C.3   301  0G6301      0.0373
@<TRIPOS>BOND
     1    10    11   ar
     2    10     8   ar
     3    11     9   ar
     4     8     6   ar
     5     9     7   ar
     6    16    17    1
     7    16    13    1
     8    30    21    1
     9    17    18    1
    10    13    14    1
    11    13    12    1
    12    19    20    1
    13    19    14   am
    14     6     7   ar
    15     6     5    1
    16    21    20    1
    17    21    22    1
    18    23    20    1
    19    23    24    1
    20    14    15    2
    21    12    18    1
    22    12     3   am
    23    25    24    1
    24    25    26    1
    25     4     3    2
    26    28    27    1
    27     3     2    1
    28     5     2    1
    29    26    27    2
    30    27    29    1
    31     2     1    1
