@<TRIPOS>MOLECULE
1z8l_NAG_A_1.pdb
 14 14 0 0 0
SMALL
GASTEIGER

@<TRIPOS>ATOM
      1  C1       -17.7010   23.0850    1.4350 C.3   1757  NAG1757     0.1665
      2  C2       -17.9610   23.1860   -0.0740 C.3   1757  NAG1757     0.1576
      3  C3       -19.1620   24.0750   -0.3550 C.3   1757  NAG1757     0.2069
      4  C4       -20.3630   23.4870    0.3740 C.3   1757  NAG1757     0.2134
      5  C5       -20.0470   23.4850    1.8770 C.3   1757  NAG1757     0.1809
      6  C6       -21.1780   22.9420    2.7370 C.3   1757  NAG1757     0.2141
      7  C7       -15.6210   23.0800   -0.6370 C.2   1757  NAG1757     0.2420
      8  C8       -15.4910   21.6760   -1.2170 C.3   1757  NAG1757     0.0964
      9  N2       -16.7930   23.6930   -0.7660 N.am  1757  NAG1757    -0.2019
     10  O3       -19.4040   24.1200   -1.7550 O.3   1757  NAG1757    -0.2184
     11  O4       -21.5580   24.2480    0.0780 O.3   1757  NAG1757    -0.2176
     12  O5       -18.8890   22.6490    2.1280 O.3   1757  NAG1757    -0.3489
     13  O6       -21.0670   23.3940    4.0810 O.3   1757  NAG1757    -0.2176
     14  O7       -14.6600   23.6040   -0.0790 O.2   1757  NAG1757    -0.2733
@<TRIPOS>BOND
     1    10     3    1
     2     8     7    1
     3     9     7   am
     4     9     2    1
     5     7    14    2
     6     3     2    1
     7     3     4    1
     8     2     1    1
     9    11     4    1
    10     4     5    1
    11     1    12    1
    12     5    12    1
    13     5     6    1
    14     6    13    1
