@<TRIPOS>MOLECULE
1z8n_1IQ_A_1.pdb
 23 25 0 0 0
SMALL
GASTEIGER

@<TRIPOS>ATOM
      1  C5'       50.0250   83.9830   44.9360 C.ar  694  1IQ694      0.0263
      2  C6'       50.8010   85.0230   45.7100 C.ar  694  1IQ694      0.1316
      3  C7'       50.5820   86.3970   45.4360 C.ar  694  1IQ694      0.0320
      4  C8'       49.6630   86.7980   44.4630 C.ar  694  1IQ694      0.0026
      5  C9'       48.9490   85.8370   43.7470 C.ar  694  1IQ694      0.0002
      6  CA'       49.1110   84.4160   43.9700 C.ar  694  1IQ694      0.0022
      7  N1'       51.7260   84.5920   46.7020 N.2   694  1IQ694     -0.3944
      8  C4'       50.2720   82.6210   45.2450 C.2   694  1IQ694     -0.0048
      9  C3'       51.2070   82.2290   46.2390 C.3   694  1IQ694      0.1882
     10  C2'       51.9310   83.2320   46.9670 C.2   694  1IQ694      0.1968
     11  CB'       51.4420   80.7120   46.5450 C.2   694  1IQ694      0.3758
     12  OC'       51.0580   80.1530   47.5550 O.co2 694  1IQ694     -0.2448
     13  OD'       52.0580   80.0840   45.6920 O.co2 694  1IQ694     -0.2448
     14  N3        52.5470   82.9830   49.3170 N.2   694  1IQ694     -0.1945
     15  C2        52.9310   82.9720   48.0370 C.1   694  1IQ694      0.1235
     16  N1        54.2290   82.7210   47.7480 N.2   694  1IQ694     -0.2782
     17  C5        54.8630   82.5360   48.9610 C.1   694  1IQ694      0.2092
     18  C4        53.7880   82.6950   49.9960 C.3   694  1IQ694      0.1977
     19  O6        56.0410   82.2880   49.0670 O.2   694  1IQ694     -0.2116
     20  C8        54.0070   83.8120   51.1140 C.3   694  1IQ694      0.0374
     21  C7        53.5910   81.4410   50.8820 C.3   694  1IQ694      0.0434
     22  C10       54.2120   85.2000   50.4870 C.3   694  1IQ694      0.0031
     23  C9        55.2470   83.5300   52.0010 C.3   694  1IQ694      0.0031
@<TRIPOS>BOND
     1     5     6   ar
     2     5     4   ar
     3     6     1   ar
     4     4     3   ar
     5     1     8    2
     6     1     2   ar
     7     8     9    1
     8     3     2   ar
     9    13    11   ar
    10     2     7    2
    11     9    11    1
    12     9    10    1
    13    11    12   ar
    14     7    10    2
    15    10    15    1
    16    16    15    2
    17    16    17    2
    18    15    14    2
    19    17    19    2
    20    17    18    1
    21    14    18    1
    22    18    21    1
    23    18    20    1
    24    22    20    1
    25    20    23    1
