@<TRIPOS>MOLECULE
1z8n_TPP_A_1.pdb
 26 27 0 0 0
SMALL
GASTEIGER

@<TRIPOS>ATOM
      1  N1'       63.5690   57.4120   37.6670 N.2   702  TPP702     -0.1861
      2  C2'       63.9030   58.6930   38.2060 C.1   702  TPP702      0.0663
      3  CM2       64.5480   59.7780   37.4250 C.3   702  TPP702      0.1291
      4  N3'       63.6220   58.9520   39.5250 N.2   702  TPP702     -0.3368
      5  C4'       62.9930   57.9730   40.4030 C.2   702  TPP702      0.2292
      6  N4'       62.7710   58.3540   41.6810 N.pl3 702  TPP702     -0.0925
      7  C5'       62.6160   56.5980   39.8900 C.2   702  TPP702      0.0654
      8  C6'       62.9380   56.3570   38.4530 C.2   702  TPP702      0.1115
      9  C7'       61.9580   55.4730   40.7110 C.3   702  TPP702      0.1237
     10  N3        62.8110   55.0170   41.8900 N.pl3 702  TPP702     -0.2970
     11  C2        62.4400   55.4290   43.1060 C.3   702  TPP702      0.1543
     12  S1        63.4790   54.8660   44.4130 S.3   702  TPP702     -0.0951
     13  C5        64.4920   54.0090   43.2320 C.2   702  TPP702      0.0164
     14  C4        63.9680   54.2030   41.8710 C.2   702  TPP702      0.0279
     15  CM4       64.5620   53.6200   40.5640 C.3   702  TPP702      0.0473
     16  C6        65.7230   53.2010   43.6480 C.3   702  TPP702      0.0661
     17  C7        66.9620   52.6620   42.8700 C.3   702  TPP702      0.1544
     18  O7        68.4230   53.2270   42.5480 O.3   702  TPP702     -0.3134
     19  PA        69.8760   53.0740   42.9440 P.3   702  TPP702      0.2230
     20  O1A       70.5330   51.9250   42.3830 O.2   702  TPP702     -0.5169
     21  O2A       70.5520   54.2590   42.5500 O.3   702  TPP702     -0.4370
     22  O3A       70.0400   52.8950   44.5050 O.3   702  TPP702     -0.2261
     23  PB        69.5890   51.8570   45.6210 P.3   702  TPP702      0.5373
     24  O1B       68.1990   52.1320   45.9140 O.3   702  TPP702     -0.1143
     25  O2B       70.5550   52.1460   46.6520 O.3   702  TPP702     -0.1143
     26  O3B       69.8340   50.5540   44.9890 O.2   702  TPP702     -0.2221
@<TRIPOS>BOND
     1     3     2    1
     2     1     2    2
     3     1     8    1
     4     2     4    2
     5     8     7    2
     6     4     5    2
     7     7     5    1
     8     7     9    1
     9     5     6    1
    10    15    14    1
    11     9    10    1
    12    14    10    1
    13    14    13    2
    14    10    11    1
    15    20    19    2
    16    18    17    1
    17    18    19    1
    18    21    19    1
    19    17    16    1
    20    19    22    1
    21    11    12    1
    22    13    16    1
    23    13    12    1
    24    22    23    1
    25    26    23    2
    26    23    24    1
    27    23    25    1
