@<TRIPOS>MOLECULE
1z8o_HEM_A_1.pdb
 43 50 0 0 0
SMALL
GASTEIGER

@<TRIPOS>ATOM
      1 FE         19.6000   11.9520    9.7910 Fe    410  HEM410      0.0000
      2  CHA       16.7420   13.8600    9.5250 C.2   410  HEM410      0.0000
      3  CHB       18.4300    9.8550    7.3470 C.2   410  HEM410      0.0000
      4  CHC       22.4750   10.1010   10.0500 C.2   410  HEM410      0.0000
      5  CHD       20.5490   13.7810   12.5710 C.2   410  HEM410      0.0000
      6  NA        17.9310   11.8660    8.6910 N.ar  410  HEM410      0.0000
      7  C1A       16.8770   12.7550    8.6830 C.ar  410  HEM410      0.0000
      8  C2A       15.8840   12.3810    7.6970 C.ar  410  HEM410      0.0000
      9  C3A       16.3330   11.2400    7.1040 C.ar  410  HEM410      0.0000
     10  C4A       17.6080   10.9250    7.7230 C.ar  410  HEM410      0.0000
     11  CMA       15.6010   10.3720    6.0930 C.3   410  HEM410      0.0000
     12  CAA       14.5890   13.1420    7.4240 C.3   410  HEM410      0.0000
     13  CBA       13.4480   12.6070    8.2820 C.3   410  HEM410      0.0000
     14  CGA       12.1070   13.2310    7.9300 C.2   410  HEM410      0.0000
     15  O1A       11.9560   13.7160    6.7870 O.co2 410  HEM410      0.0000
     16  O2A       11.2020   13.2180    8.7910 O.co2 410  HEM410      0.0000
     17  NB        20.3140   10.3290    8.8800 N.2   410  HEM410      0.0000
     18  C1B       19.7080    9.5900    7.8660 C.2   410  HEM410      0.0000
     19  C2B       20.5890    8.5380    7.4000 C.2   410  HEM410      0.0000
     20  C3B       21.7390    8.5940    8.1610 C.2   410  HEM410      0.0000
     21  C4B       21.5380    9.6940    9.0840 C.2   410  HEM410      0.0000
     22  CMB       20.2460    7.5230    6.3110 C.3   410  HEM410      0.0000
     23  CAB       22.8440    7.7080    8.1940 C.2   410  HEM410      0.0000
     24  CBB       23.2990    6.9760    7.1370 C.2   410  HEM410      0.0000
     25  NC        21.1980   11.9750   11.0160 N.ar  410  HEM410      0.0000
     26  C1C       22.3180   11.1610   10.9560 C.ar  410  HEM410      0.0000
     27  C2C       23.2380   11.4780   12.0180 C.ar  410  HEM410      0.0000
     28  C3C       22.6830   12.4710   12.7930 C.ar  410  HEM410      0.0000
     29  C4C       21.4180   12.7750   12.1420 C.ar  410  HEM410      0.0000
     30  CMC       24.6160   10.8200   12.1740 C.3   410  HEM410      0.0000
     31  CAC       23.1250   13.0820   13.9810 C.2   410  HEM410      0.0000
     32  CBC       24.3270   12.8970   14.6080 C.2   410  HEM410      0.0000
     33  ND        18.8480   13.5110   10.7950 N.2   410  HEM410      0.0000
     34  C1D       19.3460   14.1290   11.9400 C.2   410  HEM410      0.0000
     35  C2D       18.4780   15.2030   12.3880 C.2   410  HEM410      0.0000
     36  C3D       17.4350   15.2480   11.5130 C.2   410  HEM410      0.0000
     37  C4D       17.6670   14.2160   10.5220 C.2   410  HEM410      0.0000
     38  CMD       18.6340   16.0450   13.6550 C.3   410  HEM410      0.0000
     39  CAD       16.1810   16.1270   11.6640 C.3   410  HEM410      0.0000
     40  CBD       16.2730   17.3180   10.7340 C.3   410  HEM410      0.0000
     41  CGD       15.0120   18.1520   10.7290 C.2   410  HEM410      0.0000
     42  O1D       13.9360   17.6080   11.0590 O.co2 410  HEM410      0.0000
     43  O2D       15.0930   19.3460   10.3760 O.co2 410  HEM410      0.0000
@<TRIPOS>BOND
     1    11     9    1
     2    22    19    1
     3    15    14   ar
     4     9     8   ar
     5     9    10   ar
     6    24    23    2
     7     3    10    2
     8     3    18    1
     9    19    18    1
    10    19    20    2
    11    12     8    1
    12    12    13    1
    13     8     7   ar
    14    10     6   ar
    15    18    17    2
    16    14    13    1
    17    14    16   ar
    18    20    23    1
    19    20    21    1
    20     7     6   ar
    21     7     2    2
    22     6     1    1
    23    17    21    1
    24    17     1    1
    25    21     4    2
    26     2    37    1
    27     1    33    1
    28     1    25    1
    29     4    26    1
    30    43    41   ar
    31    37    33    2
    32    37    36    1
    33    41    40    1
    34    41    42   ar
    35    40    39    1
    36    33    34    1
    37    26    25   ar
    38    26    27   ar
    39    25    29   ar
    40    36    39    1
    41    36    35    2
    42    34    35    1
    43    34     5    2
    44    27    30    1
    45    27    28   ar
    46    29     5    1
    47    29    28   ar
    48    35    38    1
    49    28    31    1
    50    31    32    2
