@<TRIPOS>MOLECULE
1z8o_DEB_A_1.pdb
 27 27 0 0 0
SMALL
GASTEIGER

@<TRIPOS>ATOM
      1  C1        14.4090    7.2880   15.8920 C.2   420  DEB420      0.3188
      2  C2        15.3460    6.2500   15.1880 C.3   420  DEB420      0.1294
      3  C3        16.1910    6.9340   14.1200 C.3   420  DEB420      0.1648
      4  C4        15.3380    7.6950   13.0370 C.3   420  DEB420      0.0614
      5  C5        16.2640    8.7080   12.2550 C.3   420  DEB420      0.1543
      6  C6        15.7740    9.7330   11.1720 C.3   420  DEB420      0.0309
      7  C7        14.6570   10.5980   11.8330 C.3   420  DEB420      0.0098
      8  C8        14.9990   11.3330   13.1930 C.3   420  DEB420      0.0578
      9  C9        13.8120   12.1550   13.7490 C.2   420  DEB420      0.1523
     10  C10       12.4750   11.3860   13.9730 C.3   420  DEB420      0.0881
     11  C11       12.7320   10.1450   14.9440 C.3   420  DEB420      0.1622
     12  C12       11.5850    9.1780   15.3510 C.3   420  DEB420      0.0710
     13  C13       12.0300    8.0180   16.3180 C.3   420  DEB420      0.1712
     14  C14       10.8530    7.0920   16.7260 C.3   420  DEB420      0.0437
     15  C15       11.2300    5.9600   17.6830 C.3   420  DEB420      0.0038
     16  O16       13.0390    7.1600   15.7240 O.3   420  DEB420     -0.4521
     17  O17       14.8490    8.2170   16.5930 O.2   420  DEB420     -0.2500
     18  C18       16.2340    5.5550   16.2160 C.3   420  DEB420      0.0143
     19  O19       17.0520    5.9430   13.4990 O.3   420  DEB420     -0.2225
     20  C20       14.6510    6.6460   12.1050 C.3   420  DEB420      0.0052
     21  O21       17.3190    7.9460   11.6110 O.3   420  DEB420     -0.2231
     22  C22       15.1910    9.1050    9.8880 C.3   420  DEB420      0.0026
     23  C23       16.2270   12.2270   13.0380 C.3   420  DEB420      0.0078
     24  O24       13.9260   13.3600   14.0110 O.2   420  DEB420     -0.2960
     25  C25       11.4040   12.3430   14.5450 C.3   420  DEB420      0.0104
     26  O26       13.3360   10.6480   16.1810 O.3   420  DEB420     -0.2226
     27  C27       10.9200    8.6170   14.0570 C.3   420  DEB420      0.0063
@<TRIPOS>BOND
     1    22     6    1
     2     6     7    1
     3     6     5    1
     4    21     5    1
     5     7     8    1
     6    20     4    1
     7     5     4    1
     8     4     3    1
     9    23     8    1
    10     8     9    1
    11    19     3    1
    12     9    10    1
    13     9    24    2
    14    10    25    1
    15    10    11    1
    16    27    12    1
    17     3     2    1
    18    11    12    1
    19    11    26    1
    20     2     1    1
    21     2    18    1
    22    12    13    1
    23    16     1    1
    24    16    13    1
    25     1    17    2
    26    13    14    1
    27    14    15    1
