@<TRIPOS>MOLECULE
1z8p_DEB_A_1.pdb
 27 27 0 0 0
SMALL
GASTEIGER

@<TRIPOS>ATOM
      1  C1        14.4490    7.3350   15.8380 C.2   420  DEB420      0.3188
      2  C2        15.4070    6.3170   15.1250 C.3   420  DEB420      0.1294
      3  C3        16.2210    7.0080   14.0400 C.3   420  DEB420      0.1648
      4  C4        15.3350    7.7420   12.9690 C.3   420  DEB420      0.0614
      5  C5        16.2360    8.7700   12.1740 C.3   420  DEB420      0.1543
      6  C6        15.7330    9.7860   11.1000 C.3   420  DEB420      0.0309
      7  C7        14.6020   10.6310   11.7630 C.3   420  DEB420      0.0098
      8  C8        14.9260   11.3620   13.1280 C.3   420  DEB420      0.0578
      9  C9        13.7190   12.1610   13.6870 C.2   420  DEB420      0.1523
     10  C10       12.3980   11.3640   13.9010 C.3   420  DEB420      0.0881
     11  C11       12.6920   10.1410   14.8810 C.3   420  DEB420      0.1622
     12  C12       11.5740    9.1400   15.2740 C.3   420  DEB420      0.0710
     13  C13       12.0330    8.0020   16.2550 C.3   420  DEB420      0.1712
     14  C14       10.8720    7.0490   16.6440 C.3   420  DEB420      0.0437
     15  C15       11.2500    5.9330   17.6120 C.3   420  DEB420      0.0038
     16  O16       13.0770    7.1750   15.6690 O.3   420  DEB420     -0.4521
     17  O17       14.8720    8.2710   16.5410 O.2   420  DEB420     -0.2500
     18  C18       16.3240    5.6510   16.1410 C.3   420  DEB420      0.0143
     19  O19       17.0930    6.0270   13.4120 O.3   420  DEB420     -0.2225
     20  C20       14.6620    6.6730   12.0550 C.3   420  DEB420      0.0052
     21  O21       17.2940    8.0260   11.5090 O.3   420  DEB420     -0.2231
     22  C22       15.1670    9.1540    9.8140 C.3   420  DEB420      0.0026
     23  C23       16.1330   12.2830   12.9850 C.3   420  DEB420      0.0078
     24  O24       13.8150   13.3610   13.9520 O.2   420  DEB420     -0.2960
     25  C25       11.2910   12.2900   14.4710 C.3   420  DEB420      0.0104
     26  O26       13.2590   10.6790   16.1200 O.3   420  DEB420     -0.2226
     27  C27       10.9730    8.5490   13.9620 C.3   420  DEB420      0.0063
@<TRIPOS>BOND
     1    22     6    1
     2     6     7    1
     3     6     5    1
     4    21     5    1
     5     7     8    1
     6    20     4    1
     7     5     4    1
     8     4     3    1
     9    23     8    1
    10     8     9    1
    11    19     3    1
    12     9    10    1
    13     9    24    2
    14    10    25    1
    15    10    11    1
    16    27    12    1
    17     3     2    1
    18    11    12    1
    19    11    26    1
    20     2     1    1
    21     2    18    1
    22    12    13    1
    23    16     1    1
    24    16    13    1
    25     1    17    2
    26    13    14    1
    27    14    15    1
