@<TRIPOS>MOLECULE
1z8p_HEM_A_1.pdb
 43 50 0 0 0
SMALL
GASTEIGER

@<TRIPOS>ATOM
      1 FE         19.5060   12.0260    9.7360 Fe    410  HEM410      0.0000
      2  CHA       16.6440   13.8900    9.4990 C.2   410  HEM410      0.0000
      3  CHB       18.3440    9.9240    7.2790 C.2   410  HEM410      0.0000
      4  CHC       22.4150   10.2240    9.9460 C.2   410  HEM410      0.0000
      5  CHD       20.4230   13.8360   12.5430 C.2   410  HEM410      0.0000
      6  NA        17.8490   11.9290    8.6390 N.ar  410  HEM410      0.0000
      7  C1A       16.7740   12.8080    8.6380 C.ar  410  HEM410      0.0000
      8  C2A       15.7790   12.4260    7.6460 C.ar  410  HEM410      0.0000
      9  C3A       16.2400   11.2810    7.0650 C.ar  410  HEM410      0.0000
     10  C4A       17.5190   10.9800    7.6710 C.ar  410  HEM410      0.0000
     11  CMA       15.5050   10.3710    6.0730 C.3   410  HEM410      0.0000
     12  CAA       14.4650   13.1730    7.3680 C.3   410  HEM410      0.0000
     13  CBA       13.3270   12.5420    8.1680 C.3   410  HEM410      0.0000
     14  CGA       11.9810   13.1910    7.8990 C.2   410  HEM410      0.0000
     15  O1A       11.7800   13.7090    6.7810 O.co2 410  HEM410      0.0000
     16  O2A       11.1160   13.1620    8.8000 O.co2 410  HEM410      0.0000
     17  NB        20.2280   10.4220    8.7950 N.2   410  HEM410      0.0000
     18  C1B       19.6170    9.6690    7.7900 C.2   410  HEM410      0.0000
     19  C2B       20.4900    8.6040    7.3270 C.2   410  HEM410      0.0000
     20  C3B       21.6500    8.7030    8.0610 C.2   410  HEM410      0.0000
     21  C4B       21.4720    9.8220    8.9730 C.2   410  HEM410      0.0000
     22  CMB       20.1150    7.5120    6.3160 C.3   410  HEM410      0.0000
     23  CAB       22.7500    7.8300    8.0850 C.2   410  HEM410      0.0000
     24  CBB       23.2820    7.1560    7.0330 C.2   410  HEM410      0.0000
     25  NC        21.0860   12.0330   10.9590 N.ar  410  HEM410      0.0000
     26  C1C       22.2270   11.2480   10.8720 C.ar  410  HEM410      0.0000
     27  C2C       23.1350   11.5440   11.9560 C.ar  410  HEM410      0.0000
     28  C3C       22.5410   12.5050   12.7390 C.ar  410  HEM410      0.0000
     29  C4C       21.2850   12.8140   12.0970 C.ar  410  HEM410      0.0000
     30  CMC       24.5220   10.9230   12.1550 C.3   410  HEM410      0.0000
     31  CAC       22.9590   13.0700   13.9580 C.2   410  HEM410      0.0000
     32  CBC       24.2040   13.0260   14.5070 C.2   410  HEM410      0.0000
     33  ND        18.7510   13.5730   10.7500 N.2   410  HEM410      0.0000
     34  C1D       19.2300   14.1870   11.9030 C.2   410  HEM410      0.0000
     35  C2D       18.3510   15.2510   12.3370 C.2   410  HEM410      0.0000
     36  C3D       17.3260   15.3190   11.4440 C.2   410  HEM410      0.0000
     37  C4D       17.5650   14.2630   10.4710 C.2   410  HEM410      0.0000
     38  CMD       18.4850   16.0860   13.6060 C.3   410  HEM410      0.0000
     39  CAD       16.1010   16.2270   11.5700 C.3   410  HEM410      0.0000
     40  CBD       16.0450   17.3210   10.5170 C.3   410  HEM410      0.0000
     41  CGD       14.8160   18.2010   10.6490 C.2   410  HEM410      0.0000
     42  O1D       13.7510   17.6930   11.0520 O.co2 410  HEM410      0.0000
     43  O2D       14.9160   19.3990   10.3310 O.co2 410  HEM410      0.0000
@<TRIPOS>BOND
     1    11     9    1
     2    22    19    1
     3    15    14   ar
     4    24    23    2
     5     9     8   ar
     6     9    10   ar
     7     3    10    2
     8     3    18    1
     9    19    18    1
    10    19    20    2
    11    12     8    1
    12    12    13    1
    13     8     7   ar
    14    10     6   ar
    15    18    17    2
    16    14    13    1
    17    14    16   ar
    18    20    23    1
    19    20    21    1
    20     7     6   ar
    21     7     2    2
    22     6     1    1
    23    17    21    1
    24    17     1    1
    25    21     4    2
    26     2    37    1
    27     1    33    1
    28     1    25    1
    29     4    26    1
    30    43    41   ar
    31    37    33    2
    32    37    36    1
    33    40    41    1
    34    40    39    1
    35    41    42   ar
    36    33    34    1
    37    26    25   ar
    38    26    27   ar
    39    25    29   ar
    40    36    39    1
    41    36    35    2
    42    34    35    1
    43    34     5    2
    44    27    30    1
    45    27    28   ar
    46    29     5    1
    47    29    28   ar
    48    35    38    1
    49    28    31    1
    50    31    32    2
