@<TRIPOS>MOLECULE
1z8q_HEM_A_1.pdb
 43 50 0 0 0
SMALL
GASTEIGER

@<TRIPOS>ATOM
      1 FE         19.5660   12.0900    9.7450 Fe    410  HEM410      0.0000
      2  CHA       16.6860   13.9540    9.4720 C.2   410  HEM410      0.0000
      3  CHB       18.4770   10.0380    7.2130 C.2   410  HEM410      0.0000
      4  CHC       22.4880   10.2800    9.9720 C.2   410  HEM410      0.0000
      5  CHD       20.3990   13.7700   12.6240 C.2   410  HEM410      0.0000
      6  NA        17.9130   11.9880    8.6220 N.ar  410  HEM410      0.0000
      7  C1A       16.8130   12.8530    8.6330 C.ar  410  HEM410      0.0000
      8  C2A       15.8260   12.4570    7.6320 C.ar  410  HEM410      0.0000
      9  C3A       16.3070   11.3240    7.0190 C.ar  410  HEM410      0.0000
     10  C4A       17.6090   11.0550    7.6210 C.ar  410  HEM410      0.0000
     11  CMA       15.5590   10.3960    6.0480 C.3   410  HEM410      0.0000
     12  CAA       14.4790   13.1330    7.3670 C.3   410  HEM410      0.0000
     13  CBA       13.3580   12.7350    8.3330 C.3   410  HEM410      0.0000
     14  CGA       12.0130   13.3420    7.9500 C.2   410  HEM410      0.0000
     15  O1A       11.8790   13.8120    6.7970 O.co2 410  HEM410      0.0000
     16  O2A       11.0900   13.3380    8.7940 O.co2 410  HEM410      0.0000
     17  NB        20.3290   10.5110    8.7990 N.2   410  HEM410      0.0000
     18  C1B       19.7450    9.7790    7.7660 C.2   410  HEM410      0.0000
     19  C2B       20.6230    8.7180    7.3170 C.2   410  HEM410      0.0000
     20  C3B       21.7690    8.7970    8.0640 C.2   410  HEM410      0.0000
     21  C4B       21.5750    9.9110    8.9790 C.2   410  HEM410      0.0000
     22  CMB       20.2800    7.6870    6.2370 C.3   410  HEM410      0.0000
     23  CAB       22.9040    7.9760    8.0110 C.2   410  HEM410      0.0000
     24  CBB       23.3410    7.2970    6.9140 C.2   410  HEM410      0.0000
     25  NC        21.1580   12.0820   10.9820 N.ar  410  HEM410      0.0000
     26  C1C       22.2920   11.2960   10.9120 C.ar  410  HEM410      0.0000
     27  C2C       23.1680   11.5430   12.0370 C.ar  410  HEM410      0.0000
     28  C3C       22.5420   12.4640   12.8550 C.ar  410  HEM410      0.0000
     29  C4C       21.3050   12.7980   12.1690 C.ar  410  HEM410      0.0000
     30  CMC       24.5490   10.9170   12.1940 C.3   410  HEM410      0.0000
     31  CAC       22.9020   12.9980   14.1120 C.2   410  HEM410      0.0000
     32  CBC       24.1780   13.1660   14.5690 C.2   410  HEM410      0.0000
     33  ND        18.7790   13.6020   10.7480 N.2   410  HEM410      0.0000
     34  C1D       19.2510   14.1860   11.9300 C.2   410  HEM410      0.0000
     35  C2D       18.3990   15.2640   12.3540 C.2   410  HEM410      0.0000
     36  C3D       17.3900   15.3730   11.4580 C.2   410  HEM410      0.0000
     37  C4D       17.6040   14.3260   10.4650 C.2   410  HEM410      0.0000
     38  CMD       18.5240   16.0500   13.6540 C.3   410  HEM410      0.0000
     39  CAD       16.2240   16.3550   11.6040 C.3   410  HEM410      0.0000
     40  CBD       16.0870   17.3220   10.4360 C.3   410  HEM410      0.0000
     41  CGD       14.9550   18.3100   10.6260 C.2   410  HEM410      0.0000
     42  O1D       13.8520   17.8810   11.0280 O.co2 410  HEM410      0.0000
     43  O2D       15.1620   19.5140   10.3570 O.co2 410  HEM410      0.0000
@<TRIPOS>BOND
     1    11     9    1
     2    22    19    1
     3    15    14   ar
     4    24    23    2
     5     9    10   ar
     6     9     8   ar
     7     3    10    2
     8     3    18    1
     9    19    18    1
    10    19    20    2
    11    12     8    1
    12    12    13    1
    13    10     6   ar
    14     8     7   ar
    15    18    17    2
    16    14    13    1
    17    14    16   ar
    18    23    20    1
    19    20    21    1
    20     6     7   ar
    21     6     1    1
    22     7     2    2
    23    17    21    1
    24    17     1    1
    25    21     4    2
    26     2    37    1
    27     1    33    1
    28     1    25    1
    29     4    26    1
    30    43    41   ar
    31    40    41    1
    32    40    39    1
    33    37    33    2
    34    37    36    1
    35    41    42   ar
    36    33    34    1
    37    26    25   ar
    38    26    27   ar
    39    25    29   ar
    40    36    39    1
    41    36    35    2
    42    34    35    1
    43    34     5    2
    44    27    30    1
    45    27    28   ar
    46    29     5    1
    47    29    28   ar
    48    35    38    1
    49    28    31    1
    50    31    32    2
