@<TRIPOS>MOLECULE
1z8q_DEB_A_1.pdb
 27 27 0 0 0
SMALL
GASTEIGER

@<TRIPOS>ATOM
      1  C1        14.5290    7.4020   15.7830 C.2   420  DEB420      0.3188
      2  C2        15.4610    6.3880   15.0240 C.3   420  DEB420      0.1294
      3  C3        16.2560    7.0930   13.9370 C.3   420  DEB420      0.1648
      4  C4        15.3560    7.8530   12.8980 C.3   420  DEB420      0.0614
      5  C5        16.2440    8.9250   12.1390 C.3   420  DEB420      0.1543
      6  C6        15.7200    9.9550   11.0870 C.3   420  DEB420      0.0309
      7  C7        14.5780   10.7760   11.7630 C.3   420  DEB420      0.0098
      8  C8        14.9150   11.5060   13.1260 C.3   420  DEB420      0.0578
      9  C9        13.7130   12.2940   13.7080 C.2   420  DEB420      0.1523
     10  C10       12.4060   11.4870   13.9500 C.3   420  DEB420      0.0881
     11  C11       12.7270   10.2460   14.9020 C.3   420  DEB420      0.1622
     12  C12       11.6280    9.2360   15.3170 C.3   420  DEB420      0.0710
     13  C13       12.1220    8.0800   16.2680 C.3   420  DEB420      0.1712
     14  C14       10.9730    7.1160   16.6760 C.3   420  DEB420      0.0437
     15  C15       11.3880    5.9840   17.6110 C.3   420  DEB420      0.0038
     16  O16       13.1500    7.2600   15.6430 O.3   420  DEB420     -0.4521
     17  O17       14.9780    8.3170   16.4950 O.2   420  DEB420     -0.2500
     18  C18       16.3980    5.6950   15.9980 C.3   420  DEB420      0.0143
     19  O19       17.0970    6.1150   13.2700 O.3   420  DEB420     -0.2225
     20  C20       14.6930    6.8040   11.9490 C.3   420  DEB420      0.0052
     21  O21       17.3170    8.2260   11.4670 O.3   420  DEB420     -0.2231
     22  C22       15.1570    9.3230    9.7980 C.3   420  DEB420      0.0026
     23  C23       16.1110   12.4290   12.9630 C.3   420  DEB420      0.0078
     24  O24       13.7990   13.4970   13.9720 O.2   420  DEB420     -0.2960
     25  C25       11.3200   12.4080   14.5520 C.3   420  DEB420      0.0104
     26  O26       13.3370   10.7680   16.1270 O.3   420  DEB420     -0.2226
     27  C27       10.9760    8.6610   14.0170 C.3   420  DEB420      0.0063
@<TRIPOS>BOND
     1    22     6    1
     2     6     7    1
     3     6     5    1
     4    21     5    1
     5     7     8    1
     6    20     4    1
     7     5     4    1
     8     4     3    1
     9    23     8    1
    10     8     9    1
    11    19     3    1
    12     9    10    1
    13     9    24    2
    14     3     2    1
    15    10    25    1
    16    10    11    1
    17    27    12    1
    18    11    12    1
    19    11    26    1
    20     2     1    1
    21     2    18    1
    22    12    13    1
    23    16     1    1
    24    16    13    1
    25     1    17    2
    26    13    14    1
    27    14    15    1
