@<TRIPOS>MOLECULE
1z8u_HEM_B_1.pdb
 43 50 0 0 0
SMALL
GASTEIGER

@<TRIPOS>ATOM
      1 FE        -19.3330    0.4850   -0.8330 Fe    201  HEM201      0.0000
      2  CHA      -18.4530   -0.6730    2.1460 C.2   201  HEM201      0.0000
      3  CHB      -17.4070   -1.9260   -2.3970 C.2   201  HEM201      0.0000
      4  CHC      -20.2970    1.6530   -3.9280 C.2   201  HEM201      0.0000
      5  CHD      -21.2320    2.9140    0.6110 C.2   201  HEM201      0.0000
      6  NA       -18.1280   -1.0310   -0.2270 N.ar  201  HEM201      0.0000
      7  C1A      -17.8920   -1.3370    1.0730 C.ar  201  HEM201      0.0000
      8  C2A      -17.0040   -2.4940    1.1500 C.ar  201  HEM201      0.0000
      9  C3A      -16.6920   -2.8350   -0.1320 C.ar  201  HEM201      0.0000
     10  C4A      -17.4200   -1.9060   -0.9920 C.ar  201  HEM201      0.0000
     11  CMA      -15.8050   -3.9580   -0.6100 C.3   201  HEM201      0.0000
     12  CAA      -16.5500   -3.1580    2.4360 C.3   201  HEM201      0.0000
     13  CBA      -17.6550   -4.1940    2.8200 C.3   201  HEM201      0.0000
     14  CGA      -17.5060   -5.0430    4.0890 C.2   201  HEM201      0.0000
     15  O1A      -17.1940   -6.2540    3.9660 O.co2 201  HEM201      0.0000
     16  O2A      -17.7380   -4.5020    5.2070 O.co2 201  HEM201      0.0000
     17  NB       -18.9400   -0.0300   -2.8110 N.2   201  HEM201      0.0000
     18  C1B      -18.1130   -1.0720   -3.2420 C.2   201  HEM201      0.0000
     19  C2B      -18.1060   -1.1360   -4.7040 C.2   201  HEM201      0.0000
     20  C3B      -18.9340   -0.1230   -5.1140 C.2   201  HEM201      0.0000
     21  C4B      -19.4330    0.5620   -3.9230 C.2   201  HEM201      0.0000
     22  CMB      -17.3460   -2.1300   -5.5540 C.3   201  HEM201      0.0000
     23  CAB      -19.3090    0.2700   -6.4870 C.2   201  HEM201      0.0000
     24  CBB      -18.6860    1.1200   -7.2770 C.2   201  HEM201      0.0000
     25  NC       -20.5450    2.0140   -1.5520 N.ar  201  HEM201      0.0000
     26  C1C      -20.8000    2.3270   -2.8520 C.ar  201  HEM201      0.0000
     27  C2C      -21.6830    3.4820   -2.9140 C.ar  201  HEM201      0.0000
     28  C3C      -21.9320    3.8330   -1.6370 C.ar  201  HEM201      0.0000
     29  C4C      -21.2170    2.9000   -0.7820 C.ar  201  HEM201      0.0000
     30  CMC      -22.1960    4.1350   -4.1880 C.3   201  HEM201      0.0000
     31  CAC      -22.7590    4.9280   -1.1540 C.2   201  HEM201      0.0000
     32  CBC      -22.3130    6.0020   -0.5510 C.2   201  HEM201      0.0000
     33  ND       -19.7900    1.0180    1.0600 N.2   201  HEM201      0.0000
     34  C1D      -20.5770    2.0640    1.4610 C.2   201  HEM201      0.0000
     35  C2D      -20.6120    2.1350    2.9070 C.2   201  HEM201      0.0000
     36  C3D      -19.8060    1.1220    3.3250 C.2   201  HEM201      0.0000
     37  C4D      -19.3080    0.4360    2.1470 C.2   201  HEM201      0.0000
     38  CMD      -21.3590    3.1540    3.7370 C.3   201  HEM201      0.0000
     39  CAD      -19.3990    0.7490    4.6910 C.3   201  HEM201      0.0000
     40  CBD      -17.9730    1.4150    4.6120 C.3   201  HEM201      0.0000
     41  CGD      -17.0610    1.2440    5.7420 C.2   201  HEM201      0.0000
     42  O1D      -15.9990    0.6230    5.4920 O.co2 201  HEM201      0.0000
     43  O2D      -17.3810    1.7380    6.8440 O.co2 201  HEM201      0.0000
@<TRIPOS>BOND
     1    24    23    2
     2    23    20    1
     3    22    19    1
     4    20    19    2
     5    20    21    1
     6    19    18    1
     7    30    27    1
     8     4    21    2
     9     4    26    1
    10    21    17    1
    11    18    17    2
    12    18     3    1
    13    27    26   ar
    14    27    28   ar
    15    26    25   ar
    16    17     1    1
    17     3    10    2
    18    28    31    1
    19    28    29   ar
    20    25     1    1
    21    25    29   ar
    22    31    32    2
    23    10     6   ar
    24    10     9   ar
    25     1     6    1
    26     1    33    1
    27    29     5    1
    28    11     9    1
    29     6     7   ar
    30     9     8   ar
    31     5    34    2
    32    33    34    1
    33    33    37    2
    34     7     8   ar
    35     7     2    2
    36     8    12    1
    37    34    35    1
    38     2    37    1
    39    37    36    1
    40    12    13    1
    41    13    14    1
    42    35    36    2
    43    35    38    1
    44    36    39    1
    45    15    14   ar
    46    14    16   ar
    47    40    39    1
    48    40    41    1
    49    42    41   ar
    50    41    43   ar
