@<TRIPOS>MOLECULE
1z95_198_A_1.pdb
 29 30 0 0 0
SMALL
GASTEIGER

@<TRIPOS>ATOM
      1  C16       29.1850    1.4670    9.0150 C.ar  501  198501      0.0206
      2  C17       28.7480    1.3070   10.3270 C.ar  501  198501      0.0310
      3  C18       29.5430    0.6260   11.2440 C.ar  501  198501      0.1402
      4  F18       29.1270    0.4660   12.5160 F     501  198501     -0.2042
      5  C19       30.7730    0.1070   10.8520 C.ar  501  198501      0.0310
      6  C20       31.2100    0.2690    9.5410 C.ar  501  198501      0.0206
      7  C15       30.4160    0.9480    8.6230 C.ar  501  198501      0.1059
      8  S14       30.9610    1.1230    6.9710 S.O2  501  198501      0.0116
      9  O14       30.5010    2.4500    6.4430 O.2   501  198501     -0.1685
     10  O15       32.4580    1.0530    6.9270 O.2   501  198501     -0.1685
     11  C13       30.2570   -0.2330    5.9620 C.3   501  198501      0.1951
     12  C11       29.6810    0.2030    4.6120 C.3   501  198501      0.2184
     13  O11       30.6660    0.9590    3.9030 O.3   501  198501     -0.2144
     14  C12       29.2760   -1.0210    3.7880 C.3   501  198501      0.0444
     15  C10       28.4490    1.0870    4.8230 C.2   501  198501      0.2748
     16  O10       27.4440    0.6410    5.3760 O.2   501  198501     -0.2703
     17  N9        28.6250    2.3570    4.4660 N.am  501  198501     -0.1771
     18  C1        27.7060    3.3220    4.5180 C.ar  501  198501      0.0734
     19  C2        26.3660    3.0880    4.8190 C.ar  501  198501      0.0211
     20  C6        28.0950    4.6030    4.1420 C.ar  501  198501      0.0173
     21  C5        27.1500    5.6220    4.0830 C.ar  501  198501      0.0116
     22  C4        25.8150    5.3730    4.3880 C.ar  501  198501      0.0724
     23  C8        24.9330    6.4990    4.3240 C.1   501  198501      0.1004
     24  N8        24.2430    7.4020    4.2630 N.1   501  198501     -0.1908
     25  C3        25.3950    4.0900    4.7550 C.ar  501  198501      0.0823
     26  C7        23.9310    3.7310    5.0750 C.3   501  198501      0.4192
     27  F7B       23.7140    3.8720    6.3790 F     501  198501     -0.1658
     28  F7C       23.0300    4.4730    4.4370 F     501  198501     -0.1658
     29  F7A       23.6400    2.4740    4.7490 F     501  198501     -0.1658
@<TRIPOS>BOND
     1    14    12    1
     2    13    12    1
     3    21    20   ar
     4    21    22   ar
     5    20    18   ar
     6    24    23    3
     7    23    22    1
     8    22    25   ar
     9    28    26    1
    10    17    18    1
    11    17    15   am
    12    18    19   ar
    13    12    15    1
    14    12    11    1
    15    29    26    1
    16    25    19   ar
    17    25    26    1
    18    15    16    2
    19    26    27    1
    20    11     8    1
    21     9     8    2
    22    10     8    2
    23     8     7    1
    24     7     1   ar
    25     7     6   ar
    26     1     2   ar
    27     6     5   ar
    28     2     3   ar
    29     5     3   ar
    30     3     4    1
