@<TRIPOS>MOLECULE
1z9a_NAD_A_1.pdb
 44 48 0 0 0
SMALL
GASTEIGER

@<TRIPOS>ATOM
      1  PA       112.7020   11.2800    7.7080 P.3   1350  NAD1350     0.2189
      2  O1A      111.5060   11.6840    8.3380 O.3   1350  NAD1350    -0.4371
      3  O2A      113.1130   11.6020    6.2820 O.2   1350  NAD1350    -0.5170
      4  O5B      112.8330    9.6720    7.7810 O.3   1350  NAD1350    -0.3112
      5  C5B      113.3510    9.0700    8.9640 C.3   1350  NAD1350     0.1813
      6  C4B      113.4840    7.5290    8.7940 C.3   1350  NAD1350     0.1821
      7  O4B      112.2100    6.7650    8.5290 O.3   1350  NAD1350    -0.3135
      8  C3B      114.5030    7.0470    7.7230 C.3   1350  NAD1350     0.2184
      9  O3B      115.8170    6.9390    8.2500 O.3   1350  NAD1350    -0.2174
     10  C2B      113.9420    5.7350    7.2200 C.3   1350  NAD1350     0.2570
     11  O2B      114.5300    4.5930    7.8170 O.3   1350  NAD1350    -0.2130
     12  C1B      112.4270    5.7790    7.5320 C.3   1350  NAD1350     0.3186
     13  N9A      111.5420    6.0390    6.3940 N.pl3 1350  NAD1350    -0.1439
     14  C8A      111.6840    6.8550    5.2930 C.3   1350  NAD1350     0.3377
     15  N7A      110.7230    6.7250    4.3870 N.2   1350  NAD1350    -0.2095
     16  C5A      109.8900    5.7580    4.9450 C.2   1350  NAD1350     0.2526
     17  C6A      108.6910    5.1950    4.4500 C.2   1350  NAD1350     0.4393
     18  N6A      108.0720    5.4720    3.2860 N.pl3 1350  NAD1350     0.2180
     19  N1A      108.0650    4.2300    5.2530 N.2   1350  NAD1350     0.0021
     20  C2A      108.6080    3.8480    6.4920 C.3   1350  NAD1350     0.5254
     21  N3A      109.7840    4.3830    7.0020 N.2   1350  NAD1350    -0.0055
     22  C4A      110.3920    5.3400    6.1920 C.2   1350  NAD1350     0.3518
     23  O3       113.8880   11.8010    8.6480 O.3   1350  NAD1350    -0.2703
     24  PN       115.2540   12.6010    8.4510 P.3   1350  NAD1350     0.2189
     25  O1N      116.0900   11.9270    7.4360 O.2   1350  NAD1350    -0.5170
     26  O2N      115.8330   12.7190    9.8110 O.3   1350  NAD1350    -0.4371
     27  O5D      114.8450   14.0400    7.9070 O.3   1350  NAD1350    -0.3112
     28  C5D      114.3680   14.2380    6.5410 C.3   1350  NAD1350     0.1813
     29  C4D      115.4160   14.9470    5.7110 C.3   1350  NAD1350     0.1799
     30  O4D      115.4600   16.3770    5.9720 O.3   1350  NAD1350    -0.3327
     31  C3D      116.9070   14.4540    5.8280 C.3   1350  NAD1350     0.2158
     32  O3D      117.2400   13.4150    4.8980 O.3   1350  NAD1350    -0.2175
     33  C2D      117.7440   15.7190    5.6560 C.3   1350  NAD1350     0.2309
     34  O2D      118.1810   15.9360    4.3240 O.3   1350  NAD1350    -0.2158
     35  C1D      116.8540   16.8310    6.1140 C.3   1350  NAD1350     0.2263
     36  N1N      117.0970   17.3440    7.5250 N.pl3 1350  NAD1350    -0.2787
     37  C2N      117.4430   18.7050    7.7630 C.3   1350  NAD1350     0.1244
     38  C3N      117.6950   19.1180    9.0760 C.2   1350  NAD1350     0.0544
     39  C7N      118.0720   20.5830    9.3430 C.2   1350  NAD1350     0.2818
     40  O7N      118.2990   20.8830   10.5050 O.2   1350  NAD1350    -0.2670
     41  N7N      118.1460   21.4500    8.3680 N.am  1350  NAD1350    -0.0839
     42  C4N      117.6120   18.1840   10.2020 C.2   1350  NAD1350     0.0033
     43  C5N      117.2570   16.8400    9.9270 C.2   1350  NAD1350     0.0157
     44  C6N      116.9950   16.3890    8.5990 C.2   1350  NAD1350     0.0633
@<TRIPOS>BOND
     1    18    17    1
     2    34    33    1
     3    15    16    2
     4    15    14    1
     5    17    16    1
     6    17    19    2
     7    32    31    1
     8    16    22    1
     9    19    20    1
    10    14    13    1
    11    33    31    1
    12    33    35    1
    13    29    31    1
    14    29    30    1
    15    29    28    1
    16    30    35    1
    17    35    36    1
    18    22    13    1
    19    22    21    2
    20     3     1    2
    21    13    12    1
    22    20    21    1
    23    28    27    1
    24    10    12    1
    25    10     8    1
    26    10    11    1
    27    25    24    2
    28    36    37    1
    29    36    44    1
    30    12     7    1
    31     1     4    1
    32     1     2    1
    33     1    23    1
    34     8     9    1
    35     8     6    1
    36    37    38    1
    37     4     5    1
    38    27    24    1
    39    41    39   am
    40    24    23    1
    41    24    26    1
    42     7     6    1
    43    44    43    2
    44     6     5    1
    45    38    39    1
    46    38    42    2
    47    39    40    2
    48    43    42    1
