@<TRIPOS>MOLECULE
1z9g_RRT_E_1.pdb
 17 17 0 0 0
SMALL
GASTEIGER

@<TRIPOS>ATOM
      1  SG        35.9650   42.6870   -6.7510 S.3   1006  RRT1006    -0.0803
      2  CB2       35.1540   42.3440   -5.1990 C.3   1006  RRT1006     0.0906
      3  CA1       36.2330   42.3660   -4.1280 C.3   1006  RRT1006     0.1112
      4  CB1       35.5510   42.6630   -2.8070 C.3   1006  RRT1006     0.0489
      5  CG        36.5110   42.8770   -1.6820 C.ar  1006  RRT1006    -0.0204
      6  CD1       37.2780   44.0460   -1.7000 C.ar  1006  RRT1006    -0.0042
      7  CD2       36.6020   41.9870   -0.6120 C.ar  1006  RRT1006    -0.0042
      8  CE1       38.1670   44.3670   -0.6830 C.ar  1006  RRT1006    -0.0003
      9  CE2       37.5240   42.2670    0.3960 C.ar  1006  RRT1006    -0.0003
     10  CZ        38.2790   43.4440    0.3570 C.ar  1006  RRT1006    -0.0000
     11  C1        38.2270   40.9690   -3.6580 C.2   1006  RRT1006     0.2529
     12  O1        39.0170   41.9410   -3.6710 O.2   1006  RRT1006    -0.2727
     13  N         36.9280   41.1070   -3.9110 N.am  1006  RRT1006    -0.2054
     14  CA2       38.7180   39.4920   -3.4200 C.3   1006  RRT1006     0.2004
     15  C2        38.6840   38.6030   -4.6890 C.2   1006  RRT1006     0.3741
     16  O2        37.6450   38.5360   -5.4730 O.co2 1006  RRT1006    -0.2451
     17  O3        39.7280   37.9510   -4.9200 O.co2 1006  RRT1006    -0.2451
@<TRIPOS>BOND
     1     1     2    1
     2    16    15   ar
     3     2     3    1
     4    17    15   ar
     5    15    14    1
     6     3    13    1
     7     3     4    1
     8    13    11   am
     9    12    11    2
    10    11    14    1
    11     4     5    1
    12     6     5   ar
    13     6     8   ar
    14     5     7   ar
    15     8    10   ar
    16     7     9   ar
    17    10     9   ar
