@<TRIPOS>MOLECULE
1z9h_IMN_A_1.pdb
 25 27 0 0 0
SMALL
GASTEIGER

@<TRIPOS>ATOM
      1  C        -21.0830   54.3620   11.9650 C.ar  379  IMN379      0.0664
      2  C1       -20.0730   53.8420   12.9560 C.ar  379  IMN379      0.0169
      3  C2       -19.2180   54.7880   13.6700 C.ar  379  IMN379      0.0381
      4  C3       -19.3010   56.1930   13.4580 C.ar  379  IMN379      0.1388
      5  C4       -20.2600   56.6990   12.5240 C.ar  379  IMN379      0.0384
      6  C5       -21.1170   55.8210   11.8010 C.ar  379  IMN379      0.0207
      7  C6       -18.3930   58.4500   14.0940 C.3   379  IMN379      0.2525
      8  C7       -20.1790   52.3460   12.9970 C.ar  379  IMN379      0.0027
      9  C8       -21.2590   51.9990   12.0100 C.ar  379  IMN379      0.0411
     10  C9       -22.8120   53.3270   10.4300 C.2   379  IMN379      0.2644
     11  C10      -23.0870   54.5000    9.4140 C.ar  379  IMN379      0.0565
     12  C11      -24.3180   55.2360    9.6580 C.ar  379  IMN379      0.0056
     13  C12      -24.7170   56.3590    8.8300 C.ar  379  IMN379      0.0115
     14  C13      -23.8800   56.7630    7.7500 C.ar  379  IMN379      0.0577
     15  C14      -22.6740   56.0640    7.4820 C.ar  379  IMN379      0.0115
     16  C15      -22.2660   54.9400    8.3040 C.ar  379  IMN379      0.0056
     17  C16      -21.7080   50.5690   11.7180 C.3   379  IMN379      0.0501
     18  C17      -19.2720   51.5520   13.9330 C.3   379  IMN379      0.1415
     19  C18      -19.2530   51.7160   15.4600 C.2   379  IMN379      0.3693
     20  N        -21.7240   53.2230   11.4620 N.ar  379  IMN379     -0.2785
     21  O        -18.4500   57.0040   14.1740 O.3   379  IMN379     -0.4714
     22  O1       -23.6280   52.4090   10.3280 O.2   379  IMN379     -0.2666
     23  O2       -20.2210   51.7340   16.2070 O.co2 379  IMN379     -0.2453
     24  O3       -18.0540   51.8800   16.0350 O.co2 379  IMN379     -0.2453
     25 CL        -24.2890   58.1010    6.7910 Cl    379  IMN379     -0.0822
@<TRIPOS>BOND
     1    25    14    1
     2    15    14   ar
     3    15    16   ar
     4    14    13   ar
     5    16    11   ar
     6    13    12   ar
     7    11    12   ar
     8    11    10    1
     9    22    10    2
    10    10    20   am
    11    20     1   ar
    12    20     9   ar
    13    17     9    1
    14     6     1   ar
    15     6     5   ar
    16     1     2   ar
    17     9     8   ar
    18     5     4   ar
    19     2     8   ar
    20     2     3   ar
    21     8    18    1
    22     4     3   ar
    23     4    21    1
    24    18    19    1
    25     7    21    1
    26    19    24   ar
    27    19    23   ar
