@<TRIPOS>MOLECULE
1z9j_U10_A_1.pdb
 48 48 0 0 0
SMALL
GASTEIGER

@<TRIPOS>ATOM
      1  C1       122.8560   28.7380   52.8920 C.2   857  U10857      0.0198
      2  C2       122.1460   27.4260   52.6660 C.2   857  U10857      0.2282
      3  C3       122.8770   26.2200   52.1740 C.2   857  U10857      0.2140
      4  C4       124.3520   26.2940   51.8900 C.2   857  U10857      0.2140
      5  C5       125.0860   27.6010   52.1090 C.2   857  U10857      0.2285
      6  C6       124.3580   28.8630   52.6190 C.2   857  U10857      0.0235
      7  C1M      122.0420   29.9390   53.4080 C.3   857  U10857      0.0343
      8  C3M      121.7250   24.6500   50.6940 C.3   857  U10857      0.2528
      9  C4M      125.2160   23.9840   52.2000 C.3   857  U10857      0.2528
     10  C7       125.0440   30.2570   52.8950 C.3   857  U10857      0.0548
     11  C8       125.5550   30.7940   51.6580 C.2   857  U10857     -0.0298
     12  C9       126.0280   32.0710   51.3770 C.2   857  U10857     -0.0475
     13  C10      126.4790   32.2660   49.9350 C.3   857  U10857      0.0260
     14  C11      126.1130   33.2460   52.3520 C.3   857  U10857      0.0264
     15  C12      127.5070   33.8430   52.4830 C.3   857  U10857      0.0297
     16  C13      127.9280   34.8610   51.4990 C.2   857  U10857     -0.0342
     17  C14      127.8880   36.2830   51.5310 C.2   857  U10857     -0.0478
     18  C15      128.4660   36.9310   50.2610 C.3   857  U10857      0.0260
     19  C16      127.3270   37.0970   52.7400 C.3   857  U10857      0.0263
     20  C17      127.3580   38.6690   52.7110 C.3   857  U10857      0.0297
     21  C18      126.5260   39.4050   51.7310 C.2   857  U10857     -0.0342
     22  C19      125.4110   40.2820   51.9190 C.2   857  U10857     -0.0478
     23  C20      124.7950   40.8780   50.6560 C.3   857  U10857      0.0260
     24  C21      124.7350   40.7040   53.2430 C.3   857  U10857      0.0264
     25  C22      125.5930   41.5230   54.2350 C.3   857  U10857      0.0300
     26  C23      124.9520   41.4100   55.5440 C.2   857  U10857     -0.0300
     27  C24      124.9410   40.3260   56.4450 C.2   857  U10857     -0.0261
     28  C25      124.1420   40.5960   57.7320 C.3   857  U10857      0.0307
     29  C26      125.6610   38.9340   56.2070 C.2   857  U10857     -0.0046
     30  C27      125.5120   37.8580   57.3250 C.2   857  U10857     -0.0010
     31  C28      125.8250   36.4550   56.9070 C.2   857  U10857     -0.0085
     32  C29      125.1300   35.6120   55.9620 C.2   857  U10857     -0.0436
     33  C30      125.6780   34.1940   55.7390 C.3   857  U10857      0.0264
     34  C31      123.8710   36.0460   55.1550 C.3   857  U10857      0.0267
     35  C32      122.5050   35.7550   55.8300 C.3   857  U10857      0.0297
     36  C33      121.5120   36.7700   55.3620 C.2   857  U10857     -0.0342
     37  C34      120.5300   37.4690   56.1560 C.2   857  U10857     -0.0478
     38  C35      119.6370   38.4520   55.3860 C.3   857  U10857      0.0260
     39  C36      120.2970   37.2940   57.7060 C.3   857  U10857      0.0263
     40  C37      120.9220   38.3720   58.6570 C.3   857  U10857      0.0297
     41  C38      121.8420   37.6800   59.6080 C.2   857  U10857     -0.0342
     42  C39      122.5940   38.2410   60.6950 C.2   857  U10857     -0.0478
     43  C40      123.4830   37.3100   61.5300 C.3   857  U10857      0.0260
     44  C41      122.5770   39.7140   61.0850 C.3   857  U10857      0.0260
     45  O2       120.9360   27.3350   52.8930 O.2   857  U10857     -0.2836
     46  O3       122.1640   25.0220   51.9890 O.2   857  U10857     -0.4652
     47  O4       125.0660   25.1770   51.4340 O.2   857  U10857     -0.4652
     48  O5       126.2960   27.5920   51.8620 O.2   857  U10857     -0.2835
@<TRIPOS>BOND
     1    13    12    1
     2    18    17    1
     3    23    22    1
     4     8    46    1
     5    12    11    2
     6    12    14    1
     7    47     4    1
     8    47     9    1
     9    16    17    2
    10    16    15    1
    11    17    19    1
    12    11    10    1
    13    21    22    2
    14    21    20    1
    15    48     5    2
    16     4     5    1
    17     4     3    2
    18    22    24    1
    19    46     3    1
    20     5     6    1
    21     3     2    1
    22    14    15    1
    23     6     1    2
    24     6    10    1
    25     2     1    1
    26     2    45    2
    27    20    19    1
    28     1     7    1
    29    24    25    1
    30    25    26    1
    31    34    35    1
    32    34    32    1
    33    36    35    1
    34    36    37    2
    35    38    37    1
    36    26    27    2
    37    33    32    1
    38    32    31    2
    39    37    39    1
    40    29    27    1
    41    29    30    2
    42    27    28    1
    43    31    30    1
    44    39    40    1
    45    40    41    1
    46    41    42    2
    47    42    44    1
    48    42    43    1
