@<TRIPOS>MOLECULE
1z9k_U10_A_1.pdb
 48 48 0 0 0
SMALL
GASTEIGER

@<TRIPOS>ATOM
      1  C1        30.1160   82.5600   48.3110 C.2   857  U10857      0.0198
      2  C2        28.7810   83.1590   48.7090 C.2   857  U10857      0.2282
      3  C3        27.5610   83.0590   47.8130 C.2   857  U10857      0.2140
      4  C4        27.6520   82.3390   46.4610 C.2   857  U10857      0.2140
      5  C5        28.9990   81.7260   46.0460 C.2   857  U10857      0.2285
      6  C6        30.2630   81.8120   46.9480 C.2   857  U10857      0.0235
      7  C1M       31.3020   82.7280   49.3030 C.3   857  U10857      0.0343
      8  C3M       25.8300   84.8140   47.6230 C.3   857  U10857      0.2528
      9  C4M       25.2240   81.7390   45.9200 C.3   857  U10857      0.2528
     10  C7        31.6620   81.1850   46.5060 C.3   857  U10857      0.0548
     11  C8        32.1700   80.1710   47.4300 C.2   857  U10857     -0.0298
     12  C9        33.0900   79.1550   47.1920 C.2   857  U10857     -0.0475
     13  C10       33.3950   78.2890   48.4060 C.3   857  U10857      0.0260
     14  C11       33.7970   78.8430   45.8540 C.3   857  U10857      0.0264
     15  C12       35.0830   79.6560   45.5750 C.3   857  U10857      0.0297
     16  C13       34.9640   81.0110   45.0140 C.2   857  U10857     -0.0342
     17  C14       35.7890   81.7190   44.1110 C.2   857  U10857     -0.0478
     18  C15       35.2700   83.1280   43.8120 C.3   857  U10857      0.0260
     19  C16       37.0890   81.1510   43.4780 C.3   857  U10857      0.0263
     20  C17       37.8450   82.1100   42.5090 C.3   857  U10857      0.0297
     21  C18       38.7340   81.4470   41.5200 C.2   857  U10857     -0.0342
     22  C19       40.1220   81.6240   41.2860 C.2   857  U10857     -0.0478
     23  C20       40.7420   80.7850   40.1690 C.3   857  U10857      0.0260
     24  C21       41.0670   82.5910   42.0430 C.3   857  U10857      0.0263
     25  C22       42.2060   81.9040   42.8490 C.3   857  U10857      0.0297
     26  C23       42.5570   82.7610   43.9940 C.2   857  U10857     -0.0342
     27  C24       42.1620   82.6320   45.3410 C.2   857  U10857     -0.0478
     28  C25       42.7040   83.7100   46.2990 C.3   857  U10857      0.0260
     29  C26       41.2400   81.5000   45.8630 C.3   857  U10857      0.0263
     30  C27       40.8810   81.4990   47.3640 C.3   857  U10857      0.0297
     31  C28       39.6050   80.7820   47.5570 C.2   857  U10857     -0.0342
     32  C29       38.5730   81.1010   48.4940 C.2   857  U10857     -0.0478
     33  C30       37.3110   80.1990   48.5210 C.3   857  U10857      0.0260
     34  C31       38.6830   82.3000   49.4730 C.3   857  U10857      0.0263
     35  C32       37.3600   83.0240   49.8360 C.3   857  U10857      0.0297
     36  C33       36.8730   82.4750   51.1110 C.2   857  U10857     -0.0342
     37  C34       37.3250   82.7870   52.4020 C.2   857  U10857     -0.0478
     38  C35       36.6220   82.0460   53.5280 C.3   857  U10857      0.0260
     39  C36       38.4460   83.7910   52.7500 C.3   857  U10857      0.0263
     40  C37       39.7650   83.1050   53.1610 C.3   857  U10857      0.0297
     41  C38       40.8830   83.9900   52.7830 C.2   857  U10857     -0.0342
     42  C39       42.1760   83.5840   52.3650 C.2   857  U10857     -0.0478
     43  C40       43.1950   84.6670   52.0160 C.3   857  U10857      0.0260
     44  C41       42.6130   82.1200   52.2380 C.3   857  U10857      0.0260
     45  O2        28.6880   83.7520   49.8000 O.2   857  U10857     -0.2836
     46  O3        26.3490   83.6470   48.2580 O.2   857  U10857     -0.4652
     47  O4        26.5270   82.2240   45.5670 O.2   857  U10857     -0.4652
     48  O5        29.0290   81.1540   44.9390 O.2   857  U10857     -0.2835
@<TRIPOS>BOND
     1    23    22    1
     2    22    21    2
     3    22    24    1
     4    21    20    1
     5    24    25    1
     6    20    19    1
     7    25    26    1
     8    19    17    1
     9    18    17    1
    10    26    27    2
    11    17    16    2
    12    48     5    2
    13    16    15    1
    14    27    29    1
    15    27    28    1
    16    47     9    1
    17    47     4    1
    18    15    14    1
    19    14    12    1
    20    29    30    1
    21     5     4    1
    22     5     6    1
    23     4     3    2
    24    10     6    1
    25    10    11    1
    26     6     1    2
    27    12    11    2
    28    12    13    1
    29    30    31    1
    30    31    32    2
    31     8    46    1
    32     3    46    1
    33     3     2    1
    34     1     2    1
    35     1     7    1
    36    32    33    1
    37    32    34    1
    38     2    45    2
    39    34    35    1
    40    35    36    1
    41    36    37    2
    42    43    42    1
    43    44    42    1
    44    42    41    2
    45    37    39    1
    46    37    38    1
    47    39    40    1
    48    41    40    1
