@<TRIPOS>MOLECULE
1z9n_HEM_A_1.pdb
 43 50 0 0 0
SMALL
GASTEIGER

@<TRIPOS>ATOM
      1  CHA       -2.1650   -6.6640   17.0840 C.2   1001  HEM1001     0.0000
      2  CHB       -0.1920   -4.2100   13.5200 C.2   1001  HEM1001     0.0000
      3  CHC        1.4870   -8.3200   11.6270 C.2   1001  HEM1001     0.0000
      4  CHD        0.2730  -10.6010   15.7190 C.2   1001  HEM1001     0.0000
      5  C1A       -1.8230   -5.6710   16.2320 C.ar  1001  HEM1001     0.0000
      6  C2A       -2.2930   -4.3170   16.3300 C.ar  1001  HEM1001     0.0000
      7  C3A       -1.7250   -3.6430   15.3550 C.ar  1001  HEM1001     0.0000
      8  C4A       -0.9040   -4.5750   14.6180 C.ar  1001  HEM1001     0.0000
      9  CMA       -1.9620   -2.1720   15.0370 C.3   1001  HEM1001     0.0000
     10  CAA       -3.3060   -3.7190   17.3380 C.3   1001  HEM1001     0.0000
     11  CBA       -2.6750   -2.6740   18.2540 C.3   1001  HEM1001     0.0000
     12  CGA       -2.1030   -3.4190   19.4250 C.2   1001  HEM1001     0.0000
     13  O1A       -2.8860   -3.9250   20.2720 O.co2 1001  HEM1001     0.0000
     14  O2A       -0.8660   -3.5070   19.5230 O.co2 1001  HEM1001     0.0000
     15  C1B        0.3390   -5.1070   12.6680 C.2   1001  HEM1001     0.0000
     16  C2B        0.8850   -4.7990   11.3730 C.2   1001  HEM1001     0.0000
     17  C3B        1.3870   -5.9210   10.8580 C.2   1001  HEM1001     0.0000
     18  C4B        1.1380   -7.0040   11.8020 C.2   1001  HEM1001     0.0000
     19  CMB        0.9260   -3.3750   10.7670 C.3   1001  HEM1001     0.0000
     20  CAB        2.0570   -6.1450    9.4890 C.2   1001  HEM1001     0.0000
     21  CBB        2.5600   -5.0770    8.8780 C.2   1001  HEM1001     0.0000
     22  C1C        1.3260   -9.3130   12.5820 C.ar  1001  HEM1001     0.0000
     23  C2C        1.7390  -10.6880   12.4600 C.ar  1001  HEM1001     0.0000
     24  C3C        1.3490  -11.3120   13.5800 C.ar  1001  HEM1001     0.0000
     25  C4C        0.7810  -10.3590   14.4730 C.ar  1001  HEM1001     0.0000
     26  CMC        2.3320  -11.2590   11.1820 C.3   1001  HEM1001     0.0000
     27  CAC        1.5090  -12.7960   13.9750 C.2   1001  HEM1001     0.0000
     28  CBC        1.0110  -13.7550   13.1930 C.2   1001  HEM1001     0.0000
     29  C1D       -0.4960   -9.7810   16.4620 C.2   1001  HEM1001     0.0000
     30  C2D       -1.1510  -10.0690   17.7320 C.2   1001  HEM1001     0.0000
     31  C3D       -1.8810   -8.8160   18.1400 C.2   1001  HEM1001     0.0000
     32  C4D       -1.6340   -7.8850   17.0630 C.2   1001  HEM1001     0.0000
     33  CMD       -1.0790  -11.3410   18.6020 C.3   1001  HEM1001     0.0000
     34  CAD       -2.6950   -8.5890   19.4320 C.3   1001  HEM1001     0.0000
     35  CBD       -4.2000   -8.5100   19.1960 C.3   1001  HEM1001     0.0000
     36  CGD       -4.8660   -9.3950   20.2120 C.2   1001  HEM1001     0.0000
     37  O1D       -4.6430   -9.1590   21.4360 O.co2 1001  HEM1001     0.0000
     38  O2D       -5.5910  -10.3370   19.7850 O.co2 1001  HEM1001     0.0000
     39  NA        -0.9410   -5.8430   15.1720 N.ar  1001  HEM1001     0.0000
     40  NB         0.5270   -6.4370   12.8770 N.2   1001  HEM1001     0.0000
     41  NC         0.7670   -9.1620   13.7820 N.ar  1001  HEM1001     0.0000
     42  ND        -0.8390   -8.5030   16.1240 N.2   1001  HEM1001     0.0000
     43 FE         -0.1390   -7.4910   14.4640 Fe    1001  HEM1001     0.0000
@<TRIPOS>BOND
     1    21    20    2
     2    20    17    1
     3    19    16    1
     4    17    16    2
     5    17    18    1
     6    26    23    1
     7    16    15    1
     8     3    18    2
     9     3    22    1
    10    18    40    1
    11    23    22   ar
    12    23    24   ar
    13    22    41   ar
    14    15    40    2
    15    15     2    1
    16    40    43    1
    17    28    27    2
    18     2     8    2
    19    24    27    1
    20    24    25   ar
    21    41    43    1
    22    41    25   ar
    23    43    39    1
    24    43    42    1
    25    25     4    1
    26     8    39   ar
    27     8     7   ar
    28     9     7    1
    29    39     5   ar
    30     7     6   ar
    31     4    29    2
    32    42    29    1
    33    42    32    2
    34     5     6   ar
    35     5     1    2
    36     6    10    1
    37    29    30    1
    38    32     1    1
    39    32    31    1
    40    10    11    1
    41    30    31    2
    42    30    33    1
    43    31    34    1
    44    11    12    1
    45    35    34    1
    46    35    36    1
    47    12    14   ar
    48    12    13   ar
    49    38    36   ar
    50    36    37   ar
