@<TRIPOS>MOLECULE
1z9y_FUN_A_1.pdb
 21 22 0 0 0
SMALL
GASTEIGER

@<TRIPOS>ATOM
      1  N1        15.6380    1.4270   16.1840 N.3   500  FUN500      0.0392
      2  S1        15.1370    2.6790   16.7840 S.O2  500  FUN500      0.0943
      3  O1        13.6590    2.6160   16.7330 O.2   500  FUN500     -0.1503
      4  O2        15.7130    2.9170   18.0870 O.2   500  FUN500     -0.1503
      5  C1        15.6100    3.9730   15.6750 C.ar  500  FUN500      0.1358
      6  C2        15.2930    5.3200   15.8850 C.ar  500  FUN500      0.0776
      7 CL1        14.4520    5.8080   17.3370 Cl    500  FUN500     -0.0808
      8  C3        15.6370    6.3520   15.0010 C.ar  500  FUN500      0.0291
      9  C4        16.4040    6.0270   13.8880 C.ar  500  FUN500      0.0731
     10  N2        16.7790    6.9930   12.9360 N.pl3 500  FUN500     -0.2292
     11  C5        16.4230    8.4030   13.1460 C.3   500  FUN500      0.1762
     12  C6        17.4210    9.0220   14.0850 C.ar  500  FUN500      0.1448
     13  C7        18.6220    9.4820   13.7380 C.ar  500  FUN500      0.0380
     14  C8        19.1450    9.9670   15.0190 C.ar  500  FUN500      0.0435
     15  C9        18.1450    9.7210   15.8700 C.ar  500  FUN500      0.1792
     16  O3        17.0770    9.0800   15.3780 O.2   500  FUN500     -0.4529
     17  C10       16.6950    4.6740   13.6520 C.ar  500  FUN500      0.0960
     18  C11       16.3160    3.6480   14.5140 C.ar  500  FUN500      0.0288
     19  C12       17.4990    4.2320   12.4480 C.2   500  FUN500      0.3890
     20  O4        17.8720    5.0500   11.6410 O.co2 500  FUN500     -0.2405
     21  O5        17.7760    2.9490   12.3240 O.co2 500  FUN500     -0.2405
@<TRIPOS>BOND
     1    20    19   ar
     2    21    19   ar
     3    19    17    1
     4    10    11    1
     5    10     9    1
     6    11    12    1
     7    17     9   ar
     8    17    18   ar
     9    13    12   ar
    10    13    14   ar
    11     9     8   ar
    12    12    16   ar
    13    18     5   ar
    14     8     6   ar
    15    14    15   ar
    16    16    15   ar
    17     5     6   ar
    18     5     2    1
    19     6     7    1
    20     1     2    1
    21     3     2    2
    22     2     4    2
