@<TRIPOS>MOLECULE
1za1_CTP_B_1.pdb
 29 30 0 0 0
SMALL
GASTEIGER

@<TRIPOS>ATOM
      1  N1        14.9440   83.8180   26.0750 N.am  901  CTP901     -0.1778
      2  C2        16.2430   84.3060   26.2840 C.1   901  CTP901      0.2756
      3  N3        16.6740   85.4380   25.5830 N.2   901  CTP901     -0.3024
      4  C4        15.8160   86.0830   24.6810 C.2   901  CTP901      0.2346
      5  C5        14.5270   85.6080   24.4830 C.2   901  CTP901      0.0687
      6  C6        14.0930   84.4830   25.1730 C.2   901  CTP901      0.0836
      7  O2        16.9960   83.7690   27.0920 O.2   901  CTP901     -0.1925
      8  N4        16.2650   87.1180   23.9720 N.pl3 901  CTP901     -0.0921
      9  C1'       14.4770   82.6070   26.7760 C.3   901  CTP901      0.2400
     10  C2'       13.4100   82.9570   27.8140 C.3   901  CTP901      0.2319
     11  O2'       14.0520   83.5750   28.9310 O.3   901  CTP901     -0.2157
     12  C3'       12.9870   81.5390   28.1960 C.3   901  CTP901      0.2158
     13  C4'       13.1230   80.7870   26.8690 C.3   901  CTP901      0.1799
     14  O4'       13.7170   81.7150   25.9410 O.3   901  CTP901     -0.3320
     15  O3'       13.9430   81.0220   29.1270 O.3   901  CTP901     -0.2175
     16  C5'       11.7890   80.2430   26.3510 C.3   901  CTP901      0.1813
     17  O5'       10.8040   81.2640   26.1520 O.3   901  CTP901     -0.3112
     18  PA         9.5920   80.9760   25.1290 P.3   901  CTP901      0.2189
     19  O1A        9.7890   79.5160   24.4790 O.3   901  CTP901     -0.4371
     20  O2A        9.6290   82.0760   23.9520 O.2   901  CTP901     -0.5170
     21  O3A        8.1720   81.0030   25.8900 O.3   901  CTP901     -0.2700
     22  PB         7.9210   79.8960   27.0260 P.3   901  CTP901      0.2277
     23  O1B        9.3920   79.5140   27.5570 O.2   901  CTP901     -0.5168
     24  O2B        6.9870   80.2580   28.1140 O.3   901  CTP901     -0.4368
     25  O3B        7.4040   78.5620   26.2980 O.3   901  CTP901     -0.2258
     26  PG         7.4310   77.2740   27.2560 P.3   901  CTP901      0.5373
     27  O1G        7.4880   75.9790   26.2990 O.2   901  CTP901     -0.2221
     28  O2G        8.8440   77.3280   28.0290 O.3   901  CTP901     -0.1143
     29  O3G        6.2840   77.2610   28.1950 O.3   901  CTP901     -0.1143
@<TRIPOS>BOND
     1    20    18    2
     2     8     4    1
     3    19    18    1
     4     5     4    1
     5     5     6    2
     6     4     3    2
     7    18    21    1
     8    18    17    1
     9     6     1    1
    10     3     2    2
    11    21    22    1
    12    14     9    1
    13    14    13    1
    14     1     2   am
    15     1     9    1
    16    17    16    1
    17     2     7    2
    18    25    22    1
    19    25    26    1
    20    27    26    2
    21    16    13    1
    22     9    10    1
    23    13    12    1
    24    22    23    2
    25    22    24    1
    26    26    28    1
    27    26    29    1
    28    10    12    1
    29    10    11    1
    30    12    15    1
