@<TRIPOS>MOLECULE
1za2_CTP_B_1.pdb
 29 30 0 0 0
SMALL
GASTEIGER

@<TRIPOS>ATOM
      1  N1        15.0870   83.9630   26.3590 N.am  155  CTP155     -0.1778
      2  C2        16.2140   84.6730   26.7870 C.1   155  CTP155      0.2756
      3  N3        16.6010   85.8320   26.1020 N.2   155  CTP155     -0.3024
      4  C4        15.8640   86.2780   24.9970 C.2   155  CTP155      0.2346
      5  C5        14.7360   85.5800   24.5810 C.2   155  CTP155      0.0687
      6  C6        14.3500   84.4280   25.2600 C.2   155  CTP155      0.0836
      7  O2        16.8600   84.2930   27.7660 O.2   155  CTP155     -0.1925
      8  N4        16.2660   87.3540   24.3240 N.pl3 155  CTP155     -0.0921
      9  C1'       14.7280   82.6790   27.0060 C.3   155  CTP155      0.2400
     10  C2'       13.6070   82.7950   28.0360 C.3   155  CTP155      0.2319
     11  O2'       14.1190   83.3960   29.2290 O.3   155  CTP155     -0.2157
     12  C3'       13.3830   81.3020   28.2760 C.3   155  CTP155      0.2158
     13  C4'       13.5370   80.7150   26.8700 C.3   155  CTP155      0.1799
     14  O4'       14.1810   81.7300   26.0770 O.3   155  CTP155     -0.3320
     15  O3'       14.4000   80.7800   29.1360 O.3   155  CTP155     -0.2175
     16  C5'       12.1660   80.4370   26.2480 C.3   155  CTP155      0.1813
     17  O5'       11.3890   81.6350   26.1740 O.3   155  CTP155     -0.3112
     18  PA        10.0040   81.6650   25.3550 P.3   155  CTP155      0.2189
     19  O1A       10.0030   80.4950   24.2490 O.2   155  CTP155     -0.5170
     20  O2A        9.8790   83.0900   24.6170 O.3   155  CTP155     -0.4371
     21  O3A        8.7560   81.4640   26.3520 O.3   155  CTP155     -0.2700
     22  PB         8.4460   80.0360   27.0310 P.3   155  CTP155      0.2277
     23  O1B        9.6050   79.8050   28.1240 O.3   155  CTP155     -0.4368
     24  O2B        7.0900   79.9630   27.6180 O.2   155  CTP155     -0.5168
     25  O3B        8.6760   78.9190   25.8940 O.3   155  CTP155     -0.2258
     26  PG         8.7520   77.3630   26.3030 P.3   155  CTP155      0.5373
     27  O1G       10.0280   77.2260   27.2740 O.3   155  CTP155     -0.1143
     28  O2G        7.4660   77.0730   27.2270 O.3   155  CTP155     -0.1143
     29  O3G        8.8320   76.4640   25.1290 O.2   155  CTP155     -0.2221
@<TRIPOS>BOND
     1    19    18    2
     2     8     4    1
     3     5     4    1
     4     5     6    2
     5    20    18    1
     6     4     3    2
     7    29    26    2
     8     6     1    1
     9    18    17    1
    10    18    21    1
    11    25    26    1
    12    25    22    1
    13    14    13    1
    14    14     9    1
    15     3     2    2
    16    17    16    1
    17    16    13    1
    18    26    28    1
    19    26    27    1
    20    21    22    1
    21     1     2   am
    22     1     9    1
    23     2     7    2
    24    13    12    1
    25     9    10    1
    26    22    24    2
    27    22    23    1
    28    10    12    1
    29    10    11    1
    30    12    15    1
