@<TRIPOS>MOLECULE
1zab_URD_A_1.pdb
 17 18 0 0 0
SMALL
GASTEIGER

@<TRIPOS>ATOM
      1  O5'       14.5260    0.9850   63.3200 O.3   1001  URD1001    -0.2176
      2  C5'       13.4040    0.4190   63.9900 C.3   1001  URD1001     0.2142
      3  C4'       13.5530    0.5750   65.4860 C.3   1001  URD1001     0.1829
      4  O4'       14.5150   -0.3990   65.9770 O.3   1001  URD1001    -0.3323
      5  C1'       15.5330    0.2640   66.7020 C.3   1001  URD1001     0.2319
      6  N1        16.7950   -0.4670   66.5130 N.am  1001  URD1001    -0.2322
      7  C6        17.1350   -0.9970   65.2770 C.2   1001  URD1001     0.0727
      8  C2        17.5780   -0.6970   67.6390 C.2   1001  URD1001     0.2390
      9  O2        17.3500   -0.1850   68.7230 O.2   1001  URD1001    -0.2740
     10  C3        18.7310   -1.4990   67.4070 C.3   1001  URD1001     0.1546
     11  C4        19.1190   -2.0550   66.1600 C.2   1001  URD1001     0.1836
     12  O4        19.9630   -2.9510   66.0620 O.2   1001  URD1001    -0.2908
     13  C5        18.2320   -1.7550   65.0720 C.2   1001  URD1001     0.0542
     14  C2'       15.5490    1.6840   66.1480 C.3   1001  URD1001     0.2313
     15  O2'       16.2160    2.5870   67.0110 O.3   1001  URD1001    -0.2158
     16  C3'       14.0560    1.9340   65.9630 C.3   1001  URD1001     0.2159
     17  O3'       13.4090    2.2960   67.1800 O.3   1001  URD1001    -0.2175
@<TRIPOS>BOND
     1     1     2    1
     2     2     3    1
     3    13     7    2
     4    13    11    1
     5     7     6    1
     6     3    16    1
     7     3     4    1
     8    16    14    1
     9    16    17    1
    10     4     5    1
    11    12    11    2
    12    14     5    1
    13    14    15    1
    14    11    10    1
    15     6     5    1
    16     6     8   am
    17    10     8    1
    18     8     9    2
