@<TRIPOS>MOLECULE
1zaf_789_A_1.pdb
 19 21 0 0 0
SMALL
GASTEIGER

@<TRIPOS>ATOM
      1  C1        33.4620   36.3160   35.9540 C.ar  201  789201      0.1958
      2  C2        32.8160   35.6350   37.0420 C.ar  201  789201      0.0452
      3  C3        31.5420   36.1300   37.4560 C.ar  201  789201      0.0426
      4  C4        30.9330   37.2250   36.8510 C.ar  201  789201      0.0096
      5  C5        31.5830   37.9080   35.7580 C.ar  201  789201      0.0039
      6  C6        32.8600   37.4450   35.3080 C.ar  201  789201      0.0420
      7  C10       30.6610   35.7020   38.4680 C.2   201  789201      0.1961
      8  C11       29.4350   36.5800   38.4850 C.2   201  789201      0.0452
      9  C12       29.6390   37.5550   37.4390 C.2   201  789201      0.0377
     10  C13       28.2420   36.4590   39.4200 C.ar  201  789201      0.0038
     11  C15       26.9150   36.7450   38.9340 C.ar  201  789201      0.0034
     12  C16       25.7710   36.6530   39.7820 C.ar  201  789201      0.0420
     13  C17       25.9560   36.2660   41.1380 C.ar  201  789201      0.1957
     14  C18       27.2570   35.9680   41.6570 C.ar  201  789201      0.0420
     15  C19       28.4020   36.0650   40.7970 C.ar  201  789201      0.0034
     16  O24       24.8490   36.1830   41.9420 O.3   201  789201     -0.2866
     17  O25       30.8640   34.7500   39.2200 O.2   201  789201     -0.2866
     18  O26       34.6920   35.8860   35.5140 O.3   201  789201     -0.2866
     19 BR29       28.5450   38.9880   36.8620 Br    201  789201     -0.0489
@<TRIPOS>BOND
     1     6     5   ar
     2     6     1   ar
     3    18     1    1
     4     5     4   ar
     5     1     2   ar
     6     4     9    1
     7     4     3   ar
     8    19     9    1
     9     2     3   ar
    10     9     8    2
    11     3     7    1
    12     7     8    1
    13     7    17    2
    14     8    10    1
    15    11    10   ar
    16    11    12   ar
    17    10    15   ar
    18    12    13   ar
    19    15    14   ar
    20    13    14   ar
    21    13    16    1
