@<TRIPOS>MOLECULE
1zag_MAN_B_1.pdb
 11 11 0 0 0
SMALL
GASTEIGER

@<TRIPOS>ATOM
      1  C1        16.0060  121.2320    8.0890 C.3   323  MAN323      0.1777
      2  C2        16.3050  122.0740    6.8330 C.3   323  MAN323      0.2141
      3  C3        15.9980  121.2570    5.5690 C.3   323  MAN323      0.2173
      4  C4        16.7040  119.8840    5.6230 C.3   323  MAN323      0.2142
      5  C5        16.4580  119.1910    6.9690 C.3   323  MAN323      0.1810
      6  C6        17.2730  117.9390    7.1590 C.3   323  MAN323      0.2141
      7  O2        17.7110  122.3510    6.8050 O.3   323  MAN323     -0.2176
      8  O3        16.4840  121.9700    4.4350 O.3   323  MAN323     -0.2175
      9  O4        16.2500  119.0510    4.5630 O.3   323  MAN323     -0.2176
     10  O5        16.8190  120.0840    8.0420 O.3   323  MAN323     -0.3481
     11  O6        18.3830  118.2000    8.0120 O.3   323  MAN323     -0.2176
@<TRIPOS>BOND
     1     8     3    1
     2     9     4    1
     3     3     4    1
     4     3     2    1
     5     4     5    1
     6     7     2    1
     7     2     1    1
     8     5     6    1
     9     5    10    1
    10     6    11    1
    11    10     1    1
