@<TRIPOS>MOLECULE
1zai_2FP_A_1.pdb
 19 18 0 0 0
SMALL
GASTEIGER

@<TRIPOS>ATOM
      1  P1         6.9100  -32.6970   47.9790 P.3   3001  2FP3001     0.5326
      2  O1         6.2930  -31.2740   48.4120 O.3   3001  2FP3001    -0.2702
      3  C1         6.2250  -30.2120   47.4570 C.3   3001  2FP3001     0.1565
      4  C2         5.5320  -28.9900   48.0690 C.3   3001  2FP3001     0.0683
      5  C3         4.9830  -29.0470   49.4960 C.3   3001  2FP3001     0.1873
      6  O3         4.6760  -27.7180   49.9240 O.3   3001  2FP3001    -0.2202
      7  C4         3.7150  -29.9030   49.5730 C.3   3001  2FP3001     0.2148
      8  O4         2.6980  -29.3090   48.7620 O.3   3001  2FP3001    -0.2176
      9  C5         3.2280  -30.0240   51.0200 C.3   3001  2FP3001     0.2146
     10  O5         4.0110  -30.9960   51.7170 O.3   3001  2FP3001    -0.2176
     11  C6         1.7500  -30.4080   51.1150 C.3   3001  2FP3001     0.1892
     12  O6         1.2870  -30.2120   52.4540 O.3   3001  2FP3001    -0.2674
     13  O11        7.0650  -33.6150   49.1300 O.3   3001  2FP3001    -0.1145
     14  O12        5.9410  -33.2900   46.8380 O.2   3001  2FP3001    -0.2224
     15  O13        8.3150  -32.3600   47.2700 O.3   3001  2FP3001    -0.1145
     16  P6        -0.1710  -30.7050   52.9280 P.3   3001  2FP3001     0.5327
     17  O61       -0.4560  -30.3510   54.3370 O.3   3001  2FP3001    -0.1145
     18  O62       -1.2410  -30.0600   51.9110 O.2   3001  2FP3001    -0.2224
     19  O63       -0.2230  -32.2950   52.6850 O.3   3001  2FP3001    -0.1145
@<TRIPOS>BOND
     1    14     1    2
     2    15     1    1
     3     3     4    1
     4     3     2    1
     5     1     2    1
     6     1    13    1
     7     4     5    1
     8     8     7    1
     9     5     7    1
    10     5     6    1
    11     7     9    1
    12     9    11    1
    13     9    10    1
    14    11    12    1
    15    18    16    2
    16    12    16    1
    17    19    16    1
    18    16    17    1
