@<TRIPOS>MOLECULE
1zaj_M2P_A_1.pdb
 20 19 0 0 0
SMALL
GASTEIGER

@<TRIPOS>ATOM
      1  C1         5.8470  -30.5860   47.9390 C.3   3001  M2P3001     0.1892
      2  C5         2.5090  -30.2410   51.4720 C.3   3001  M2P3001     0.2147
      3  C6         1.0680  -30.7010   51.6990 C.3   3001  M2P3001     0.1892
      4  C4         2.8050  -30.2320   49.9720 C.3   3001  M2P3001     0.2174
      5  C3         4.2210  -29.7370   49.6670 C.3   3001  M2P3001     0.2174
      6  C2         4.5250  -29.8520   48.1720 C.3   3001  M2P3001     0.2147
      7  O12        8.1140  -32.4350   47.5370 O.3   3001  M2P3001    -0.1145
      8  P1         6.7340  -33.0720   48.0710 P.3   3001  M2P3001     0.5327
      9  O13        5.9510  -33.6140   46.7720 O.2   3001  M2P3001    -0.2224
     10  O11        6.9460  -34.1180   49.0960 O.3   3001  M2P3001    -0.1145
     11  O1         5.8480  -31.8440   48.6190 O.3   3001  M2P3001    -0.2674
     12  O2         3.4670  -30.5500   47.5070 O.3   3001  M2P3001    -0.2176
     13  O3         4.3360  -28.3640   50.0530 O.3   3001  M2P3001    -0.2175
     14  O4         1.8460  -29.3950   49.3190 O.3   3001  M2P3001    -0.2175
     15  O5         3.3980  -31.1450   52.1330 O.3   3001  M2P3001    -0.2176
     16  O6         0.7020  -30.5920   53.0750 O.3   3001  M2P3001    -0.2674
     17  P6        -0.7800  -31.0410   53.5080 P.3   3001  M2P3001     0.5327
     18  O62       -0.8750  -30.7350   55.0850 O.3   3001  M2P3001    -0.1145
     19  O63       -0.8430  -32.6390   53.3290 O.3   3001  M2P3001    -0.1145
     20  O61       -1.8200  -30.3380   52.7250 O.2   3001  M2P3001    -0.2224
@<TRIPOS>BOND
     1     9     8    2
     2    12     6    1
     3     7     8    1
     4     1     6    1
     5     1    11    1
     6     8    11    1
     7     8    10    1
     8     6     5    1
     9    14     4    1
    10     5     4    1
    11     5    13    1
    12     4     2    1
    13     2     3    1
    14     2    15    1
    15     3    16    1
    16    20    17    2
    17    16    17    1
    18    19    17    1
    19    17    18    1
