@<TRIPOS>MOLECULE
1zao_ATP_A_1.pdb
 31 33 0 0 0
SMALL
GASTEIGER

@<TRIPOS>ATOM
      1  PG        44.8220   17.6730   21.4280 P.3   286  ATP286      0.5373
      2  O1G       45.0750   16.1850   21.6360 O.3   286  ATP286     -0.1143
      3  O2G       43.3990   18.0490   21.8270 O.3   286  ATP286     -0.1143
      4  O3G       45.2280   18.1030   20.0650 O.2   286  ATP286     -0.2221
      5  PB        45.5880   19.8510   23.3200 P.3   286  ATP286      0.2277
      6  O1B       44.2640   19.8920   24.0240 O.2   286  ATP286     -0.5168
      7  O2B       46.8050   20.0850   24.1620 O.3   286  ATP286     -0.4368
      8  O3B       45.7880   18.4250   22.5190 O.3   286  ATP286     -0.2258
      9  PA        45.1930   22.4880   21.9670 P.3   286  ATP286      0.2189
     10  O1A       44.8490   22.6580   20.5100 O.2   286  ATP286     -0.5170
     11  O2A       44.1860   22.8770   23.0120 O.3   286  ATP286     -0.4371
     12  O3A       45.5690   20.9000   22.0600 O.3   286  ATP286     -0.2700
     13  O5'       46.5730   23.2510   22.2010 O.3   286  ATP286     -0.3112
     14  C5'       47.1690   23.3070   23.5010 C.3   286  ATP286      0.1813
     15  C4'       47.4740   24.7650   23.8070 C.3   286  ATP286      0.1821
     16  O4'       48.4460   25.2880   22.8970 O.3   286  ATP286     -0.3135
     17  C3'       46.2460   25.6320   23.6030 C.3   286  ATP286      0.2184
     18  O3'       45.3950   25.6870   24.7590 O.3   286  ATP286     -0.2174
     19  C2'       46.8130   26.9820   23.2130 C.3   286  ATP286      0.2570
     20  O2'       47.0720   27.7640   24.3900 O.3   286  ATP286     -0.2130
     21  C1'       48.1080   26.6230   22.4950 C.3   286  ATP286      0.3186
     22  N9        47.8080   26.6230   21.0280 N.pl3 286  ATP286     -0.1439
     23  C8        47.4040   25.5670   20.2800 C.3   286  ATP286      0.3377
     24  N7        47.1950   25.9350   18.9990 N.2   286  ATP286     -0.2095
     25  C5        47.4530   27.2640   18.9270 C.2   286  ATP286      0.2526
     26  C6        47.4670   28.2720   17.8520 C.2   286  ATP286      0.4393
     27  N6        47.0840   27.9320   16.5910 N.pl3 286  ATP286      0.2180
     28  N1        47.7990   29.5470   18.1990 N.2   286  ATP286      0.0021
     29  C2        48.1580   29.8860   19.4570 C.3   286  ATP286      0.5254
     30  N3        48.1960   29.0130   20.4830 N.2   286  ATP286     -0.0055
     31  C4        47.8680   27.7030   20.2610 C.2   286  ATP286      0.3518
@<TRIPOS>BOND
     1    27    26    1
     2    26    28    2
     3    26    25    1
     4    28    29    1
     5    25    24    2
     6    25    31    1
     7    24    23    1
     8    29    30    1
     9     4     1    2
    10    31    30    2
    11    31    22    1
    12    23    22    1
    13    10     9    2
    14    22    21    1
    15     1     2    1
    16     1     3    1
    17     1     8    1
    18     9    12    1
    19     9    13    1
    20     9    11    1
    21    12     5    1
    22    13    14    1
    23    21    16    1
    24    21    19    1
    25     8     5    1
    26    16    15    1
    27    19    17    1
    28    19    20    1
    29     5     6    2
    30     5     7    1
    31    14    15    1
    32    17    15    1
    33    17    18    1
