@<TRIPOS>MOLECULE
1zar_ADP_A_1.pdb
 27 29 0 0 0
SMALL
GASTEIGER

@<TRIPOS>ATOM
      1  PB        45.0320   47.1250   23.7020 P.3   401  ADP401      0.5373
      2  O1B       44.4130   48.0510   24.7220 O.3   401  ADP401     -0.1143
      3  O2B       46.3510   46.5490   24.0680 O.3   401  ADP401     -0.1143
      4  O3B       44.0540   46.0910   23.2350 O.2   401  ADP401     -0.2221
      5  PA        44.9720   49.4680   21.9430 P.3   401  ADP401      0.2231
      6  O1A       44.6940   49.4780   20.4640 O.2   401  ADP401     -0.5169
      7  O2A       43.9090   50.0350   22.8440 O.3   401  ADP401     -0.4370
      8  O3A       45.4010   47.9730   22.3480 O.3   401  ADP401     -0.2261
      9  O5'       46.3220   50.2820   22.1510 O.3   401  ADP401     -0.3111
     10  C5'       46.9550   50.3730   23.4340 C.3   401  ADP401      0.1813
     11  C4'       47.2400   51.8330   23.7230 C.3   401  ADP401      0.1821
     12  O4'       48.1960   52.3390   22.7690 O.3   401  ADP401     -0.3135
     13  C3'       46.0190   52.7130   23.5530 C.3   401  ADP401      0.2184
     14  O3'       45.1600   52.7920   24.7120 O.3   401  ADP401     -0.2174
     15  C2'       46.5710   54.0550   23.1490 C.3   401  ADP401      0.2570
     16  O2'       46.9440   54.8050   24.3190 O.3   401  ADP401     -0.2130
     17  C1'       47.8100   53.6540   22.3550 C.3   401  ADP401      0.3186
     18  N9        47.4860   53.6370   20.9040 N.pl3 401  ADP401     -0.1439
     19  C8        47.1040   52.5630   20.1760 C.3   401  ADP401      0.3377
     20  N7        46.8720   52.8940   18.8840 N.2   401  ADP401     -0.2095
     21  C5        47.1430   54.2110   18.7780 C.2   401  ADP401      0.2526
     22  C6        47.1210   55.1850   17.6850 C.2   401  ADP401      0.4393
     23  N6        46.7460   54.7970   16.4410 N.pl3 401  ADP401      0.2180
     24  N1        47.4660   56.4690   18.0010 N.2   401  ADP401      0.0021
     25  C2        47.8200   56.8580   19.2440 C.3   401  ADP401      0.5254
     26  N3        47.8580   56.0160   20.2940 N.2   401  ADP401     -0.0055
     27  C4        47.5340   54.7040   20.1040 C.2   401  ADP401      0.3518
@<TRIPOS>BOND
     1    23    22    1
     2    22    24    2
     3    22    21    1
     4    24    25    1
     5    21    20    2
     6    21    27    1
     7    20    19    1
     8    25    26    1
     9    27    26    2
    10    27    18    1
    11    19    18    1
    12     6     5    2
    13    18    17    1
    14     5     9    1
    15     5     8    1
    16     5     7    1
    17     9    10    1
    18     8     1    1
    19    17    12    1
    20    17    15    1
    21    12    11    1
    22    15    13    1
    23    15    16    1
    24     4     1    2
    25    10    11    1
    26    13    11    1
    27    13    14    1
    28     1     3    1
    29     1     2    1
