@<TRIPOS>MOLECULE
1zau_AMP_A_1.pdb
 22 24 0 0 0
SMALL
GASTEIGER

@<TRIPOS>ATOM
      1  P        -14.1860   43.3820   70.0760 P.3   400  AMP400      0.3942
      2  O1P      -13.8840   42.0100   69.2850 O.3   400  AMP400     -0.1425
      3  O3P      -14.8940   44.4150   69.3120 O.3   400  AMP400     -0.1425
      4  O5'      -12.8980   43.7540   70.5450 O.3   400  AMP400     -0.2926
      5  C5'      -11.8200   44.7160   70.6770 C.3   400  AMP400      0.1831
      6  C4'      -10.6450   44.1970   71.4490 C.3   400  AMP400      0.1822
      7  O4'      -10.1410   43.0670   70.6930 O.3   400  AMP400     -0.3135
      8  C3'       -9.4310   45.0890   71.5760 C.3   400  AMP400      0.2184
      9  O3'       -9.5900   45.8680   72.7870 O.3   400  AMP400     -0.2174
     10  C2'       -8.3000   44.0850   71.5680 C.3   400  AMP400      0.2570
     11  O2'       -7.9270   43.6290   72.8720 O.3   400  AMP400     -0.2130
     12  C1'       -8.7530   42.9290   70.7030 C.3   400  AMP400      0.3186
     13  N9        -8.1440   42.9020   69.2880 N.pl3 400  AMP400     -0.1439
     14  C8        -8.0500   41.7650   68.5590 C.3   400  AMP400      0.3377
     15  N7        -7.5020   41.9170   67.3590 N.2   400  AMP400     -0.2095
     16  C5        -7.2260   43.2250   67.3070 C.2   400  AMP400      0.2526
     17  C6        -6.6180   44.0440   66.2560 C.2   400  AMP400      0.4393
     18  N6        -6.2110   43.6060   65.1210 N.pl3 400  AMP400      0.2180
     19  N1        -6.4860   45.4140   66.5670 N.2   400  AMP400      0.0021
     20  C2        -6.9070   45.9780   67.7930 C.3   400  AMP400      0.5254
     21  N3        -7.4750   45.2180   68.7720 N.2   400  AMP400     -0.0055
     22  C4        -7.6160   43.8830   68.5000 C.2   400  AMP400      0.3518
@<TRIPOS>BOND
     1    18    17    1
     2    17    19    2
     3    17    16    1
     4    19    20    1
     5    16    15    2
     6    16    22    1
     7    15    14    1
     8    20    21    1
     9    22    21    2
    10    22    13    1
    11    14    13    1
    12     2     1    1
    13    13    12    1
    14     3     1    1
    15     1     4    1
    16     4     5    1
    17     5     6    1
    18     7    12    1
    19     7     6    1
    20    12    10    1
    21     6     8    1
    22    10     8    1
    23    10    11    1
    24     8     9    1
