@<TRIPOS>MOLECULE
1zay_HPA_A_1.pdb
 10 11 0 0 0
SMALL
GASTEIGER

@<TRIPOS>ATOM
      1  N1        57.1990    2.7240  -10.9460 N.2   599  HPA599     -0.1726
      2  C2        58.0790    2.8430   -9.8930 C.3   599  HPA599      0.2725
      3  N3        58.7280    3.9580   -9.5840 N.2   599  HPA599     -0.1902
      4  C4        58.4310    4.9650  -10.4390 C.1   599  HPA599      0.0598
      5  C5        57.5660    4.9470  -11.5120 C.2   599  HPA599      0.2226
      6  C6        56.8720    3.7530  -11.8260 C.1   599  HPA599      0.1796
      7  O6        56.0690    3.5510  -12.7460 O.2   599  HPA599     -0.2200
      8  N7        57.5270    6.1890  -12.1300 N.2   599  HPA599     -0.2230
      9  C8        58.3540    6.9210  -11.4330 C.3   599  HPA599      0.2622
     10  N9        58.9350    6.2470  -10.3860 N.2   599  HPA599     -0.1910
@<TRIPOS>BOND
     1     7     6    2
     2     8     5    2
     3     8     9    1
     4     6     5    1
     5     6     1    2
     6     5     4    1
     7     9    10    1
     8     1     2    1
     9     4    10    2
    10     4     3    2
    11     2     3    1
