@<TRIPOS>MOLECULE
1zb5_III_C_1.pdb
 36 40 0 0 0
SMALL
GASTEIGER

@<TRIPOS>ATOM
      1  N         -5.3920  -22.1090   42.7740 N.3     1  TRP1       -0.1228
      2  CA        -6.0670  -20.8030   42.9950 C.3     1  TRP1        0.1719
      3  C         -5.4200  -19.6570   42.2200 C.2     1  TRP1        0.2437
      4  O         -4.4450  -19.8570   41.4930 O.2     1  TRP1       -0.2733
      5  CB        -6.1050  -20.4710   44.5000 C.3     1  TRP1        0.0526
      6  CG        -4.7860  -20.4180   45.2430 C.2     1  TRP1       -0.0139
      7  CD1       -4.3010  -19.3620   45.9670 C.2     1  TRP1        0.0907
      8  CD2       -3.8390  -21.4850   45.4170 C.3     1  TRP1        0.0819
      9  NE1       -3.1200  -19.7080   46.5870 N.2     1  TRP1       -0.2482
     10  CE2       -2.8170  -21.0050   46.2710 C.2     1  TRP1        0.0665
     11  CE3       -3.7610  -22.8010   44.9500 C.2     1  TRP1       -0.0164
     12  CZ2       -1.7270  -21.7950   46.6510 C.2     1  TRP1        0.0153
     13  CZ3       -2.6780  -23.5850   45.3300 C.2     1  TRP1       -0.0038
     14  CH2       -1.6800  -23.0800   46.1770 C.2     1  TRP1        0.0009
     15  N         -5.9990  -18.4480   42.3220 N.am    2  PRO2       -0.2718
     16  CA        -5.4970  -17.2440   41.6540 C.3     2  PRO2        0.1535
     17  C         -4.1380  -16.8110   42.2120 C.2     2  PRO2        0.2599
     18  O         -3.1000  -17.3360   41.8080 O.2     2  PRO2       -0.2715
     19  CB        -6.5930  -16.2240   41.9360 C.3     2  PRO2        0.0310
     20  CG        -7.8180  -17.0590   41.8730 C.3     2  PRO2        0.0237
     21  CD        -7.4190  -18.2740   42.6790 C.3     2  PRO2        0.0939
     22  N         -4.1470  -15.8560   43.1410 N.am    3  TRP3       -0.1938
     23  CA        -2.9090  -15.3680   43.7430 C.3     3  TRP3        0.2021
     24  C         -3.1230  -14.6230   45.0640 C.2     3  TRP3        0.3845
     25  O         -2.2550  -14.7410   45.9570 O.co2   3  TRP3       -0.2437
     26  CB        -2.1360  -14.4850   42.7430 C.3     3  TRP3        0.0612
     27  CG        -2.8570  -13.2620   42.2050 C.2     3  TRP3        0.0004
     28  CD1       -3.2570  -12.1610   42.9120 C.2     3  TRP3        0.0946
     29  CD2       -3.1680  -12.9840   40.8300 C.2     3  TRP3        0.0113
     30  NE1       -3.7920  -11.2160   42.0640 N.2     3  TRP3       -0.2442
     31  CE2       -3.7570  -11.6980   40.7830 C.2     3  TRP3        0.0804
     32  CE3       -3.0180  -13.7020   39.6360 C.2     3  TRP3       -0.0202
     33  CZ2       -4.1760  -11.1080   39.5850 C.2     3  TRP3        0.0148
     34  CZ3       -3.4380  -13.1140   38.4440 C.3     3  TRP3        0.0521
     35  CH2       -4.0160  -11.8330   38.4320 C.2     3  TRP3       -0.0199
     36  OXT       -4.1490  -13.9220   45.1920 O.co2   3  TRP3       -0.2437
@<TRIPOS>BOND
     1    35    34    1
     2    35    33    2
     3    34    32    1
     4    33    31    1
     5    32    29    2
     6    31    29    1
     7    31    30    2
     8    29    27    1
     9     4     3    2
    10    16    19    1
    11    16    17    1
    12    16    15    1
    13    18    17    2
    14    20    19    1
    15    20    21    1
    16    30    28    1
    17    27    26    1
    18    27    28    2
    19    17    22   am
    20     3    15   am
    21     3     2    1
    22    15    21    1
    23    26    23    1
    24     1     2    1
    25     2     5    1
    26    22    23    1
    27    23    24    1
    28     5     6    1
    29    11    13    2
    30    11     8    1
    31    24    36   ar
    32    24    25   ar
    33     6     8    1
    34     6     7    2
    35    13    14    1
    36     8    10    1
    37     7     9    1
    38    14    12    2
    39    10     9    2
    40    10    12    1
