@<TRIPOS>MOLECULE
1zb6_DIN_A_1.pdb
 12 13 0 0 0
SMALL
GASTEIGER

@<TRIPOS>ATOM
      1  C1        26.1530   31.8810    8.7100 C.ar  401  DIN401      0.0063
      2  C2        24.9590   31.3900    9.3010 C.ar  401  DIN401      0.0421
      3  C3        25.0280   30.6270   10.4510 C.ar  401  DIN401      0.1957
      4  C4        26.2790   30.3240   11.0550 C.ar  401  DIN401      0.0421
      5  C5        27.4350   30.7960   10.4880 C.ar  401  DIN401      0.0065
      6  C6        28.5850   32.0990    8.6750 C.ar  401  DIN401      0.1956
      7  C7        27.2510   33.1380    6.9480 C.ar  401  DIN401      0.0033
      8  C8        26.0990   32.6630    7.5250 C.ar  401  DIN401      0.0003
      9  O1        29.8570   31.8800    9.1550 O.3   401  DIN401     -0.2866
     10  O2        23.8390   30.1790   10.9830 O.3   401  DIN401     -0.2866
     11  C9        28.5090   32.8610    7.5190 C.ar  401  DIN401      0.0420
     12  C10       27.4090   31.5840    9.3060 C.ar  401  DIN401      0.0392
@<TRIPOS>BOND
     1     7    11   ar
     2     7     8   ar
     3    11     6   ar
     4     8     1   ar
     5     6     9    1
     6     6    12   ar
     7     1     2   ar
     8     1    12   ar
     9     2     3   ar
    10    12     5   ar
    11     3    10    1
    12     3     4   ar
    13     5     4   ar
