@<TRIPOS>MOLECULE
1zb6_GST_A_1.pdb
 19 18 0 0 0
SMALL
GASTEIGER

@<TRIPOS>ATOM
      1  PA        19.5340   27.5340    3.6190 P.3   502  GST502      0.5394
      2  O1A       19.6090   28.2040    2.2880 O.2   502  GST502     -0.2220
      3  O2A       20.3620   26.2980    3.6740 O.3   502  GST502     -0.1143
      4  O3A       18.1210   27.2570    4.0020 O.3   502  GST502     -0.1143
      5  O1B       20.1240   28.5850    4.6790 O.3   502  GST502     -0.1955
      6  PB        20.5290   28.3660    6.1980 P.3   502  GST502      0.4270
      7  O2B       20.2250   29.5760    7.0300 O.3   502  GST502     -0.1310
      8  O3B       19.8160   27.2030    6.8210 O.2   502  GST502     -0.2431
      9  S1        22.1180   28.1060    6.3680 S.3   502  GST502     -0.0285
     10  C1        22.7850   28.2780    7.6110 C.3   502  GST502      0.0690
     11  C2        23.9480   27.3200    7.7440 C.3   502  GST502      0.0122
     12  C3        25.2370   27.6740    7.8990 C.3   502  GST502      0.0009
     13  C10       25.8620   28.8400    7.1720 C.3   502  GST502      0.0000
     14  C4        26.1650   26.8780    8.7940 C.3   502  GST502      0.0000
     15  C5        27.5590   27.5250    8.8680 C.3   502  GST502      0.0000
     16  C6        28.6440   26.5030    9.1030 C.3   502  GST502      0.0000
     17  C7        29.4140   26.3740   10.2000 C.3   502  GST502      0.0000
     18  C9        30.5050   27.3740   10.5070 C.3   502  GST502      0.0000
     19  C8        29.2960   25.2570   11.2110 C.3   502  GST502      0.0000
@<TRIPOS>BOND
     1     2     1    2
     2     1     3    1
     3     1     4    1
     4     1     5    1
     5     5     6    1
     6     6     9    1
     7     6     8    2
     8     6     7    1
     9     9    10    1
    10    13    12    1
    11    10    11    1
    12    11    12    1
    13    12    14    1
    14    14    15    1
    15    15    16    1
    16    16    17    1
    17    17    18    1
    18    17    19    1
