@<TRIPOS>MOLECULE
1zba_SGN_1_1.pdb
 20 20 0 0 0
SMALL
GASTEIGER

@<TRIPOS>ATOM
      1  C1        35.9380   19.3130  141.8290 C.3   503  SGN503      0.2895
      2  C2        36.3470   20.5300  142.6440 C.3   503  SGN503      0.1858
      3  C3        35.5130   20.6230  143.9080 C.3   503  SGN503      0.2073
      4  C4        34.0440   20.6450  143.5390 C.3   503  SGN503      0.2133
      5  C5        33.6830   19.4500  142.6690 C.3   503  SGN503      0.1826
      6  C6        32.2750   19.6740  142.1500 C.3   503  SGN503      0.2046
      7  N         37.7470   20.4380  142.9960 N.3   503  SGN503     -0.1129
      8  O1        36.2150   18.1200  142.5560 O.3   503  SGN503     -0.1882
      9  O3        35.8320   21.8000  144.6180 O.3   503  SGN503     -0.2186
     10  O4        33.2790   20.5950  144.7410 O.3   503  SGN503     -0.2176
     11  O5        34.5470   19.4040  141.5320 O.3   503  SGN503     -0.3245
     12  O6        32.1930   21.0490  141.7930 O.3   503  SGN503     -0.2384
     13  S1        38.8040   21.8040  142.6360 S.3   503  SGN503     -0.1288
     14  O1S       39.0180   21.8710  141.1750 O.3   503  SGN503     -0.2918
     15  O2S       40.1020   21.6210  143.3270 O.3   503  SGN503     -0.2918
     16  O3S       38.1610   23.0540  143.1000 O.3   503  SGN503     -0.2918
     17  S2        30.7840   21.6520  140.9330 S.3   503  SGN503     -0.0001
     18  O4S       29.7630   22.0750  141.9140 O.3   503  SGN503     -0.2682
     19  O5S       30.2330   20.5730  140.0960 O.2   503  SGN503     -0.3452
     20  O6S       31.1940   22.7940  140.0910 O.2   503  SGN503     -0.3452
@<TRIPOS>BOND
     1    20    17    2
     2    19    17    2
     3    17    12    1
     4    17    18    1
     5    14    13    1
     6    11     1    1
     7    11     5    1
     8    12     6    1
     9     1     8    1
    10     1     2    1
    11     6     5    1
    12    13     7    1
    13    13    16    1
    14    13    15    1
    15     2     7    1
    16     2     3    1
    17     5     4    1
    18     4     3    1
    19     4    10    1
    20     3     9    1
