@<TRIPOS>MOLECULE
1zbc_III_C_1.pdb
 36 40 0 0 0
SMALL
GASTEIGER

@<TRIPOS>ATOM
      1  N        -11.6910   -6.7810   35.7380 N.3     1  TRP1       -0.1228
      2  CA       -11.3780   -6.1590   34.4050 C.3     1  TRP1        0.1719
      3  C        -12.4700   -5.0190   33.8550 C.2     1  TRP1        0.2437
      4  O        -12.9480   -5.1970   32.7360 O.2     1  TRP1       -0.2733
      5  CB       -10.5550   -7.1690   33.4390 C.3     1  TRP1        0.0526
      6  CG       -10.8260   -8.5100   32.7090 C.2     1  TRP1       -0.0139
      7  CD1       -9.9660   -9.6070   32.7300 C.2     1  TRP1        0.0907
      8  CD2      -11.7370   -8.7790   31.6340 C.3     1  TRP1        0.0819
      9  NE1      -10.3730  -10.5630   31.8330 N.2     1  TRP1       -0.2482
     10  CE2      -11.4590  -10.0870   31.1510 C.2     1  TRP1        0.0665
     11  CE3      -12.8170   -8.0870   31.0820 C.2     1  TRP1       -0.0164
     12  CZ2      -12.2150  -10.6940   30.1530 C.2     1  TRP1        0.0153
     13  CZ3      -13.5640   -8.6940   30.0920 C.2     1  TRP1       -0.0038
     14  CH2      -13.2630   -9.9830   29.6390 C.2     1  TRP1        0.0009
     15  N        -13.0730   -4.1420   34.7240 N.am    2  PRO2       -0.2718
     16  CA       -13.8450   -2.8030   34.6370 C.3     2  PRO2        0.1535
     17  C        -13.7800   -1.1410   34.8280 C.2     2  PRO2        0.2599
     18  O        -14.4370   -0.6830   33.8890 O.2     2  PRO2       -0.2715
     19  CB       -15.0540   -3.1360   35.5370 C.3     2  PRO2        0.0310
     20  CG       -15.2380   -4.5520   35.3910 C.3     2  PRO2        0.0237
     21  CD       -13.8470   -5.0880   35.5420 C.3     2  PRO2        0.0939
     22  N        -13.0610   -0.3100   35.6350 N.am    3  TRP3       -0.1939
     23  CA       -13.5900    1.0280   36.1880 C.3     3  TRP3        0.2018
     24  C        -13.4120    2.4820   35.6800 C.2     3  TRP3        0.3845
     25  O        -12.3430    3.0930   35.6800 O.co2   3  TRP3       -0.2437
     26  CB       -13.1610    1.0340   37.6700 C.3     3  TRP3        0.0575
     27  CG       -11.7280    1.2600   38.1700 C.2     3  TRP3       -0.0136
     28  CD1      -11.3880    2.0960   39.1940 C.2     3  TRP3        0.0907
     29  CD2      -10.5020    0.5780   37.8020 C.3     3  TRP3        0.0819
     30  NE1      -10.0450    2.0180   39.4620 N.2     3  TRP3       -0.2482
     31  CE2       -9.4790    1.1010   38.6230 C.2     3  TRP3        0.0665
     32  CE3      -10.1570   -0.3980   36.8570 C.2     3  TRP3       -0.0164
     33  CZ2       -8.1700    0.6920   38.5300 C.2     3  TRP3        0.0153
     34  CZ3       -8.8430   -0.7920   36.7670 C.2     3  TRP3       -0.0038
     35  CH2       -7.8720   -0.2520   37.6000 C.2     3  TRP3        0.0009
     36  OXT      -14.3640    3.2090   35.3230 O.co2   3  TRP3       -0.2437
@<TRIPOS>BOND
     1    14    13    1
     2    14    12    2
     3    13    11    2
     4    12    10    1
     5    11     8    1
     6    10     8    1
     7    10     9    2
     8     8     6    1
     9     9     7    1
    10     6     7    2
    11     6     5    1
    12     4     3    2
    13     5     2    1
    14     3     2    1
    15     3    15   am
    16    18    17    2
    17     2     1    1
    18    16    15    1
    19    16    17    1
    20    16    19    1
    21    15    21    1
    22    17    22   am
    23    36    24   ar
    24    20    19    1
    25    20    21    1
    26    22    23    1
    27    24    25   ar
    28    24    23    1
    29    23    26    1
    30    34    32    2
    31    34    35    1
    32    32    29    1
    33    35    33    2
    34    26    27    1
    35    29    27    1
    36    29    31    1
    37    27    28    2
    38    33    31    1
    39    31    30    2
    40    28    30    1
