@<TRIPOS>MOLECULE
1zbd_GTP_A_1.pdb
 32 34 0 0 0
SMALL
GASTEIGER

@<TRIPOS>ATOM
      1  PG         9.3340   13.3850   10.1250 P.3   303  GTP303      0.5373
      2  O1G       10.3500   13.9510   11.0750 O.3   303  GTP303     -0.1143
      3  O2G        7.9650   13.0950   10.6680 O.3   303  GTP303     -0.1143
      4  O3G        9.8980   11.9800    9.6120 O.2   303  GTP303     -0.2221
      5  O3B        9.2820   14.3580    8.7520 O.3   303  GTP303     -0.2258
      6  PB        10.5840   15.0980    8.1130 P.3   303  GTP303      0.2277
      7  O1B       11.0110   16.0420    9.1460 O.3   303  GTP303     -0.4368
      8  O2B       11.6200   14.1320    7.7210 O.2   303  GTP303     -0.5168
      9  O3A       10.1330   15.9450    6.7900 O.3   303  GTP303     -0.2700
     10  PA         9.7140   15.4000    5.2460 P.3   303  GTP303      0.2189
     11  O1A       10.9400   15.3490    4.3840 O.2   303  GTP303     -0.5170
     12  O2A        8.7290   14.2890    5.2540 O.3   303  GTP303     -0.4371
     13  O5'        8.8680   16.5780    4.5760 O.3   303  GTP303     -0.3112
     14  C5'        7.6640   17.1200    5.1250 C.3   303  GTP303      0.1813
     15  C4'        7.0900   18.1950    4.1950 C.3   303  GTP303      0.1799
     16  O4'        7.9580   19.3240    3.7840 O.3   303  GTP303     -0.3326
     17  C3'        6.6870   17.4600    2.9130 C.3   303  GTP303      0.2158
     18  O3'        5.3090   17.7600    2.6510 O.3   303  GTP303     -0.2175
     19  C2'        7.7060   17.9020    1.8430 C.3   303  GTP303      0.2310
     20  O2'        7.2200   17.8500    0.4490 O.3   303  GTP303     -0.2158
     21  C1'        8.0440   19.3240    2.3460 C.3   303  GTP303      0.2293
     22  N9         9.4020   19.7680    2.0920 N.pl3 303  GTP303     -0.2354
     23  C8        10.5870   19.1770    2.3690 C.3   303  GTP303      0.2246
     24  N7        11.6720   19.8240    2.0160 N.2   303  GTP303     -0.2322
     25  C5        11.1450   20.9680    1.4430 C.2   303  GTP303      0.2182
     26  C6        11.7870   22.1130    0.8470 C.1   303  GTP303      0.2372
     27  O6        12.9650   22.3450    0.7070 O.2   303  GTP303     -0.2069
     28  N1        10.8880   23.0720    0.3750 N.2   303  GTP303     -0.2485
     29  C2         9.4900   22.9610    0.4540 C.1   303  GTP303      0.2531
     30  N2         8.7380   23.9510   -0.0650 N.pl3 303  GTP303     -0.0226
     31  N3         8.8870   21.8810    1.0210 N.2   303  GTP303     -0.3074
     32  C4         9.7590   20.9300    1.4900 C.2   303  GTP303      0.2300
@<TRIPOS>BOND
     1    30    29    1
     2    28    29    2
     3    28    26    2
     4    20    19    1
     5    29    31    2
     6    27    26    2
     7    26    25    1
     8    31    32    2
     9    25    32    1
    10    25    24    2
    11    32    22    1
    12    19    21    1
    13    19    17    1
    14    24    23    1
    15    22    21    1
    16    22    23    1
    17    21    16    1
    18    18    17    1
    19    17    15    1
    20    16    15    1
    21    15    14    1
    22    11    10    2
    23    13    14    1
    24    13    10    1
    25    10    12    1
    26    10     9    1
    27     9     6    1
    28     8     6    2
    29     6     5    1
    30     6     7    1
    31     5     1    1
    32     4     1    2
    33     1     3    1
    34     1     2    1
