@<TRIPOS>MOLECULE
1zbh_AMP_A_1.pdb
 23 25 0 0 0
SMALL
GASTEIGER

@<TRIPOS>ATOM
      1  P         14.0530   39.4620   35.8860 P.3   1002  AMP1002     0.5327
      2  O1P       13.4590   38.3440   35.0560 O.2   1002  AMP1002    -0.2224
      3  O2P       15.5000   39.7780   35.5740 O.3   1002  AMP1002    -0.1145
      4  O3P       13.7290   39.3700   37.3550 O.3   1002  AMP1002    -0.1145
      5  O5'       13.2650   40.7850   35.4140 O.3   1002  AMP1002    -0.2675
      6  C5'       13.2390   41.1170   34.0310 C.3   1002  AMP1002     0.1860
      7  C4'       12.5270   42.4340   33.7710 C.3   1002  AMP1002     0.1823
      8  O4'       11.9120   42.9760   34.9450 O.3   1002  AMP1002    -0.3135
      9  C3'       13.5020   43.4850   33.2720 C.3   1002  AMP1002     0.2184
     10  O3'       13.6210   43.4530   31.8500 O.3   1002  AMP1002    -0.2174
     11  C2'       12.8910   44.7850   33.7440 C.3   1002  AMP1002     0.2570
     12  O2'       12.0210   45.3220   32.7440 O.3   1002  AMP1002    -0.2130
     13  C1'       12.0950   44.3980   34.9800 C.3   1002  AMP1002     0.3186
     14  N9        12.8870   44.7860   36.1730 N.pl3 1002  AMP1002    -0.1439
     15  C8        13.6380   43.9520   36.9200 C.3   1002  AMP1002     0.3377
     16  N7        14.2450   44.6080   37.9400 N.2   1002  AMP1002    -0.2095
     17  C5        13.8790   45.8980   37.8510 C.2   1002  AMP1002     0.2526
     18  C6        14.1610   47.1340   38.6150 C.2   1002  AMP1002     0.4393
     19  N6        14.9740   47.0900   39.6950 N.pl3 1002  AMP1002     0.2180
     20  N1        13.5840   48.2890   38.1950 N.2   1002  AMP1002     0.0021
     21  C2        12.7740   48.3290   37.1150 C.3   1002  AMP1002     0.5254
     22  N3        12.4750   47.2410   36.3720 N.2   1002  AMP1002    -0.0055
     23  C4        12.9870   46.0180   36.6840 C.2   1002  AMP1002     0.3518
@<TRIPOS>BOND
     1    10     9    1
     2    12    11    1
     3     9    11    1
     4     9     7    1
     5    11    13    1
     6     7     6    1
     7     7     8    1
     8     6     5    1
     9     8    13    1
    10    13    14    1
    11     2     1    2
    12     5     1    1
    13     3     1    1
    14     1     4    1
    15    14    23    1
    16    14    15    1
    17    22    23    2
    18    22    21    1
    19    23    17    1
    20    15    16    1
    21    21    20    1
    22    17    16    2
    23    17    18    1
    24    20    18    2
    25    18    19    1
