@<TRIPOS>MOLECULE
1zbk_III_C_1.pdb
 36 40 0 0 0
SMALL
GASTEIGER

@<TRIPOS>ATOM
      1  N          2.6090   -8.3590   30.1530 N.3     1  TRP1       -0.1228
      2  CA         2.9970   -9.0940   31.3830 C.3     1  TRP1        0.1719
      3  C          1.8030   -9.3150   32.3460 C.2     1  TRP1        0.2437
      4  O          0.6710   -9.4610   31.8730 O.2     1  TRP1       -0.2733
      5  CB         4.2110   -8.4020   32.0570 C.3     1  TRP1        0.0526
      6  CG         4.5880   -6.9600   31.6710 C.2     1  TRP1       -0.0139
      7  CD1        5.8210   -6.3790   31.8360 C.2     1  TRP1        0.0907
      8  CD2        3.7390   -5.9290   31.1460 C.3     1  TRP1        0.0819
      9  NE1        5.7920   -5.0660   31.4420 N.2     1  TRP1       -0.2482
     10  CE2        4.5220   -4.7620   30.9980 C.2     1  TRP1        0.0665
     11  CE3        2.3920   -5.8750   30.7530 C.2     1  TRP1       -0.0164
     12  CZ2        4.0120   -3.5630   30.5180 C.2     1  TRP1        0.0153
     13  CZ3        1.8810   -4.6810   30.2690 C.2     1  TRP1       -0.0038
     14  CH2        2.6950   -3.5450   30.1420 C.2     1  TRP1        0.0009
     15  N          2.0250   -9.3610   33.6860 N.am    2  PRO2       -0.2718
     16  CA         0.9130   -9.5790   34.6210 C.3     2  PRO2        0.1535
     17  C         -0.4950   -9.0780   34.2880 C.2     2  PRO2        0.2599
     18  O         -0.7320   -7.8750   34.1410 O.2     2  PRO2       -0.2715
     19  CB         1.4460   -8.9750   35.9150 C.3     2  PRO2        0.0310
     20  CG         2.8380   -9.4500   35.8980 C.3     2  PRO2        0.0237
     21  CD         3.2730   -9.1760   34.4590 C.3     2  PRO2        0.0939
     22  N         -1.4220  -10.0280   34.1800 N.am    3  TRP3       -0.1939
     23  CA        -2.8280   -9.7410   33.9070 C.3     3  TRP3        0.2018
     24  C         -3.6400  -10.9130   34.4700 C.2     3  TRP3        0.3845
     25  O         -3.6030  -11.1100   35.7030 O.co2   3  TRP3       -0.2437
     26  CB        -3.0900   -9.6100   32.4020 C.3     3  TRP3        0.0575
     27  CG        -4.3380   -8.8220   32.0790 C.2     3  TRP3       -0.0136
     28  CD1       -4.4050   -7.4960   31.7550 C.2     3  TRP3        0.0907
     29  CD2       -5.6970   -9.2970   32.1000 C.3     3  TRP3        0.0819
     30  NE1       -5.7130   -7.1150   31.5750 N.2     3  TRP3       -0.2482
     31  CE2       -6.5280   -8.1980   31.7820 C.2     3  TRP3        0.0665
     32  CE3       -6.2930  -10.5410   32.3600 C.2     3  TRP3       -0.0164
     33  CZ2       -7.9250   -8.3050   31.7130 C.2     3  TRP3        0.0153
     34  CZ3       -7.6840  -10.6490   32.2930 C.2     3  TRP3       -0.0038
     35  CH2       -8.4820   -9.5350   31.9720 C.2     3  TRP3        0.0009
     36  OXT       -4.2860  -11.6390   33.6820 O.co2   3  TRP3       -0.2437
@<TRIPOS>BOND
     1    14    13    1
     2    14    12    2
     3     1     2    1
     4    13    11    2
     5    12    10    1
     6    11     8    1
     7    10     8    1
     8    10     9    2
     9     8     6    1
    10     2     5    1
    11     2     3    1
    12     9     7    1
    13    30    28    1
    14    30    31    2
    15     6     7    2
    16     6     5    1
    17    33    31    1
    18    33    35    2
    19    28    27    2
    20    31    29    1
    21     4     3    2
    22    35    34    1
    23    27    29    1
    24    27    26    1
    25    29    32    1
    26    34    32    2
    27     3    15   am
    28    26    23    1
    29    36    24   ar
    30    15    21    1
    31    15    16    1
    32    23    22    1
    33    23    24    1
    34    18    17    2
    35    22    17   am
    36    17    16    1
    37    21    20    1
    38    24    25   ar
    39    16    19    1
    40    20    19    1
