@<TRIPOS>MOLECULE
1zbq_NAD_A_1.pdb
 44 48 0 0 0
SMALL
GASTEIGER

@<TRIPOS>ATOM
      1  PA        38.1080   19.3400  -49.9840 P.3   1001  NAD1001     0.2189
      2  O1A       38.4770   20.7530  -49.6860 O.3   1001  NAD1001    -0.4371
      3  O2A       39.1910   18.5310  -50.5510 O.2   1001  NAD1001    -0.5170
      4  O5B       36.8660   19.4450  -51.0320 O.3   1001  NAD1001    -0.3112
      5  C5B       35.7850   20.2760  -50.7170 C.3   1001  NAD1001     0.1813
      6  C4B       35.1850   20.7620  -51.9980 C.3   1001  NAD1001     0.1821
      7  O4B       34.0180   21.5050  -51.6920 O.3   1001  NAD1001    -0.3135
      8  C3B       36.1470   21.6940  -52.7210 C.3   1001  NAD1001     0.2184
      9  O3B       36.2610   21.2410  -54.0520 O.3   1001  NAD1001    -0.2174
     10  C2B       35.4640   23.0480  -52.6730 C.3   1001  NAD1001     0.2570
     11  O2B       35.5960   23.7830  -53.8730 O.3   1001  NAD1001    -0.2130
     12  C1B       34.0040   22.6720  -52.4610 C.3   1001  NAD1001     0.3186
     13  N9A       33.2430   23.7820  -51.9040 N.pl3 1001  NAD1001    -0.1439
     14  C8A       33.5140   24.6070  -50.8420 C.3   1001  NAD1001     0.3377
     15  N7A       32.5070   25.5180  -50.7750 N.2   1001  NAD1001    -0.2095
     16  C5A       31.6120   25.2790  -51.7670 C.2   1001  NAD1001     0.2526
     17  C6A       30.4060   25.8820  -52.1340 C.2   1001  NAD1001     0.4393
     18  N6A       29.9270   26.9250  -51.4590 N.pl3 1001  NAD1001     0.2180
     19  N1A       29.6990   25.3850  -53.1980 N.2   1001  NAD1001     0.0021
     20  C2A       30.1900   24.2960  -53.9110 C.3   1001  NAD1001     0.5254
     21  N3A       31.3960   23.7060  -53.5300 N.2   1001  NAD1001    -0.0055
     22  C4A       32.0750   24.1880  -52.4780 C.2   1001  NAD1001     0.3518
     23  O3        37.5220   18.6670  -48.6330 O.3   1001  NAD1001    -0.2703
     24  PN        37.2630   17.0940  -48.3730 P.3   1001  NAD1001     0.2189
     25  O1N       38.2450   16.5290  -47.4220 O.3   1001  NAD1001    -0.4371
     26  O2N       37.0170   16.3490  -49.6290 O.2   1001  NAD1001    -0.5170
     27  O5D       35.8790   17.2560  -47.5800 O.3   1001  NAD1001    -0.3112
     28  C5D       34.6090   17.2150  -48.2340 C.3   1001  NAD1001     0.1813
     29  C4D       33.5020   17.1360  -47.1700 C.3   1001  NAD1001     0.1799
     30  O4D       33.8300   16.1920  -46.1520 O.3   1001  NAD1001    -0.3327
     31  C3D       33.4110   18.4830  -46.4540 C.3   1001  NAD1001     0.2158
     32  O3D       32.0900   18.7430  -46.0880 O.3   1001  NAD1001    -0.2175
     33  C2D       34.2310   18.2430  -45.2030 C.3   1001  NAD1001     0.2309
     34  O2D       33.8970   19.2030  -44.2410 O.3   1001  NAD1001    -0.2158
     35  C1D       33.8660   16.8040  -44.8840 C.3   1001  NAD1001     0.2263
     36  N1N       34.7760   16.0640  -43.9890 N.pl3 1001  NAD1001    -0.2787
     37  C2N       36.0150   15.6330  -44.3950 C.3   1001  NAD1001     0.1244
     38  C3N       36.8190   14.9250  -43.4920 C.2   1001  NAD1001     0.0544
     39  C7N       38.1670   14.4120  -43.8910 C.2   1001  NAD1001     0.2818
     40  O7N       38.8600   13.5840  -42.9880 O.2   1001  NAD1001    -0.2670
     41  N7N       38.6390   14.6840  -45.0960 N.am  1001  NAD1001    -0.0839
     42  C4N       36.3590   14.6540  -42.1990 C.2   1001  NAD1001     0.0033
     43  C5N       35.0920   15.0980  -41.8050 C.2   1001  NAD1001     0.0157
     44  C6N       34.3200   15.7930  -42.7150 C.2   1001  NAD1001     0.0633
@<TRIPOS>BOND
     1     9     8    1
     2    20    21    1
     3    20    19    1
     4    11    10    1
     5    21    22    2
     6    19    17    2
     7     8    10    1
     8     8     6    1
     9    10    12    1
    10    22    13    1
    11    22    16    1
    12    12    13    1
    13    12     7    1
    14    17    16    1
    15    17    18    1
    16     6     7    1
    17     6     5    1
    18    13    14    1
    19    16    15    2
    20     4     5    1
    21     4     1    1
    22    14    15    1
    23     3     1    2
    24     1     2    1
    25     1    23    1
    26    26    24    2
    27    23    24    1
    28    24    27    1
    29    24    25    1
    30    28    27    1
    31    28    29    1
    32    29    31    1
    33    29    30    1
    34    31    32    1
    35    31    33    1
    36    30    35    1
    37    33    35    1
    38    33    34    1
    39    41    39   am
    40    35    36    1
    41    37    36    1
    42    37    38    1
    43    36    44    1
    44    39    38    1
    45    39    40    2
    46    38    42    2
    47    44    43    2
    48    42    43    1
