@<TRIPOS>MOLECULE
1zbu_AMP_A_1.pdb
 23 25 0 0 0
SMALL
GASTEIGER

@<TRIPOS>ATOM
      1  P        104.0350  -63.0610  -72.6040 P.3   1002  AMP1002     0.5327
      2  O1P      102.7080  -63.3020  -73.3060 O.2   1002  AMP1002    -0.2224
      3  O2P      104.1530  -63.6810  -71.2220 O.3   1002  AMP1002    -0.1145
      4  O3P      104.5210  -61.6260  -72.6540 O.3   1002  AMP1002    -0.1145
      5  O5'      105.1050  -63.8370  -73.5470 O.3   1002  AMP1002    -0.2675
      6  C5'      105.2160  -65.2600  -73.5830 C.3   1002  AMP1002     0.1860
      7  C4'      106.6860  -65.6580  -73.6660 C.3   1002  AMP1002     0.1823
      8  O4'      107.4470  -64.7230  -74.4380 O.3   1002  AMP1002    -0.3135
      9  C3'      107.3910  -65.7150  -72.3210 C.3   1002  AMP1002     0.2184
     10  O3'      107.1820  -66.9640  -71.6720 O.3   1002  AMP1002    -0.2174
     11  C2'      108.8390  -65.5180  -72.7080 C.3   1002  AMP1002     0.2570
     12  O2'      109.4420  -66.7430  -73.1090 O.3   1002  AMP1002    -0.2130
     13  C1'      108.7710  -64.5990  -73.9110 C.3   1002  AMP1002     0.3186
     14  N9       109.0200  -63.2460  -73.3560 N.pl3 1002  AMP1002    -0.1439
     15  C8       108.0940  -62.3460  -72.9460 C.3   1002  AMP1002     0.3377
     16  N7       108.6760  -61.2200  -72.4630 N.2   1002  AMP1002    -0.2095
     17  C5       110.0090  -61.4000  -72.5490 C.2   1002  AMP1002     0.2526
     18  C6       111.2170  -60.6110  -72.2060 C.2   1002  AMP1002     0.4393
     19  N6       111.0980  -59.3780  -71.6670 N.pl3 1002  AMP1002     0.2180
     20  N1       112.4320  -61.1610  -72.4570 N.2   1002  AMP1002     0.0021
     21  C2       112.5630  -62.4020  -72.9990 C.3   1002  AMP1002     0.5254
     22  N3       111.5110  -63.1860  -73.3310 N.2   1002  AMP1002    -0.0055
     23  C4       110.2350  -62.7390  -73.1340 C.2   1002  AMP1002     0.3518
@<TRIPOS>BOND
     1     8    13    1
     2     8     7    1
     3    13    14    1
     4    13    11    1
     5     7     6    1
     6     7     9    1
     7     6     5    1
     8     5     1    1
     9    14    23    1
    10    14    15    1
    11    22    23    2
    12    22    21    1
    13     2     1    2
    14    23    17    1
    15    12    11    1
    16    21    20    1
    17    15    16    1
    18    11     9    1
    19     4     1    1
    20     1     3    1
    21    17    16    2
    22    17    18    1
    23    20    18    2
    24     9    10    1
    25    18    19    1
