@<TRIPOS>MOLECULE
1zbv_III_B_1.pdb
 36 40 0 0 0
SMALL
GASTEIGER

@<TRIPOS>ATOM
      1  N          2.6600   -7.4960   31.7040 N.3     1  TRP1       -0.1228
      2  CA         1.8030   -6.6530   32.5960 C.3     1  TRP1        0.1719
      3  C          2.5160   -6.0970   33.8680 C.2     1  TRP1        0.2437
      4  O          1.8990   -5.3670   34.6500 O.2     1  TRP1       -0.2733
      5  CB         0.5480   -7.4480   32.9890 C.3     1  TRP1        0.0526
      6  CG         0.8510   -8.6490   33.8230 C.2     1  TRP1       -0.0139
      7  CD1        2.0380   -9.3250   33.8840 C.2     1  TRP1        0.0907
      8  CD2       -0.0380   -9.3200   34.7230 C.3     1  TRP1        0.0819
      9  NE1        1.9460  -10.3710   34.7690 N.2     1  TRP1       -0.2482
     10  CE2        0.6820  -10.4010   35.2940 C.2     1  TRP1        0.0665
     11  CE3       -1.3740   -9.1230   35.1010 C.2     1  TRP1       -0.0164
     12  CZ2        0.1100  -11.2800   36.2290 C.2     1  TRP1        0.0153
     13  CZ3       -1.9450  -10.0070   36.0340 C.2     1  TRP1       -0.0038
     14  CH2       -1.1980  -11.0690   36.5820 C.2     1  TRP1        0.0009
     15  N          3.7910   -6.4570   34.0920 N.am    2  PRO2       -0.2718
     16  CA         4.5690   -6.0040   35.2530 C.3     2  PRO2        0.1535
     17  C          4.5690   -4.6110   35.8290 C.2     2  PRO2        0.2599
     18  O          3.9100   -3.6680   35.3830 O.2     2  PRO2       -0.2715
     19  CB         5.9780   -6.4390   34.8930 C.3     2  PRO2        0.0310
     20  CG         5.7340   -7.7720   34.3660 C.3     2  PRO2        0.0237
     21  CD         4.5220   -7.5540   33.4300 C.3     2  PRO2        0.0939
     22  N          5.3520   -4.5660   36.9040 N.am    3  TRP3       -0.1939
     23  CA         5.5880   -3.4230   37.7550 C.3     3  TRP3        0.2018
     24  C          6.0200   -4.1060   39.0510 C.2     3  TRP3        0.3845
     25  O          6.0570   -5.3530   39.0320 O.co2   3  TRP3       -0.2437
     26  CB         4.3150   -2.6060   37.9400 C.3     3  TRP3        0.0575
     27  CG         3.7290   -2.5310   39.3180 C.2     3  TRP3       -0.0136
     28  CD1        4.1730   -1.7820   40.3770 C.2     3  TRP3        0.0907
     29  CD2        2.5220   -3.1600   39.7520 C.3     3  TRP3        0.0819
     30  NE1        3.3230   -1.9260   41.4490 N.2     3  TRP3       -0.2482
     31  CE2        2.2960   -2.7640   41.0920 C.2     3  TRP3        0.0665
     32  CE3        1.6030   -4.0350   39.1430 C.2     3  TRP3       -0.0164
     33  CZ2        1.1760   -3.1960   41.8240 C.2     3  TRP3        0.0153
     34  CZ3        0.5000   -4.4670   39.8730 C.2     3  TRP3       -0.0038
     35  CH2        0.3020   -4.0520   41.2010 C.2     3  TRP3        0.0009
     36  OXT        6.3220   -3.4280   40.0530 O.co2   3  TRP3       -0.2437
@<TRIPOS>BOND
     1     1     2    1
     2     2     5    1
     3     2     3    1
     4     5     6    1
     5    21    15    1
     6    21    20    1
     7     6     7    2
     8     6     8    1
     9     3    15   am
    10     3     4    2
    11     7     9    1
    12    15    16    1
    13    20    19    1
    14     8    11    1
    15     8    10    1
    16     9    10    2
    17    19    16    1
    18    11    13    2
    19    16    17    1
    20    10    12    1
    21    18    17    2
    22    17    22   am
    23    13    14    1
    24    12    14    2
    25    22    23    1
    26    23    26    1
    27    23    24    1
    28    26    27    1
    29    25    24   ar
    30    24    36   ar
    31    32    29    1
    32    32    34    2
    33    27    29    1
    34    27    28    2
    35    29    31    1
    36    34    35    1
    37    28    30    1
    38    31    30    2
    39    31    33    1
    40    35    33    2
