@<TRIPOS>MOLECULE
1zbw_III_D_1.pdb
 36 40 0 0 0
SMALL
GASTEIGER

@<TRIPOS>ATOM
      1  N         12.7550  -14.9450   36.8630 N.3     1  TRP1       -0.1228
      2  CA        12.4180  -13.9080   35.8200 C.3     1  TRP1        0.1719
      3  C         11.6800  -12.6830   36.4440 C.2     1  TRP1        0.2437
      4  O         10.4700  -12.8070   36.8550 O.2     1  TRP1       -0.2733
      5  CB        11.5850  -14.5730   34.7160 C.3     1  TRP1        0.0526
      6  CG        12.4080  -15.6300   33.9200 C.2     1  TRP1       -0.0139
      7  CD1       12.0090  -16.3310   32.7830 C.2     1  TRP1        0.0907
      8  CD2       13.7660  -16.0440   34.1870 C.3     1  TRP1        0.0819
      9  NE1       13.0390  -17.1400   32.3460 N.2     1  TRP1       -0.2482
     10  CE2       14.1290  -16.9780   33.1880 C.2     1  TRP1        0.0665
     11  CE3       14.7290  -15.6830   35.1530 C.2     1  TRP1       -0.0164
     12  CZ2       15.4200  -17.5880   33.1450 C.2     1  TRP1        0.0153
     13  CZ3       16.0080  -16.2940   35.1140 C.2     1  TRP1       -0.0038
     14  CH2       16.3360  -17.2280   34.1070 C.2     1  TRP1        0.0009
     15  N         12.3780  -11.6270   36.2890 N.am    2  PRO2       -0.2718
     16  CA        11.9740  -10.2400   36.6920 C.3     2  PRO2        0.1535
     17  C         10.6830   -9.6030   36.1920 C.2     2  PRO2        0.2599
     18  O          9.6050  -10.1770   36.1470 O.2     2  PRO2       -0.2715
     19  CB        13.2000   -9.4670   36.2960 C.3     2  PRO2        0.0310
     20  CG        14.3070  -10.4640   36.6470 C.3     2  PRO2        0.0237
     21  CD        13.7870  -11.8600   36.5620 C.3     2  PRO2        0.0939
     22  N         10.9480   -8.3310   35.8270 N.am    3  TRP3       -0.1939
     23  CA        10.0480   -7.4680   34.9840 C.3     3  TRP3        0.2018
     24  C          8.6150   -7.8940   34.4910 C.2     3  TRP3        0.3845
     25  O          7.7880   -6.9070   34.1760 O.co2   3  TRP3       -0.2437
     26  CB        10.8560   -6.9060   33.7560 C.3     3  TRP3        0.0575
     27  CG        11.9680   -5.9410   34.2010 C.2     3  TRP3       -0.0136
     28  CD1       12.0350   -5.2420   35.4110 C.2     3  TRP3        0.0907
     29  CD2       13.1490   -5.5720   33.4520 C.3     3  TRP3        0.0819
     30  NE1       13.1770   -4.4640   35.4410 N.2     3  TRP3       -0.2482
     31  CE2       13.8890   -4.6360   34.2730 C.2     3  TRP3        0.0665
     32  CE3       13.6390   -5.9080   32.1640 C.2     3  TRP3       -0.0164
     33  CZ2       15.1060   -4.0310   33.8660 C.2     3  TRP3        0.0153
     34  CZ3       14.8550   -5.3390   31.7390 C.2     3  TRP3       -0.0038
     35  CH2       15.5860   -4.3850   32.6010 C.2     3  TRP3        0.0009
     36  OXT        8.2750   -9.1180   34.3690 O.co2   3  TRP3       -0.2437
@<TRIPOS>BOND
     1    34    32    2
     2    34    35    1
     3    32    29    1
     4     9     7    1
     5     9    10    2
     6    35    33    2
     7     7     6    2
     8    12    10    1
     9    12    14    2
    10    10     8    1
    11    29    27    1
    12    29    31    1
    13    26    27    1
    14    26    23    1
    15    33    31    1
    16     6     8    1
    17     6     5    1
    18    14    13    1
    19    25    24   ar
    20     8    11    1
    21    27    28    2
    22    31    30    2
    23    36    24   ar
    24    24    23    1
    25     5     2    1
    26    23    22    1
    27    13    11    2
    28    28    30    1
    29     2     3    1
    30     2     1    1
    31    22    17   am
    32    18    17    2
    33    17    16    1
    34    15     3   am
    35    15    21    1
    36    15    16    1
    37    19    20    1
    38    19    16    1
    39     3     4    2
    40    21    20    1
