@<TRIPOS>MOLECULE
1zby_HEM_A_1.pdb
 43 50 0 0 0
SMALL
GASTEIGER

@<TRIPOS>ATOM
      1 FE         28.0530   91.7420   52.0810 Fe    296  HEM296      0.0000
      2  CHA       27.6710   93.9980   49.4980 C.2   296  HEM296      0.0000
      3  CHB       30.4080   93.8600   53.5090 C.2   296  HEM296      0.0000
      4  CHC       28.2210   89.7230   54.8180 C.2   296  HEM296      0.0000
      5  CHD       25.3050   90.0190   50.9880 C.2   296  HEM296      0.0000
      6  NA        28.8230   93.6040   51.6440 N.2   296  HEM296      0.0000
      7  C1A       28.5680   94.3470   50.4900 C.2   296  HEM296      0.0000
      8  C2A       29.4100   95.4940   50.4680 C.2   296  HEM296      0.0000
      9  C3A       30.1870   95.4630   51.6060 C.2   296  HEM296      0.0000
     10  C4A       29.8190   94.2780   52.3120 C.2   296  HEM296      0.0000
     11  CMA       31.2330   96.4530   52.0190 C.3   296  HEM296      0.0000
     12  CAA       29.3800   96.5250   49.3500 C.3   296  HEM296      0.0000
     13  CBA       28.1950   97.4780   49.5140 C.3   296  HEM296      0.0000
     14  CGA       28.2920   98.4770   48.3990 C.2   296  HEM296      0.0000
     15  O1A       29.3320   99.1370   48.1820 O.co2 296  HEM296      0.0000
     16  O2A       27.2630   98.6500   47.6690 O.co2 296  HEM296      0.0000
     17  NB        29.1210   91.8020   53.8320 N.ar  296  HEM296      0.0000
     18  C1B       30.1210   92.6810   54.2160 C.ar  296  HEM296      0.0000
     19  C2B       30.7880   92.2210   55.3930 C.ar  296  HEM296      0.0000
     20  C3B       30.2000   91.0500   55.7370 C.ar  296  HEM296      0.0000
     21  C4B       29.1180   90.7770   54.7840 C.ar  296  HEM296      0.0000
     22  CMB       31.8910   93.0000   56.0650 C.3   296  HEM296      0.0000
     23  CAB       30.4870   90.1540   56.8390 C.3   296  HEM296      0.0000
     24  CBB       31.7700   90.0780   57.4940 C.3   296  HEM296      0.0000
     25  NC        26.9490   90.2440   52.8140 N.2   296  HEM296      0.0000
     26  C1C       27.1670   89.4800   53.9460 C.2   296  HEM296      0.0000
     27  C2C       26.1610   88.4720   54.1310 C.2   296  HEM296      0.0000
     28  C3C       25.3240   88.5790   53.0410 C.2   296  HEM296      0.0000
     29  C4C       25.8250   89.6470   52.2290 C.2   296  HEM296      0.0000
     30  CMC       26.1000   87.5920   55.3340 C.3   296  HEM296      0.0000
     31  CAC       24.0670   87.8610   52.7810 C.2   296  HEM296      0.0000
     32  CBC       23.8570   86.5470   53.0940 C.2   296  HEM296      0.0000
     33  ND        26.6850   92.0270   50.5930 N.ar  296  HEM296      0.0000
     34  C1D       25.7610   91.0520   50.1700 C.ar  296  HEM296      0.0000
     35  C2D       25.3400   91.3100   48.8100 C.ar  296  HEM296      0.0000
     36  C3D       26.0070   92.4250   48.3950 C.ar  296  HEM296      0.0000
     37  C4D       26.8250   92.8630   49.4860 C.ar  296  HEM296      0.0000
     38  CMD       24.3900   90.4290   48.0490 C.3   296  HEM296      0.0000
     39  CAD       25.9390   93.0820   47.0320 C.3   296  HEM296      0.0000
     40  CBD       24.9940   94.2940   47.0360 C.3   296  HEM296      0.0000
     41  CGD       24.9280   95.0080   45.7010 C.2   296  HEM296      0.0000
     42  O1D       24.2450   96.0830   45.6790 O.co2 296  HEM296      0.0000
     43  O2D       25.4710   94.5620   44.6690 O.co2 296  HEM296      0.0000
@<TRIPOS>BOND
     1    43    41   ar
     2    42    41   ar
     3    41    40    1
     4    39    40    1
     5    39    36    1
     6    16    14   ar
     7    38    35    1
     8    15    14   ar
     9    36    35   ar
    10    36    37   ar
    11    14    13    1
    12    35    34   ar
    13    12    13    1
    14    12     8    1
    15    37     2    2
    16    37    33   ar
    17     2     7    1
    18    34    33   ar
    19    34     5    2
    20     8     7    1
    21     8     9    2
    22     7     6    2
    23    33     1    1
    24     5    29    1
    25     9    11    1
    26     9    10    1
    27     6     1    1
    28     6    10    1
    29     1    25    1
    30     1    17    1
    31    29    25    2
    32    29    28    1
    33    10     3    2
    34    31    28    1
    35    31    32    2
    36    25    26    1
    37    28    27    2
    38     3    18    1
    39    17    18   ar
    40    17    21   ar
    41    26    27    1
    42    26     4    2
    43    27    30    1
    44    18    19   ar
    45    21     4    1
    46    21    20   ar
    47    19    20   ar
    48    19    22    1
    49    20    23    1
    50    23    24    1
