@<TRIPOS>MOLECULE
1zbz_HEM_A_1.pdb
 43 50 0 0 0
SMALL
GASTEIGER

@<TRIPOS>ATOM
      1 FE         27.9970   91.0840   52.1580 Fe    296  HEM296      0.0000
      2  CHA       27.8030   93.1560   49.4490 C.2   296  HEM296      0.0000
      3  CHB       30.4530   93.0560   53.4350 C.2   296  HEM296      0.0000
      4  CHC       28.2950   89.0110   54.8220 C.2   296  HEM296      0.0000
      5  CHD       25.3780   89.2520   50.9780 C.2   296  HEM296      0.0000
      6  NA        28.9380   92.7850   51.5490 N.2   296  HEM296      0.0000
      7  C1A       28.6650   93.5400   50.4130 C.2   296  HEM296      0.0000
      8  C2A       29.5030   94.6920   50.3980 C.2   296  HEM296      0.0000
      9  C3A       30.2740   94.6620   51.5150 C.2   296  HEM296      0.0000
     10  C4A       29.9160   93.4740   52.2230 C.2   296  HEM296      0.0000
     11  CMA       31.2690   95.6750   51.9690 C.3   296  HEM296      0.0000
     12  CAA       29.4700   95.7110   49.2880 C.3   296  HEM296      0.0000
     13  CBA       28.2570   96.6540   49.5170 C.3   296  HEM296      0.0000
     14  CGA       28.3300   97.6810   48.4120 C.2   296  HEM296      0.0000
     15  O1A       29.3760   98.3400   48.1750 O.co2 296  HEM296      0.0000
     16  O2A       27.2920   97.9000   47.7140 O.co2 296  HEM296      0.0000
     17  NB        29.1670   91.0340   53.8120 N.ar  296  HEM296      0.0000
     18  C1B       30.1790   91.9240   54.1730 C.ar  296  HEM296      0.0000
     19  C2B       30.8030   91.4900   55.3810 C.ar  296  HEM296      0.0000
     20  C3B       30.2340   90.3240   55.7550 C.ar  296  HEM296      0.0000
     21  C4B       29.1510   90.0610   54.7980 C.ar  296  HEM296      0.0000
     22  CMB       31.8360   92.3310   56.0980 C.3   296  HEM296      0.0000
     23  CAB       30.5370   89.4790   56.8760 C.3   296  HEM296      0.0000
     24  CBB       31.8190   89.3710   57.5050 C.3   296  HEM296      0.0000
     25  NC        27.0380   89.4880   52.7810 N.2   296  HEM296      0.0000
     26  C1C       27.2320   88.7480   53.9450 C.2   296  HEM296      0.0000
     27  C2C       26.2160   87.7250   54.1130 C.2   296  HEM296      0.0000
     28  C3C       25.3860   87.8410   53.0140 C.2   296  HEM296      0.0000
     29  C4C       25.8890   88.9070   52.2100 C.2   296  HEM296      0.0000
     30  CMC       26.1610   86.8580   55.3280 C.3   296  HEM296      0.0000
     31  CAC       24.1200   87.1660   52.7900 C.2   296  HEM296      0.0000
     32  CBC       23.9110   85.8640   53.1170 C.2   296  HEM296      0.0000
     33  ND        26.8290   91.2070   50.5580 N.ar  296  HEM296      0.0000
     34  C1D       25.8300   90.3020   50.1660 C.ar  296  HEM296      0.0000
     35  C2D       25.3930   90.5630   48.8110 C.ar  296  HEM296      0.0000
     36  C3D       26.0720   91.6360   48.3830 C.ar  296  HEM296      0.0000
     37  C4D       26.9370   92.0530   49.4780 C.ar  296  HEM296      0.0000
     38  CMD       24.3820   89.6900   48.1170 C.3   296  HEM296      0.0000
     39  CAD       26.0100   92.3340   47.0430 C.3   296  HEM296      0.0000
     40  CBD       25.0310   93.4950   47.0530 C.3   296  HEM296      0.0000
     41  CGD       24.9430   94.2460   45.7460 C.2   296  HEM296      0.0000
     42  O1D       24.2610   95.3070   45.7390 O.co2 296  HEM296      0.0000
     43  O2D       25.4820   93.8320   44.6940 O.co2 296  HEM296      0.0000
@<TRIPOS>BOND
     1    43    41   ar
     2    42    41   ar
     3    41    40    1
     4    39    40    1
     5    39    36    1
     6    16    14   ar
     7    38    35    1
     8    15    14   ar
     9    36    35   ar
    10    36    37   ar
    11    14    13    1
    12    35    34   ar
    13    12    13    1
    14    12     8    1
    15     2    37    2
    16     2     7    1
    17    37    33   ar
    18    34    33   ar
    19    34     5    2
    20     8     7    1
    21     8     9    2
    22     7     6    2
    23    33     1    1
    24     5    29    1
    25     9    11    1
    26     9    10    1
    27     6     1    1
    28     6    10    1
    29     1    25    1
    30     1    17    1
    31    29    25    2
    32    29    28    1
    33    10     3    2
    34    25    26    1
    35    31    28    1
    36    31    32    2
    37    28    27    2
    38     3    18    1
    39    17    18   ar
    40    17    21   ar
    41    26    27    1
    42    26     4    2
    43    27    30    1
    44    18    19   ar
    45    21     4    1
    46    21    20   ar
    47    19    20   ar
    48    19    22    1
    49    20    23    1
    50    23    24    1
