@<TRIPOS>MOLECULE
1zc2_CIT_A_1.pdb
 13 12 0 0 0
SMALL
GASTEIGER

@<TRIPOS>ATOM
      1  C1        -7.2420   46.2670   31.3740 C.2   501  CIT501      0.3680
      2  O1        -7.1900   45.6130   30.3270 O.co2 501  CIT501     -0.2455
      3  O2        -6.7860   47.4290   31.3330 O.co2 501  CIT501     -0.2455
      4  C2        -7.8090   45.7100   32.6380 C.3   501  CIT501      0.1560
      5  C3        -8.4010   44.2810   32.7510 C.3   501  CIT501      0.2402
      6  O7        -9.7130   44.4490   32.1820 O.3   501  CIT501     -0.2129
      7  C4        -8.5890   43.8770   34.2880 C.3   501  CIT501      0.1560
      8  C5        -9.2400   44.9180   35.2720 C.2   501  CIT501      0.3680
      9  O3        -8.3500   45.7380   35.7440 O.co2 501  CIT501     -0.2455
     10  O4       -10.5390   44.9400   35.6310 O.co2 501  CIT501     -0.2455
     11  C6        -7.7860   43.1540   31.8410 C.2   501  CIT501      0.3927
     12  O5        -8.4500   42.7950   30.7410 O.co2 501  CIT501     -0.2429
     13  O6        -6.6500   42.5870   32.1420 O.co2 501  CIT501     -0.2429
@<TRIPOS>BOND
     1     2     1   ar
     2    12    11   ar
     3     3     1   ar
     4     1     4    1
     5    11    13   ar
     6    11     5    1
     7     6     5    1
     8     4     5    1
     9     5     7    1
    10     7     8    1
    11     8    10   ar
    12     8     9   ar
