@<TRIPOS>MOLECULE
1zc3_GNP_A_1.pdb
 32 34 0 0 0
SMALL
GASTEIGER

@<TRIPOS>ATOM
      1  PG        55.8930   56.5370   14.2360 P.3   700  GNP700      0.4884
      2  O1G       56.0020   55.3600   13.3080 O.2   700  GNP700     -0.2331
      3  O2G       55.8530   56.1420   15.6900 O.3   700  GNP700     -0.1240
      4  O3G       54.7190   57.3730   13.8610 O.3   700  GNP700     -0.1240
      5  N3B       57.3240   57.4240   13.9970 N.3   700  GNP700     -0.0163
      6  PB        57.7210   58.8060   14.8350 P.3   700  GNP700      0.4669
      7  O1B       57.1100   60.0320   14.3090 O.2   700  GNP700     -0.2351
      8  O2B       57.4600   58.5190   16.3070 O.3   700  GNP700     -0.1253
      9  O3A       59.3040   58.9280   14.5450 O.3   700  GNP700     -0.2360
     10  PA        60.5280   58.5130   15.5200 P.3   700  GNP700      0.2220
     11  O1A       60.6310   59.4270   16.7250 O.3   700  GNP700     -0.4370
     12  O2A       60.3680   57.0530   15.7720 O.2   700  GNP700     -0.5170
     13  O5'       61.7460   58.8760   14.5750 O.3   700  GNP700     -0.3111
     14  C5'       61.9920   58.2080   13.3070 C.3   700  GNP700      0.1813
     15  C4'       63.4890   58.1570   13.0510 C.3   700  GNP700      0.1799
     16  O4'       63.9950   59.5290   12.8780 O.3   700  GNP700     -0.3326
     17  C3'       64.3270   57.5560   14.1810 C.3   700  GNP700      0.2158
     18  O3'       65.3320   56.7300   13.5510 O.3   700  GNP700     -0.2175
     19  C2'       64.9550   58.7270   14.8730 C.3   700  GNP700      0.2310
     20  O2'       66.2250   58.4770   15.4650 O.3   700  GNP700     -0.2158
     21  C1'       65.0610   59.8120   13.7910 C.3   700  GNP700      0.2293
     22  N9        64.8560   61.1780   14.2590 N.pl3 700  GNP700     -0.2354
     23  C8        63.7860   61.7170   14.9540 C.3   700  GNP700      0.2246
     24  N7        63.8940   63.0030   15.2310 N.2   700  GNP700     -0.2322
     25  C5        65.1300   63.3220   14.6700 C.2   700  GNP700      0.2182
     26  C6        65.8170   64.5910   14.6370 C.1   700  GNP700      0.2372
     27  O6        65.4780   65.6880   15.0830 O.2   700  GNP700     -0.2069
     28  N1        67.0790   64.4960   13.9630 N.2   700  GNP700     -0.2485
     29  C2        67.6000   63.3390   13.4050 C.1   700  GNP700      0.2531
     30  N2        68.8070   63.4390   12.8140 N.pl3 700  GNP700     -0.0226
     31  N3        66.9480   62.1610   13.4390 N.2   700  GNP700     -0.3074
     32  C4        65.7250   62.2240   14.0890 C.2   700  GNP700      0.2300
@<TRIPOS>BOND
     1    30    29    1
     2    16    15    1
     3    16    21    1
     4    15    14    1
     5    15    17    1
     6    14    13    1
     7     2     1    2
     8    29    31    2
     9    29    28    2
    10    31    32    2
    11    18    17    1
    12    21    22    1
    13    21    19    1
    14     4     1    1
    15    28    26    2
    16     5     1    1
    17     5     6    1
    18    32    22    1
    19    32    25    1
    20    17    19    1
    21     1     3    1
    22    22    23    1
    23     7     6    2
    24     9     6    1
    25     9    10    1
    26    13    10    1
    27    26    25    1
    28    26    27    2
    29    25    24    2
    30     6     8    1
    31    19    20    1
    32    23    24    1
    33    10    12    2
    34    10    11    1
