@<TRIPOS>MOLECULE
1zc4_GNP_A_1.pdb
 32 34 0 0 0
SMALL
GASTEIGER

@<TRIPOS>ATOM
      1  PG        56.4300   56.4040   14.1050 P.3   400  GNP400      0.4884
      2  O1G       56.4730   55.2830   13.0990 O.2   400  GNP400     -0.2331
      3  O2G       56.5000   55.9130   15.5390 O.3   400  GNP400     -0.1240
      4  O3G       55.2180   57.2470   13.8600 O.3   400  GNP400     -0.1240
      5  N3B       57.8340   57.3240   13.8420 N.3   400  GNP400     -0.0163
      6  PB        58.2450   58.6600   14.7430 P.3   400  GNP400      0.4669
      7  O1B       57.6570   59.9180   14.2610 O.2   400  GNP400     -0.2351
      8  O2B       57.9660   58.3450   16.2080 O.3   400  GNP400     -0.1253
      9  O3A       59.8300   58.7710   14.4710 O.3   400  GNP400     -0.2360
     10  PA        61.0330   58.2560   15.4200 P.3   400  GNP400      0.2220
     11  O1A       61.1270   59.0470   16.7020 O.3   400  GNP400     -0.4370
     12  O2A       60.8480   56.7820   15.5370 O.2   400  GNP400     -0.5170
     13  O5'       62.2470   58.6800   14.5070 O.3   400  GNP400     -0.3111
     14  C5'       62.4620   58.1180   13.1820 C.3   400  GNP400      0.1813
     15  C4'       63.9470   58.0450   12.9020 C.3   400  GNP400      0.1799
     16  O4'       64.4520   59.4190   12.7250 O.3   400  GNP400     -0.3326
     17  C3'       64.7950   57.4330   14.0250 C.3   400  GNP400      0.2158
     18  O3'       65.7910   56.5850   13.3960 O.3   400  GNP400     -0.2175
     19  C2'       65.4290   58.6090   14.7120 C.3   400  GNP400      0.2310
     20  O2'       66.7030   58.3840   15.3060 O.3   400  GNP400     -0.2158
     21  C1'       65.5250   59.6970   13.6350 C.3   400  GNP400      0.2293
     22  N9        65.3250   61.0430   14.1370 N.pl3 400  GNP400     -0.2354
     23  C8        64.2670   61.5460   14.8630 C.3   400  GNP400      0.2246
     24  N7        64.3620   62.8160   15.1760 N.2   400  GNP400     -0.2322
     25  C5        65.5770   63.1700   14.6130 C.2   400  GNP400      0.2182
     26  C6        66.2320   64.4530   14.6090 C.1   400  GNP400      0.2372
     27  O6        65.8750   65.5190   15.1010 O.2   400  GNP400     -0.2069
     28  N1        67.4820   64.4060   13.9180 N.2   400  GNP400     -0.2485
     29  C2        68.0160   63.2840   13.3120 C.1   400  GNP400      0.2531
     30  N2        69.2000   63.4390   12.7160 N.pl3 400  GNP400     -0.0226
     31  N3        67.3950   62.0890   13.3110 N.2   400  GNP400     -0.3074
     32  C4        66.1780   62.1080   13.9810 C.2   400  GNP400      0.2300
@<TRIPOS>BOND
     1    30    29    1
     2    16    15    1
     3    16    21    1
     4    15    14    1
     5    15    17    1
     6     2     1    2
     7    14    13    1
     8    31    29    2
     9    31    32    2
    10    29    28    2
    11    18    17    1
    12    21    22    1
    13    21    19    1
    14     5     1    1
    15     5     6    1
    16     4     1    1
    17    28    26    2
    18    32    22    1
    19    32    25    1
    20    17    19    1
    21     1     3    1
    22    22    23    1
    23     7     6    2
    24     9     6    1
    25     9    10    1
    26    13    10    1
    27    26    25    1
    28    26    27    2
    29    25    24    2
    30    19    20    1
    31     6     8    1
    32    23    24    1
    33    10    12    2
    34    10    11    1
