@<TRIPOS>MOLECULE
1zc9_PMP_A_1.pdb
 16 16 0 0 0
SMALL
GASTEIGER

@<TRIPOS>ATOM
      1  N1        17.1240   52.9180   13.7800 N.ar  502  PMP502     -0.2452
      2  C2        16.0010   53.1890   14.5470 C.ar  502  PMP502      0.0978
      3  C2A       14.9270   54.1310   13.9730 C.3   502  PMP502      0.0555
      4  C3        15.9560   52.5580   15.8330 C.ar  502  PMP502      0.2063
      5  O3        14.8710   52.8170   16.5890 O.3   502  PMP502     -0.2856
      6  C4        16.9930   51.7190   16.2850 C.ar  502  PMP502      0.0369
      7  C4A       16.8920   51.1130   17.6130 C.3   502  PMP502      0.1386
      8  N4A       15.9010   50.2490   17.7330 N.3   502  PMP502     -0.1261
      9  C5        18.1100   51.5050   15.3980 C.ar  502  PMP502      0.0275
     10  C6        18.1770   52.0930   14.1570 C.ar  502  PMP502      0.0965
     11  C5A       19.3130   50.5770   15.7990 C.3   502  PMP502      0.1816
     12  O4P       19.0220   49.2060   15.6340 O.3   502  PMP502     -0.2653
     13  P         19.9460   48.1540   16.4000 P.3   502  PMP502      0.5329
     14  O1P       19.3970   46.8460   16.0150 O.3   502  PMP502     -0.1145
     15  O2P       21.3840   48.2490   15.9300 O.2   502  PMP502     -0.2224
     16  O3P       19.8240   48.4070   17.8060 O.3   502  PMP502     -0.1145
@<TRIPOS>BOND
     1     1    10   ar
     2     1     2   ar
     3     3     2    1
     4    10     9   ar
     5     2     4   ar
     6     9    11    1
     7     9     6   ar
     8    12    11    1
     9    12    13    1
    10     4     6   ar
    11     4     5    1
    12    15    13    2
    13    14    13    1
    14     6     7    1
    15    13    16    1
    16     7     8    1
