@<TRIPOS>MOLECULE
1zca_GDP_A_1.pdb
 28 30 0 0 0
SMALL
GASTEIGER

@<TRIPOS>ATOM
      1  PB        -5.5250   13.0980   33.2470 P.3   382  GDP382      0.5373
      2  O1B       -5.2980   14.3570   32.4390 O.2   382  GDP382     -0.2221
      3  O2B       -4.2210   12.5390   33.7550 O.3   382  GDP382     -0.1143
      4  O3B       -6.4430   13.3780   34.4050 O.3   382  GDP382     -0.1143
      5  O3A       -6.2130   12.0300   32.2850 O.3   382  GDP382     -0.2261
      6  PA        -5.5930   10.5680   32.1190 P.3   382  GDP382      0.2231
      7  O1A       -4.1890   10.6140   31.5650 O.2   382  GDP382     -0.5169
      8  O2A       -5.6560    9.8870   33.4650 O.3   382  GDP382     -0.4370
      9  O5'       -6.5860    9.9150   31.0300 O.3   382  GDP382     -0.3111
     10  C5'       -7.9850    9.9730   31.2440 C.3   382  GDP382      0.1813
     11  C4'       -8.6870    8.9510   30.3620 C.3   382  GDP382      0.1799
     12  O4'       -8.7010    9.4330   29.0180 O.3   382  GDP382     -0.3326
     13  C3'       -8.0400    7.5730   30.3360 C.3   382  GDP382      0.2158
     14  O3'       -9.0310    6.5670   30.5780 O.3   382  GDP382     -0.2175
     15  C2'       -7.4830    7.4250   28.9420 C.3   382  GDP382      0.2310
     16  O2'       -7.7390    6.1170   28.4390 O.3   382  GDP382     -0.2158
     17  C1'       -8.2580    8.4250   28.1190 C.3   382  GDP382      0.2293
     18  N9        -7.4600    9.0740   27.0630 N.pl3 382  GDP382     -0.2354
     19  C8        -6.3870    9.8620   27.2420 C.3   382  GDP382      0.2246
     20  N7        -5.9220   10.3090   26.0490 N.2   382  GDP382     -0.2322
     21  C5        -6.7170    9.8120   25.0850 C.2   382  GDP382      0.2182
     22  C6        -6.7990    9.8880   23.6020 C.1   382  GDP382      0.2372
     23  O6        -5.9710   10.5560   22.9520 O.2   382  GDP382     -0.2069
     24  N1        -7.7890    9.2250   22.9800 N.2   382  GDP382     -0.2485
     25  C2        -8.6900    8.5000   23.6720 C.1   382  GDP382      0.2531
     26  N2        -9.6540    7.8460   23.0000 N.pl3 382  GDP382     -0.0226
     27  N3        -8.6870    8.3860   25.0270 N.2   382  GDP382     -0.3074
     28  C4        -7.7380    9.0060   25.7670 C.2   382  GDP382      0.2300
@<TRIPOS>BOND
     1    23    22    2
     2    24    22    2
     3    24    25    2
     4    26    25    1
     5    22    21    1
     6    25    27    2
     7    27    28    2
     8    21    28    1
     9    21    20    2
    10    28    18    1
    11    20    19    1
    12    18    19    1
    13    18    17    1
    14    17    15    1
    15    17    12    1
    16    16    15    1
    17    15    13    1
    18    12    11    1
    19    13    11    1
    20    13    14    1
    21    11    10    1
    22     9    10    1
    23     9     6    1
    24     7     6    2
    25     6     5    1
    26     6     8    1
    27     5     1    1
    28     2     1    2
    29     1     3    1
    30     1     4    1
