@<TRIPOS>MOLECULE
1zcb_GDP_A_1.pdb
 28 30 0 0 0
SMALL
GASTEIGER

@<TRIPOS>ATOM
      1  PB       -30.6500   -3.9820   22.8360 P.3   378  GDP378      0.5373
      2  O1B      -31.8780   -4.6300   22.2210 O.2   378  GDP378     -0.2221
      3  O2B      -30.9740   -3.4630   24.1380 O.3   378  GDP378     -0.1143
      4  O3B      -29.5200   -5.0120   22.9950 O.3   378  GDP378     -0.1143
      5  O3A      -30.1380   -2.9360   21.7600 O.3   378  GDP378     -0.2261
      6  PA       -29.6190   -1.5030   22.2550 P.3   378  GDP378      0.2231
      7  O1A      -30.8150   -0.7300   22.6790 O.2   378  GDP378     -0.5169
      8  O2A      -28.6840   -1.5370   23.3820 O.3   378  GDP378     -0.4370
      9  O5'      -28.9980   -0.9730   20.9240 O.3   378  GDP378     -0.3111
     10  C5'      -27.7930   -1.4010   20.2640 C.3   378  GDP378      0.1813
     11  C4'      -27.0060   -0.2080   19.7060 C.3   378  GDP378      0.1799
     12  O4'      -27.6530    0.2740   18.5360 O.3   378  GDP378     -0.3326
     13  C3'      -26.9440    0.9870   20.6730 C.3   378  GDP378      0.2158
     14  O3'      -25.6710    1.6450   20.5130 O.3   378  GDP378     -0.2175
     15  C2'      -28.0420    1.9290   20.1970 C.3   378  GDP378      0.2310
     16  O2'      -27.6870    3.3160   20.4090 O.3   378  GDP378     -0.2158
     17  C1'      -28.0600    1.6640   18.7330 C.3   378  GDP378      0.2293
     18  N9       -29.3770    1.8550   18.0680 N.pl3 378  GDP378     -0.2354
     19  C8       -30.5850    1.4970   18.5630 C.3   378  GDP378      0.2246
     20  N7       -31.5320    1.7550   17.6700 N.2   378  GDP378     -0.2322
     21  C5       -30.9440    2.3550   16.6190 C.2   378  GDP378      0.2182
     22  C6       -31.3840    2.9190   15.3640 C.1   378  GDP378      0.2372
     23  O6       -32.5920    2.8870   15.0540 O.2   378  GDP378     -0.2069
     24  N1       -30.4630    3.4310   14.5420 N.2   378  GDP378     -0.2485
     25  C2       -29.1490    3.4630   14.8450 C.1   378  GDP378      0.2531
     26  N2       -28.2760    4.0420   13.9580 N.pl3 378  GDP378     -0.0226
     27  N3       -28.6640    2.9880   15.9880 N.2   378  GDP378     -0.3074
     28  C4       -29.5150    2.4190   16.8920 C.2   378  GDP378      0.2300
@<TRIPOS>BOND
     1    26    25    1
     2    24    25    2
     3    24    22    2
     4    25    27    2
     5    23    22    2
     6    22    21    1
     7    27    28    2
     8    21    28    1
     9    21    20    2
    10    28    18    1
    11    20    19    1
    12    18    19    1
    13    18    17    1
    14    12    17    1
    15    12    11    1
    16    17    15    1
    17    11    10    1
    18    11    13    1
    19    15    16    1
    20    15    13    1
    21    10     9    1
    22    14    13    1
    23     9     6    1
    24     5     6    1
    25     5     1    1
    26     2     1    2
    27     6     7    2
    28     6     8    1
    29     1     4    1
    30     1     3    1
