@<TRIPOS>MOLECULE
1zch_FMN_A_1.pdb
 31 33 0 0 0
SMALL
GASTEIGER

@<TRIPOS>ATOM
      1  N1        13.0470    2.6210   15.5180 N.2   301  FMN301     -0.2890
      2  C2        12.6010    3.5280   16.4080 C.1   301  FMN301      0.3669
      3  O2        13.1720    3.7460   17.4430 O.2   301  FMN301     -0.1744
      4  N3        11.4100    4.2990   16.1690 N.2   301  FMN301     -0.2300
      5  C4        10.6600    4.1510   14.9960 C.1   301  FMN301      0.2513
      6  O4         9.6560    4.8230   14.8390 O.2   301  FMN301     -0.2057
      7  C4A       11.1440    3.1770   14.0110 C.2   301  FMN301      0.2700
      8  N5        10.4500    2.9760   12.8450 N.2   301  FMN301     -0.3878
      9  C5A       11.0310    2.1880   11.8680 C.2   301  FMN301      0.1320
     10  C6        10.3910    2.1470   10.5830 C.2   301  FMN301      0.0250
     11  C7        10.9330    1.4240    9.5240 C.2   301  FMN301     -0.0238
     12  C7M       10.2560    1.4640    8.1690 C.3   301  FMN301      0.0308
     13  C8        12.1700    0.6440    9.7200 C.2   301  FMN301     -0.0280
     14  C8M       12.8250   -0.1200    8.5970 C.3   301  FMN301      0.0304
     15  C9        12.8020    0.6390   10.9950 C.2   301  FMN301     -0.0041
     16  C9A       12.2550    1.4140   12.0720 C.3   301  FMN301      0.1497
     17  N10       12.8930    1.5500   13.3930 N.pl3 301  FMN301     -0.2691
     18  C10       12.3910    2.4220   14.3260 C.2   301  FMN301      0.2416
     19  C1'       14.1310    0.7560   13.6880 C.3   301  FMN301      0.1294
     20  C2'       13.8210   -0.7480   13.9980 C.3   301  FMN301      0.2044
     21  O2'       13.3380   -0.8390   15.3450 O.3   301  FMN301     -0.2185
     22  C3'       15.1260   -1.5370   13.8060 C.3   301  FMN301      0.2164
     23  O3'       15.5180   -1.4300   12.4230 O.3   301  FMN301     -0.2175
     24  C4'       14.9420   -3.0340   14.1530 C.3   301  FMN301      0.2147
     25  O4'       14.6280   -3.2110   15.5380 O.3   301  FMN301     -0.2176
     26  C5'       16.2220   -3.7660   13.7770 C.3   301  FMN301      0.1892
     27  O5'       17.3860   -3.3170   14.7240 O.3   301  FMN301     -0.2674
     28  P         18.6230   -2.7010   14.0520 P.3   301  FMN301      0.5327
     29  O1P       19.4060   -3.7460   13.4150 O.3   301  FMN301     -0.1145
     30  O2P       19.4230   -2.0620   15.0790 O.3   301  FMN301     -0.1145
     31  O3P       18.2310   -1.7160   13.0510 O.2   301  FMN301     -0.2224
@<TRIPOS>BOND
     1    12    11    1
     2    14    13    1
     3    11    13    1
     4    11    10    2
     5    13    15    2
     6    10     9    1
     7    15    16    1
     8     9    16    1
     9     9     8    2
    10    16    17    1
    11    23    22    1
    12     8     7    2
    13    31    28    2
    14    17    19    1
    15    17    18    1
    16    29    28    1
    17    19    20    1
    18    26    24    1
    19    26    27    1
    20    22    20    1
    21    22    24    1
    22    20    21    1
    23     7    18    1
    24     7     5    1
    25    28    27    1
    26    28    30    1
    27    24    25    1
    28    18     1    2
    29     6     5    2
    30     5     4    2
    31     1     2    2
    32     4     2    2
    33     2     3    2
