@<TRIPOS>MOLECULE
1zcm_C1N_A_1.pdb
 39 40 0 0 0
SMALL
GASTEIGER

@<TRIPOS>ATOM
      1  C1       -19.9540    0.5820   37.5060 C.ar  1115  C1N1115    -0.0007
      2  C2       -19.0040    0.3860   38.5530 C.ar  1115  C1N1115    -0.0002
      3  C3       -17.6390    0.7520   38.3500 C.ar  1115  C1N1115    -0.0000
      4  C4       -17.2310    1.3140   37.0990 C.ar  1115  C1N1115    -0.0002
      5  C5       -18.1830    1.5120   36.0480 C.ar  1115  C1N1115    -0.0007
      6  C6       -19.5510    1.1470   36.2470 C.ar  1115  C1N1115     0.0213
      7  C7       -20.6200    1.3280   35.1570 C.3   1115  C1N1115     0.2368
      8  O8       -20.7570    2.7450   34.8250 O.3   1115  C1N1115    -0.4285
      9  C9       -21.7100    3.0180   33.8870 C.2   1115  C1N1115     0.4215
     10  O10      -22.3880    2.1290   33.3840 O.2   1115  C1N1115    -0.2246
     11  N11      -21.9430    4.3020   33.5110 N.am  1115  C1N1115    -0.1663
     12  C12      -21.1860    5.4840   34.0290 C.3   1115  C1N1115     0.1459
     13  C13      -18.7280    6.1700   34.6670 C.3   1115  C1N1115     0.0018
     14  C14      -18.7610    7.6770   34.2910 C.3   1115  C1N1115     0.0001
     15  C15      -17.2640    5.6630   34.5270 C.3   1115  C1N1115     0.0001
     16  C16      -22.0010    6.7780   33.3340 C.3   1115  C1N1115     0.2460
     17  C17      -19.6840    5.3050   33.7590 C.3   1115  C1N1115     0.0259
     18  O18      -21.5170    6.6860   32.2350 O.3   1115  C1N1115    -0.2017
     19  N19      -23.3530    6.8840   33.2560 N.3   1115  C1N1115    -0.1799
     20  C20      -23.9360    8.1620   33.7720 C.3   1115  C1N1115     0.1529
     21  C21      -25.0820    8.7560   32.8690 C.3   1115  C1N1115     0.0268
     22  C22      -24.7980    9.2540   31.3930 C.3   1115  C1N1115     0.0019
     23  C23      -23.3350    9.1240   30.8870 C.3   1115  C1N1115     0.0001
     24  C24      -25.7580    8.5890   30.3710 C.3   1115  C1N1115     0.0001
     25  C25      -24.3800    7.8020   35.1810 C.2   1115  C1N1115     0.2576
     26  N26      -24.0650    8.7400   36.1230 N.am  1115  C1N1115    -0.1981
     27  C27      -24.6040    8.6530   37.5100 C.3   1115  C1N1115     0.1566
     28  C28      -23.4520    8.8170   38.5470 C.3   1115  C1N1115     0.0555
     29  O29      -25.0170    6.7550   35.4380 O.2   1115  C1N1115    -0.2718
     30  C30      -25.6970    9.7160   37.6550 C.2   1115  C1N1115     0.1710
     31  O31      -26.4180    9.7510   38.6440 O.2   1115  C1N1115    -0.2942
     32  C32      -25.9410   10.6850   36.5530 C.3   1115  C1N1115     0.0741
     33  C33      -22.5000    7.6120   38.4810 C.ar  1115  C1N1115    -0.0198
     34  C35      -21.4620    7.5490   37.4990 C.ar  1115  C1N1115    -0.0009
     35  C36      -20.6000    6.4200   37.4370 C.ar  1115  C1N1115     0.0417
     36  C37      -20.7630    5.3430   38.3500 C.ar  1115  C1N1115     0.1957
     37  C38      -21.7880    5.4050   39.3280 C.ar  1115  C1N1115     0.0417
     38  C39      -22.6510    6.5330   39.3920 C.ar  1115  C1N1115    -0.0009
     39  O40      -19.9390    4.2250   38.3040 O.3   1115  C1N1115    -0.2866
@<TRIPOS>BOND
     1    24    22    1
     2    23    22    1
     3    22    21    1
     4    18    16    1
     5    21    20    1
     6    19    16    1
     7    19    20    1
     8    16    12    1
     9    10     9    2
    10    11     9   am
    11    11    12    1
    12    17    12    1
    13    17    13    1
    14    20    25    1
    15     9     8    1
    16    14    13    1
    17    15    13    1
    18     8     7    1
    19     7     6    1
    20    25    29    2
    21    25    26   am
    22     5     6   ar
    23     5     4   ar
    24    26    27    1
    25     6     1   ar
    26    32    30    1
    27     4     3   ar
    28    35    34   ar
    29    35    36   ar
    30    34    33   ar
    31     1     2   ar
    32    27    30    1
    33    27    28    1
    34    30    31    2
    35    39    36    1
    36     3     2   ar
    37    36    37   ar
    38    33    28    1
    39    33    38   ar
    40    37    38   ar
