@<TRIPOS>MOLECULE
1zct_UDP_A_1.pdb
 25 26 0 0 0
SMALL
GASTEIGER

@<TRIPOS>ATOM
      1  N1        -9.7230   41.5250   21.8420 N.am  411  UDP411     -0.1766
      2  C2       -10.1300   41.3270   23.1390 C.1   411  UDP411      0.2845
      3  N3       -11.5110   41.3480   23.3600 N.2   411  UDP411     -0.2452
      4  C4       -12.5100   41.5680   22.3530 C.1   411  UDP411      0.2182
      5  C5       -12.0050   41.7650   21.0140 C.2   411  UDP411      0.1242
      6  C6       -10.6740   41.7430   20.8070 C.2   411  UDP411      0.0929
      7  O2        -9.3230   41.1420   24.0370 O.2   411  UDP411     -0.1918
      8  O4       -13.6960   41.5690   22.6860 O.2   411  UDP411     -0.2085
      9  C1'       -8.2810   41.5260   21.5480 C.3   411  UDP411      0.2401
     10  C2'       -7.6580   40.1810   21.1740 C.3   411  UDP411      0.2319
     11  O2'       -6.3000   40.1460   21.5670 O.3   411  UDP411     -0.2157
     12  C3'       -7.8480   40.1620   19.7060 C.3   411  UDP411      0.2158
     13  C4'       -7.4860   41.6160   19.3740 C.3   411  UDP411      0.1799
     14  O4'       -8.1150   42.3460   20.4370 O.3   411  UDP411     -0.3320
     15  O3'       -6.9060   39.2470   19.2070 O.3   411  UDP411     -0.2175
     16  C5'       -8.0910   42.1930   18.0950 C.3   411  UDP411      0.1813
     17  O5'       -9.3580   41.6080   17.8130 O.3   411  UDP411     -0.3111
     18  PA        -9.7710   40.4170   16.8490 P.3   411  UDP411      0.2231
     19  O1A       -8.7340   39.3550   16.9810 O.2   411  UDP411     -0.5169
     20  O2A      -11.1850   40.0610   17.2640 O.3   411  UDP411     -0.4370
     21  O3A       -9.6170   41.1070   15.4580 O.3   411  UDP411     -0.2261
     22  PB        -9.7170   40.5630   13.9660 P.3   411  UDP411      0.5373
     23  O1B       -8.2000   40.1150   13.6060 O.3   411  UDP411     -0.1143
     24  O2B      -10.1690   41.7680   13.2040 O.2   411  UDP411     -0.2221
     25  O3B      -10.4920   39.3390   13.8730 O.3   411  UDP411     -0.1143
@<TRIPOS>BOND
     1    24    22    2
     2    23    22    1
     3    25    22    1
     4    22    21    1
     5    21    18    1
     6    18    19    2
     7    18    20    1
     8    18    17    1
     9    17    16    1
    10    16    13    1
    11    15    12    1
    12    13    12    1
    13    13    14    1
    14    12    10    1
    15    14     9    1
    16     6     5    2
    17     6     1    1
    18     5     4    1
    19    10     9    1
    20    10    11    1
    21     9     1    1
    22     1     2   am
    23     4     8    2
    24     4     3    2
    25     2     3    2
    26     2     7    2
