@<TRIPOS>MOLECULE
1zcw_GPP_A_1.pdb
 19 18 0 0 0
SMALL
GASTEIGER

@<TRIPOS>ATOM
      1  C1        24.6090   27.2600    6.8240 C.3   401  GPP401      0.1747
      2  O1        23.4920   26.7360    6.1110 O.3   401  GPP401     -0.3089
      3  C2        25.3690   26.1000    7.4970 C.2   401  GPP401     -0.0024
      4  C3        26.5140   26.1630    8.2550 C.2   401  GPP401     -0.0454
      5  C4        27.2490   27.4830    8.5530 C.3   401  GPP401      0.0261
      6  C5        27.1310   24.8700    8.8470 C.3   401  GPP401      0.0264
      7  C6        28.4320   25.0240    9.6670 C.3   401  GPP401      0.0297
      8  C7        28.9250   23.6890   10.1680 C.2   401  GPP401     -0.0342
      9  C8        30.0260   23.4090   10.9080 C.2   401  GPP401     -0.0478
     10  C9        31.0530   24.4090   11.4190 C.3   401  GPP401      0.0260
     11  C10       30.3220   21.9750   11.2970 C.3   401  GPP401      0.0260
     12  PA        21.9940   26.4250    6.6970 P.3   401  GPP401      0.2233
     13  O1A       21.5160   27.7620    7.2080 O.2   401  GPP401     -0.5169
     14  O2A       22.1850   25.5080    7.8760 O.3   401  GPP401     -0.4370
     15  O3A       20.8940   25.8490    5.6440 O.3   401  GPP401     -0.2261
     16  PB        20.8770   25.4760    4.0670 P.3   401  GPP401      0.5373
     17  O1B       19.7750   24.5060    3.8580 O.3   401  GPP401     -0.1143
     18  O2B       20.6140   26.7190    3.3170 O.2   401  GPP401     -0.2221
     19  O3B       22.1750   24.8390    3.6870 O.3   401  GPP401     -0.1143
@<TRIPOS>BOND
     1    18    16    2
     2    19    16    1
     3    17    16    1
     4    16    15    1
     5    15    12    1
     6     2    12    1
     7     2     1    1
     8    12    13    2
     9    12    14    1
    10     1     3    1
    11     3     4    2
    12     4     5    1
    13     4     6    1
    14     6     7    1
    15     7     8    1
    16     8     9    2
    17     9    11    1
    18     9    10    1
