@<TRIPOS>MOLECULE
1zd2_NC3_P_1.pdb
 14 14 0 0 0
SMALL
GASTEIGER

@<TRIPOS>ATOM
      1  C1       -18.0030   -9.6450   67.3740 C.3   700  NC3700      0.0969
      2  N2       -18.1280   -9.0860   65.9770 N.am  700  NC3700     -0.1890
      3  C3       -17.3100   -8.1030   65.3770 C.2   700  NC3700      0.3397
      4  N4       -17.6550   -7.7520   64.0600 N.am  700  NC3700     -0.1750
      5  C5       -16.9280   -6.7180   63.2580 C.3   700  NC3700      0.2301
      6  C6       -17.5550   -6.6490   61.8440 C.2   700  NC3700      0.3866
      7  O7       -17.1850   -5.5580   61.1550 O.co2 700  NC3700     -0.2437
      8  O8       -16.3860   -7.5550   65.9610 O.2   700  NC3700     -0.2492
      9  O9       -18.2950   -7.4810   61.3710 O.co2 700  NC3700     -0.2437
     10  C10      -18.5360  -11.1100   67.4220 C.3   700  NC3700      0.0217
     11  C11      -18.4280  -11.7340   68.8430 C.3   700  NC3700      0.0018
     12  C12      -16.9710  -11.6530   69.3890 C.3   700  NC3700      0.0001
     13  C13      -16.4270  -10.1930   69.3300 C.3   700  NC3700      0.0018
     14  C14      -16.5360   -9.6100   67.8950 C.3   700  NC3700      0.0217
@<TRIPOS>BOND
     1     7     6   ar
     2     9     6   ar
     3     6     5    1
     4     5     4    1
     5     4     3   am
     6     3     8    2
     7     3     2   am
     8     2     1    1
     9     1    10    1
    10     1    14    1
    11    10    11    1
    12    14    13    1
    13    11    12    1
    14    13    12    1
