@<TRIPOS>MOLECULE
1zd3_NC4_A_1.pdb
 16 16 0 0 0
SMALL
GASTEIGER

@<TRIPOS>ATOM
      1  C1       -17.6210   -7.3610   63.0660 C.3   790  NC4790      0.0969
      2  N2       -18.0200   -7.7600   64.4210 N.am  790  NC4790     -0.1890
      3  C3       -17.7790   -8.9930   64.9630 C.2   790  NC4790      0.3392
      4  N4       -18.2270   -9.1620   66.2440 N.am  790  NC4790     -0.1872
      5  C5       -18.0320  -10.4100   66.9900 C.3   790  NC4790      0.1174
      6  C6       -18.1580  -10.1230   68.4920 C.3   790  NC4790      0.0353
      7  C7       -16.9560  -10.6580   69.2970 C.3   790  NC4790      0.1159
      8  C8       -17.0630  -10.3930   70.7970 C.2   790  NC4790      0.3649
      9  O9       -15.9950  -10.8730   71.4680 O.co2 790  NC4790     -0.2457
     10  O10      -17.2040   -9.8610   64.3660 O.2   790  NC4790     -0.2492
     11  O11      -17.9610   -9.8310   71.3770 O.co2 790  NC4790     -0.2457
     12  C12      -18.6010   -6.3010   62.4940 C.3   790  NC4790      0.0217
     13  C13      -18.1890   -5.8690   61.0700 C.3   790  NC4790      0.0018
     14  C14      -16.7410   -5.3230   61.0530 C.3   790  NC4790      0.0001
     15  C15      -15.7300   -6.3360   61.6540 C.3   790  NC4790      0.0018
     16  C16      -16.1780   -6.7800   63.0760 C.3   790  NC4790      0.0217
@<TRIPOS>BOND
     1    14    13    1
     2    14    15    1
     3    13    12    1
     4    15    16    1
     5    12     1    1
     6     1    16    1
     7     1     2    1
     8    10     3    2
     9     2     3   am
    10     3     4   am
    11     4     5    1
    12     5     6    1
    13     6     7    1
    14     7     8    1
    15     8    11   ar
    16     8     9   ar
