@<TRIPOS>MOLECULE
1zd4_NC6_A_1.pdb
 18 18 0 0 0
SMALL
GASTEIGER

@<TRIPOS>ATOM
      1  C1        15.4350   11.5450  141.5140 C.3   700  NC6700      0.0969
      2  N2        16.1780   11.9470  140.3000 N.am  700  NC6700     -0.1890
      3  C3        16.8440   11.0560  139.4790 C.2   700  NC6700      0.3392
      4  N4        17.2680   11.5780  138.2730 N.am  700  NC6700     -0.1872
      5  C5        17.9600   10.7740  137.2560 C.3   700  NC6700      0.1168
      6  C6        17.0330   10.6330  136.0430 C.3   700  NC6700      0.0235
      7  C7        17.6420    9.8050  134.9080 C.3   700  NC6700      0.0024
      8  C8        16.6670    9.6990  133.7260 C.3   700  NC6700      0.0119
      9  C9        17.2350    8.8690  132.5630 C.3   700  NC6700      0.1141
     10  O10       17.0230    9.8970  139.7860 O.2   700  NC6700     -0.2492
     11  C11       16.2810    8.7440  131.3780 C.2   700  NC6700      0.3649
     12  O12       16.8260    8.0060  130.3840 O.co2 700  NC6700     -0.2457
     13  O13       15.1650    9.2190  131.2760 O.co2 700  NC6700     -0.2457
     14  C14       15.1970   12.7700  142.4340 C.3   700  NC6700      0.0217
     15  C15       14.4100   12.3770  143.7090 C.3   700  NC6700      0.0018
     16  C16       13.0640   11.6810  143.3630 C.3   700  NC6700      0.0001
     17  C17       13.2610   10.4890  142.3900 C.3   700  NC6700      0.0018
     18  C18       14.0630   10.9120  141.1310 C.3   700  NC6700      0.0217
@<TRIPOS>BOND
     1    12    11   ar
     2    13    11   ar
     3    11     9    1
     4     9     8    1
     5     8     7    1
     6     7     6    1
     7     6     5    1
     8     5     4    1
     9     4     3   am
    10     3    10    2
    11     3     2   am
    12     2     1    1
    13    18     1    1
    14    18    17    1
    15     1    14    1
    16    17    16    1
    17    14    15    1
    18    16    15    1
