@<TRIPOS>MOLECULE
1zd5_NC7_A_1.pdb
 19 19 0 0 0
SMALL
GASTEIGER

@<TRIPOS>ATOM
      1  C1       -17.9510  -10.0790   67.0620 C.3   700  NC7700      0.0969
      2  N2       -18.4930   -8.9740   66.2480 N.am  700  NC7700     -0.1890
      3  C3       -17.8940   -8.5860   65.0710 C.2   700  NC7700      0.3392
      4  N4       -18.3350   -7.4330   64.4890 N.am  700  NC7700     -0.1872
      5  C5       -17.4680   -6.9930   63.4290 C.3   700  NC7700      0.1168
      6  C6       -17.8250   -7.3860   61.9880 C.3   700  NC7700      0.0235
      7  C7       -16.5710   -6.8340   61.3630 C.3   700  NC7700      0.0018
      8  C8       -16.2610   -6.8480   59.8890 C.3   700  NC7700      0.0006
      9  C9       -14.8580   -6.2520   60.0770 C.3   700  NC7700      0.0118
     10  O10      -16.9180   -9.1450   64.6460 O.2   700  NC7700     -0.2492
     11  C11      -13.9420   -5.9930   58.9100 C.3   700  NC7700      0.1141
     12  C12      -12.5890   -5.4870   59.4360 C.2   700  NC7700      0.3649
     13  O13      -11.7690   -5.2300   58.4120 O.co2 700  NC7700     -0.2457
     14  O14      -12.2380   -5.3120   60.6100 O.co2 700  NC7700     -0.2457
     15  C15      -17.6440   -9.5840   68.4900 C.3   700  NC7700      0.0217
     16  C16      -17.1070  -10.7260   69.3840 C.3   700  NC7700      0.0018
     17  C17      -18.0920  -11.9230   69.4270 C.3   700  NC7700      0.0001
     18  C18      -18.4540  -12.4130   68.0040 C.3   700  NC7700      0.0018
     19  C19      -18.9870  -11.2460   67.1280 C.3   700  NC7700      0.0217
@<TRIPOS>BOND
     1    13    12   ar
     2    11    12    1
     3    11     9    1
     4    12    14   ar
     5     8     9    1
     6     8     7    1
     7     7     6    1
     8     6     5    1
     9     5     4    1
    10     4     3   am
    11    10     3    2
    12     3     2   am
    13     2     1    1
    14     1    19    1
    15     1    15    1
    16    19    18    1
    17    18    17    1
    18    15    16    1
    19    16    17    1
