@<TRIPOS>MOLECULE
1zd9_GDP_A_1.pdb
 28 30 0 0 0
SMALL
GASTEIGER

@<TRIPOS>ATOM
      1  PB        44.4890   64.4830  -13.9450 P.3   201  GDP201      0.5373
      2  O1B       45.3080   63.5980  -13.0370 O.3   201  GDP201     -0.1143
      3  O2B       43.4060   63.7370  -14.7580 O.3   201  GDP201     -0.1143
      4  O3B       45.4060   65.2170  -14.9020 O.2   201  GDP201     -0.2221
      5  O3A       43.6710   65.5840  -13.1190 O.3   201  GDP201     -0.2261
      6  PA        43.9570   66.0210  -11.5990 P.3   201  GDP201      0.2231
      7  O1A       43.6080   64.9400  -10.6240 O.3   201  GDP201     -0.4370
      8  O2A       45.3100   66.6530  -11.4370 O.2   201  GDP201     -0.5169
      9  O5'       42.8100   67.1260  -11.3870 O.3   201  GDP201     -0.3111
     10  C5'       42.8900   68.3070  -12.1980 C.3   201  GDP201      0.1813
     11  C4'       42.2820   69.4790  -11.4250 C.3   201  GDP201      0.1799
     12  O4'       40.8770   69.2650  -11.3090 O.3   201  GDP201     -0.3326
     13  C3'       42.8460   69.6230  -10.0140 C.3   201  GDP201      0.2158
     14  O3'       42.9380   71.0150   -9.6570 O.3   201  GDP201     -0.2175
     15  C2'       41.7930   68.9830   -9.1360 C.3   201  GDP201      0.2310
     16  O2'       41.7210   69.5920   -7.8410 O.3   201  GDP201     -0.2158
     17  C1'       40.5400   69.3000   -9.9210 C.3   201  GDP201      0.2293
     18  N9        39.4400   68.3720   -9.6160 N.pl3 201  GDP201     -0.2354
     19  C8        39.4950   67.0070   -9.5530 C.3   201  GDP201      0.2246
     20  N7        38.2640   66.5250   -9.2620 N.2   201  GDP201     -0.2322
     21  C5        37.4070   67.5820   -9.1250 C.2   201  GDP201      0.2182
     22  C6        35.9550   67.7700   -8.8400 C.1   201  GDP201      0.2372
     23  O6        35.1810   66.7940   -8.6200 O.2   201  GDP201     -0.2069
     24  N1        35.4760   69.0300   -8.8270 N.2   201  GDP201     -0.2485
     25  C2        36.2740   70.1110   -9.0530 C.1   201  GDP201      0.2531
     26  N2        35.7370   71.3590   -9.0100 N.pl3 201  GDP201     -0.0226
     27  N3        37.5930   70.0190   -9.3310 N.2   201  GDP201     -0.3074
     28  C4        38.1960   68.7940   -9.3760 C.2   201  GDP201      0.2300
@<TRIPOS>BOND
     1     4     1    2
     2     3     1    1
     3     1     5    1
     4     1     2    1
     5     5     6    1
     6    10    11    1
     7    10     9    1
     8     6     8    2
     9     6     9    1
    10     6     7    1
    11    11    12    1
    12    11    13    1
    13    12    17    1
    14    13    14    1
    15    13    15    1
    16    17    18    1
    17    17    15    1
    18    18    19    1
    19    18    28    1
    20    19    20    1
    21    28    27    2
    22    28    21    1
    23    27    25    2
    24    20    21    2
    25    15    16    1
    26    21    22    1
    27    25    26    1
    28    25    24    2
    29    22    24    2
    30    22    23    2
