@<TRIPOS>MOLECULE
1zdf_UPG_A_1.pdb
 36 38 0 0 0
SMALL
GASTEIGER

@<TRIPOS>ATOM
      1  N1         7.0400  -32.0350   86.1720 N.am  411  UPG411     -0.1766
      2  C2         7.6980  -30.8700   86.5740 C.1   411  UPG411      0.2845
      3  N3         7.3470  -30.3740   87.8200 N.2   411  UPG411     -0.2452
      4  C4         6.3890  -30.9330   88.7210 C.1   411  UPG411      0.2182
      5  C5         5.7340  -32.1470   88.2550 C.2   411  UPG411      0.1242
      6  C6         6.0700  -32.6440   87.0350 C.2   411  UPG411      0.0929
      7  O2         8.5390  -30.3100   85.8710 O.2   411  UPG411     -0.1918
      8  O4         6.1950  -30.3580   89.8010 O.2   411  UPG411     -0.2085
      9  C1C        7.3720  -32.6260   84.8390 C.3   411  UPG411      0.2401
     10  C2C        8.5980  -33.5580   84.8300 C.3   411  UPG411      0.2319
     11  O2C        9.2980  -33.4520   83.5850 O.3   411  UPG411     -0.2157
     12  C3C        7.9470  -34.8970   85.0940 C.3   411  UPG411      0.2158
     13  C4C        6.7360  -34.7880   84.1530 C.3   411  UPG411      0.1799
     14  O4C        6.2740  -33.4300   84.3980 O.3   411  UPG411     -0.3320
     15  O3C        8.8610  -35.9060   84.6920 O.3   411  UPG411     -0.2175
     16  C5C        5.5390  -35.7260   84.4530 C.3   411  UPG411      0.1813
     17  O5C        5.2630  -35.8730   85.8520 O.3   411  UPG411     -0.3112
     18  PA         5.9180  -36.8200   86.9480 P.3   411  UPG411      0.2189
     19  O1A        7.1210  -37.4550   86.3400 O.2   411  UPG411     -0.5170
     20  O2A        6.1980  -35.9710   88.1510 O.3   411  UPG411     -0.4371
     21  O3A        4.7400  -37.8480   87.1260 O.3   411  UPG411     -0.2703
     22  PB         4.6090  -39.4350   86.9490 P.3   411  UPG411      0.2208
     23  O1B        5.7880  -39.8370   85.9410 O.2   411  UPG411     -0.5170
     24  O2B        4.9370  -40.1720   88.1760 O.3   411  UPG411     -0.4371
     25  O3B        3.2670  -39.5480   86.3390 O.3   411  UPG411     -0.2857
     26  C1'        2.4180  -39.0090   85.8600 C.3   411  UPG411      0.2742
     27  C2'        1.0350  -39.6650   85.9020 C.3   411  UPG411      0.2409
     28  C3'        1.0750  -41.0480   85.2360 C.3   411  UPG411      0.2198
     29  C4'        1.6190  -40.9900   83.7990 C.3   411  UPG411      0.2144
     30  C5'        2.9210  -40.1350   83.7750 C.3   411  UPG411      0.1835
     31  C6'        3.4690  -39.8010   82.3660 C.3   411  UPG411      0.2142
     32  O2'        0.5300  -39.8920   87.2540 O.3   411  UPG411     -0.2149
     33  O3'       -0.2440  -41.6730   85.2170 O.3   411  UPG411     -0.2174
     34  O4'        1.9100  -42.3150   83.3280 O.3   411  UPG411     -0.2176
     35  O5'        2.7340  -38.8580   84.4820 O.3   411  UPG411     -0.3254
     36  O6'        3.6240  -38.3530   82.1660 O.3   411  UPG411     -0.2176
@<TRIPOS>BOND
     1    36    31    1
     2    31    30    1
     3    34    29    1
     4    11    10    1
     5    30    29    1
     6    30    35    1
     7    29    28    1
     8    13    14    1
     9    13    16    1
    10    13    12    1
    11    14     9    1
    12    16    17    1
    13    35    26    1
    14    15    12    1
    15    10     9    1
    16    10    12    1
    17     9     1    1
    18    33    28    1
    19    28    27    1
    20    17    18    1
    21    26    27    1
    22    26    25    1
    23     7     2    2
    24    27    32    1
    25    23    22    2
    26     1     2   am
    27     1     6    1
    28    25    22    1
    29    19    18    2
    30     2     3    2
    31    18    21    1
    32    18    20    1
    33    22    21    1
    34    22    24    1
    35     6     5    2
    36     3     4    2
    37     5     4    1
    38     4     8    2
