@<TRIPOS>MOLECULE
1zdg_UPG_A_1.pdb
 36 38 0 0 0
SMALL
GASTEIGER

@<TRIPOS>ATOM
      1  N1         7.0740  -32.6630   87.0660 N.am  411  UPG411     -0.1766
      2  C2         7.6830  -31.4550   87.4100 C.1   411  UPG411      0.2845
      3  N3         7.3550  -30.9300   88.6500 N.2   411  UPG411     -0.2452
      4  C4         6.4650  -31.5090   89.6090 C.1   411  UPG411      0.2182
      5  C5         5.8520  -32.7840   89.2010 C.2   411  UPG411      0.1242
      6  C6         6.1710  -33.3040   87.9810 C.2   411  UPG411      0.0929
      7  O2         8.4560  -30.8870   86.6520 O.2   411  UPG411     -0.1918
      8  O4         6.2770  -30.9030   90.6810 O.2   411  UPG411     -0.2085
      9  C1C        7.3990  -33.2610   85.7360 C.3   411  UPG411      0.2401
     10  C2C        8.6190  -34.2020   85.7340 C.3   411  UPG411      0.2319
     11  O2C        9.3060  -34.0940   84.4940 O.3   411  UPG411     -0.2157
     12  C3C        7.9680  -35.5420   85.9980 C.3   411  UPG411      0.2158
     13  C4C        6.7320  -35.4330   85.0880 C.3   411  UPG411      0.1799
     14  O4C        6.2990  -34.0470   85.3150 O.3   411  UPG411     -0.3320
     15  O3C        8.8660  -36.5580   85.5880 O.3   411  UPG411     -0.2175
     16  C5C        5.5320  -36.3200   85.4850 C.3   411  UPG411      0.1813
     17  O5C        5.4450  -36.5030   86.9170 O.3   411  UPG411     -0.3112
     18  PA         6.0710  -37.5990   87.8740 P.3   411  UPG411      0.2189
     19  O1A        7.3290  -38.0850   87.2420 O.2   411  UPG411     -0.5170
     20  O2A        6.2450  -36.9900   89.2080 O.3   411  UPG411     -0.4371
     21  O3A        4.9070  -38.6510   87.8280 O.3   411  UPG411     -0.2703
     22  PB         4.7800  -40.2380   87.6440 P.3   411  UPG411      0.2208
     23  O1B        5.8690  -40.5830   86.5420 O.2   411  UPG411     -0.5170
     24  O2B        5.1990  -40.9810   88.8210 O.3   411  UPG411     -0.4371
     25  O3B        3.3820  -40.2740   87.1750 O.3   411  UPG411     -0.2857
     26  C1'        2.6000  -39.6530   86.6440 C.3   411  UPG411      0.2742
     27  C2'        1.1380  -40.0870   86.6370 C.3   411  UPG411      0.2409
     28  C3'        0.9870  -41.4680   86.0030 C.3   411  UPG411      0.2198
     29  C4'        1.5980  -41.5430   84.5880 C.3   411  UPG411      0.2144
     30  C5'        3.0150  -40.9110   84.6230 C.3   411  UPG411      0.1835
     31  C6'        3.6670  -40.7180   83.2510 C.3   411  UPG411      0.2142
     32  O2'        0.5490  -40.2030   87.9580 O.3   411  UPG411     -0.2149
     33  O3'       -0.4180  -41.8600   85.9530 O.3   411  UPG411     -0.2174
     34  O4'        1.7070  -42.9140   84.1580 O.3   411  UPG411     -0.2176
     35  O5'        2.9860  -39.5880   85.2840 O.3   411  UPG411     -0.3254
     36  O6'        4.1120  -39.3470   83.0740 O.3   411  UPG411     -0.2176
@<TRIPOS>BOND
     1    36    31    1
     2    31    30    1
     3    34    29    1
     4    11    10    1
     5    29    30    1
     6    29    28    1
     7    30    35    1
     8    13    14    1
     9    13    16    1
    10    13    12    1
    11    35    26    1
    12    14     9    1
    13    16    17    1
    14    15    12    1
    15    10     9    1
    16    10    12    1
    17     9     1    1
    18    33    28    1
    19    28    27    1
    20    23    22    2
    21    27    26    1
    22    27    32    1
    23    26    25    1
    24     7     2    2
    25    17    18    1
    26     1     2   am
    27     1     6    1
    28    25    22    1
    29    19    18    2
    30     2     3    2
    31    22    21    1
    32    22    24    1
    33    21    18    1
    34    18    20    1
    35     6     5    2
    36     3     4    2
    37     5     4    1
    38     4     8    2
