@<TRIPOS>MOLECULE
1zdl_NDP_A_1.pdb
 48 52 0 0 0
SMALL
GASTEIGER

@<TRIPOS>ATOM
      1  PA        -7.0150   61.4210   -9.3750 P.3   700  NDP700      0.2189
      2  O1A       -7.7550   61.6640   -8.1250 O.3   700  NDP700     -0.4371
      3  O2A       -7.4740   60.8300  -10.6380 O.2   700  NDP700     -0.5170
      4  O5B       -5.8200   62.4710   -9.5310 O.3   700  NDP700     -0.3112
      5  C5B       -4.9610   62.3390  -10.6650 C.3   700  NDP700      0.1813
      6  C4B       -4.3630   63.6970  -11.0640 C.3   700  NDP700      0.1820
      7  O4B       -3.6350   64.3710   -9.9750 O.3   700  NDP700     -0.3136
      8  C3B       -3.3510   63.5830  -12.2060 C.3   700  NDP700      0.2157
      9  O3B       -3.3940   64.6310  -13.1290 O.3   700  NDP700     -0.2175
     10  C2B       -2.0840   63.4910  -11.4010 C.3   700  NDP700      0.2314
     11  O2B       -0.8510   63.4240  -12.0480 O.3   700  NDP700     -0.2630
     12  C1B       -2.3180   64.6490  -10.4850 C.3   700  NDP700      0.3158
     13  N9A       -1.3600   64.7490   -9.4140 N.pl3 700  NDP700     -0.1439
     14  C8A       -1.1440   63.8830   -8.3530 C.3   700  NDP700      0.3377
     15  N7A       -0.1740   64.2650   -7.5420 N.2   700  NDP700     -0.2095
     16  C5A        0.2770   65.4580   -8.1040 C.2   700  NDP700      0.2526
     17  C6A        1.3160   66.3880   -7.7220 C.2   700  NDP700      0.4393
     18  N6A        2.0710   66.1840   -6.6300 N.pl3 700  NDP700      0.2180
     19  N1A        1.5090   67.4910   -8.5160 N.2   700  NDP700      0.0021
     20  C2A        0.7150   67.6590   -9.6200 C.3   700  NDP700      0.5254
     21  N3A       -0.2790   66.8610  -10.0690 N.2   700  NDP700     -0.0055
     22  C4A       -0.4450   65.7630   -9.2530 C.2   700  NDP700      0.3518
     23  O3        -7.8580   62.7510   -9.8890 O.3   700  NDP700     -0.2703
     24  PN        -8.6860   64.0590   -9.3730 P.3   700  NDP700      0.2189
     25  O1N       -8.6650   65.0800  -10.4590 O.2   700  NDP700     -0.5170
     26  O2N       -8.1640   64.4710   -8.0520 O.3   700  NDP700     -0.4371
     27  O5D      -10.1940   63.5720   -9.0860 O.3   700  NDP700     -0.3112
     28  C5D      -10.5610   62.7370   -7.9690 C.3   700  NDP700      0.1813
     29  C4D      -11.4550   61.5920   -8.3700 C.3   700  NDP700      0.1799
     30  O4D      -12.8260   62.0050   -8.3370 O.3   700  NDP700     -0.3327
     31  C3D      -11.3300   61.0610   -9.7830 C.3   700  NDP700      0.2158
     32  O3D      -10.2520   60.1770   -9.9590 O.3   700  NDP700     -0.2175
     33  C2D      -12.7110   60.4400   -9.9950 C.3   700  NDP700      0.2309
     34  O2D      -12.7340   59.1680   -9.3800 O.3   700  NDP700     -0.2158
     35  C1D      -13.5570   61.3550   -9.3580 C.3   700  NDP700      0.2263
     36  N1N      -14.1680   62.3880  -10.2630 N.pl3 700  NDP700     -0.2787
     37  C2N      -15.1180   61.9600  -11.1810 C.3   700  NDP700      0.1244
     38  C3N      -15.6340   62.8500  -12.1260 C.2   700  NDP700      0.0544
     39  C7N      -16.6130   62.4110  -13.1800 C.2   700  NDP700      0.2818
     40  O7N      -16.9920   63.2310  -14.0210 O.2   700  NDP700     -0.2670
     41  N7N      -17.1650   61.1920  -13.0550 N.am  700  NDP700     -0.0839
     42  C4N      -15.1980   64.2100  -12.1220 C.2   700  NDP700      0.0033
     43  C5N      -14.2610   64.6370  -11.1750 C.2   700  NDP700      0.0157
     44  C6N      -13.7470   63.7330  -10.2510 C.2   700  NDP700      0.0633
     45  P2B       -0.2200   62.0210  -12.5230 P.3   700  NDP700      0.5328
     46  O1X       -1.2830   61.2440  -13.2970 O.3   700  NDP700     -0.1145
     47  O2X        0.9490   62.5320  -13.3350 O.2   700  NDP700     -0.2224
     48  O3X        0.1990   61.2940  -11.2550 O.3   700  NDP700     -0.1145
@<TRIPOS>BOND
     1    40    39    2
     2    47    45    2
     3    46    45    1
     4    39    41   am
     5    39    38    1
     6     9     8    1
     7    45    11    1
     8    45    48    1
     9     8    10    1
    10     8     6    1
    11    38    42    2
    12    38    37    1
    13    42    43    1
    14    11    10    1
    15    10    12    1
    16    37    36    1
    17    43    44    2
    18     6     5    1
    19     6     7    1
    20     5     4    1
    21     3     1    2
    22    12     7    1
    23    12    13    1
    24    25    24    2
    25    36    44    1
    26    36    35    1
    27    21    20    1
    28    21    22    2
    29    33    31    1
    30    33    34    1
    31    33    35    1
    32    32    31    1
    33    23     1    1
    34    23    24    1
    35    31    29    1
    36    20    19    1
    37     4     1    1
    38    13    22    1
    39    13    14    1
    40     1     2    1
    41    24    27    1
    42    24    26    1
    43    35    30    1
    44    22    16    1
    45    27    28    1
    46    19    17    2
    47    29    30    1
    48    29    28    1
    49    14    15    1
    50    16    17    1
    51    16    15    2
    52    17    18    1
