@<TRIPOS>MOLECULE
1zdp_TIO_E_1.pdb
 17 17 0 0 0
SMALL
GASTEIGER

@<TRIPOS>ATOM
      1  SG1       35.9780   42.5960   -6.6940 S.3   1006  TIO1006    -0.0816
      2  CB1       35.5080   41.9090   -5.0620 C.3   1006  TIO1006     0.0781
      3  CA1       36.5470   42.3690   -4.0240 C.3   1006  TIO1006     0.0941
      4  C         37.9330   41.6360   -3.8810 C.2   1006  TIO1006     0.2426
      5  O         39.0790   42.2020   -3.8060 O.2   1006  TIO1006    -0.2733
      6  CB2       35.7210   42.1760   -2.7970 C.3   1006  TIO1006     0.0364
      7  CG2       36.5990   42.7150   -1.7360 C.ar  1006  TIO1006    -0.0217
      8  CD1       37.1950   43.9660   -1.9310 C.ar  1006  TIO1006    -0.0043
      9  CD2       36.7960   41.9440   -0.5910 C.ar  1006  TIO1006    -0.0043
     10  CE1       38.0200   44.4970   -0.9440 C.ar  1006  TIO1006    -0.0003
     11  CE2       37.6440   42.4630    0.3870 C.ar  1006  TIO1006    -0.0003
     12  CZ        38.2130   43.7310    0.2110 C.ar  1006  TIO1006    -0.0000
     13  N         37.7820   40.3140   -3.8400 N.am  1006  TIO1006    -0.1931
     14  CA2       38.8530   39.2870   -3.7720 C.3   1006  TIO1006     0.2284
     15  C1        38.6030   38.3270   -4.9870 C.2   1006  TIO1006     0.3865
     16  O1        37.4440   38.2600   -5.5230 O.co2 1006  TIO1006    -0.2437
     17  OH        39.5470   37.6070   -5.4400 O.co2 1006  TIO1006    -0.2437
@<TRIPOS>BOND
     1     1     2    1
     2    16    15   ar
     3    17    15   ar
     4     2     3    1
     5    15    14    1
     6     3     4    1
     7     3     6    1
     8     4    13   am
     9     4     5    2
    10    13    14    1
    11     6     7    1
    12     8     7   ar
    13     8    10   ar
    14     7     9   ar
    15    10    12   ar
    16     9    11   ar
    17    12    11   ar
