@<TRIPOS>MOLECULE
1zdt_PEF_A_1.pdb
 47 46 0 0 0
SMALL
GASTEIGER

@<TRIPOS>ATOM
      1  C2       -11.3560    7.9400   87.0740 C.3   1001  PEF1001     0.2420
      2  C1       -12.4420    8.8040   87.6670 C.3   1001  PEF1001     0.1964
      3  N        -16.7060   11.3880   89.8800 N.2   1001  PEF1001    -0.1487
      4  C3       -11.9420    7.1450   85.9120 C.3   1001  PEF1001     0.2543
      5  C4       -15.5940   10.4950   87.9250 C.3   1001  PEF1001     0.1976
      6  C5       -16.2510   10.3610   89.2900 C.2   1001  PEF1001     0.1284
      7  C10       -8.9670    8.4550   86.8200 C.2   1001  PEF1001     0.3171
      8  C11       -7.9500    9.3590   86.1880 C.3   1001  PEF1001     0.1096
      9  C12       -6.7930    9.5620   87.1400 C.3   1001  PEF1001     0.0116
     10  C13       -5.7310   10.4410   86.5060 C.3   1001  PEF1001     0.0006
     11  C14       -4.8920   11.0070   87.6270 C.3   1001  PEF1001     0.0000
     12  C15       -3.6580   11.7530   87.1820 C.3   1001  PEF1001     0.0003
     13  C16       -3.9920   13.1770   86.8470 C.3   1001  PEF1001     0.0047
     14  C17       -3.6070   13.4120   85.4010 C.3   1001  PEF1001     0.0257
     15  C18       -4.2230   14.6910   84.8280 C.2   1001  PEF1001    -0.0307
     16  C19       -5.0680   14.6260   83.6850 C.2   1001  PEF1001    -0.0307
     17  C20       -5.3490   13.2470   83.1190 C.3   1001  PEF1001     0.0257
     18  C21       -5.9510   13.2870   81.7370 C.3   1001  PEF1001     0.0047
     19  C22       -4.8980   13.0370   80.7000 C.3   1001  PEF1001     0.0003
     20  C23       -5.5050   12.5370   79.4060 C.3   1001  PEF1001     0.0000
     21  C24       -4.4930   12.8180   78.3290 C.3   1001  PEF1001     0.0000
     22  C25       -4.4250   14.2970   77.9660 C.3   1001  PEF1001     0.0000
     23  C30      -10.7590    5.8400   84.1110 C.2   1001  PEF1001     0.3171
     24  C31       -9.3770    5.3220   83.6890 C.3   1001  PEF1001     0.1096
     25  C32       -8.5020    6.5220   83.3040 C.3   1001  PEF1001     0.0116
     26  C33       -6.9880    6.3060   83.2570 C.3   1001  PEF1001     0.0006
     27  C34       -6.3100    7.4880   82.5300 C.3   1001  PEF1001     0.0000
     28  C35       -4.8760    7.8360   82.9770 C.3   1001  PEF1001     0.0000
     29  C36       -4.1830    8.8600   82.0590 C.3   1001  PEF1001     0.0000
     30  C37       -2.8580    9.3260   82.6860 C.3   1001  PEF1001     0.0000
     31  C38       -1.8820   10.0200   81.7260 C.3   1001  PEF1001     0.0000
     32  C39       -0.8150   10.7530   82.5280 C.3   1001  PEF1001     0.0000
     33  C40       -0.2040   11.9220   81.7820 C.3   1001  PEF1001     0.0003
     34  C41       -1.0530   13.1970   81.6450 C.3   1001  PEF1001     0.0047
     35  C42       -0.7570   14.2030   82.7440 C.3   1001  PEF1001     0.0257
     36  C43       -1.2070   15.5930   82.3710 C.2   1001  PEF1001    -0.0307
     37  C44       -1.0570   16.5560   83.2890 C.2   1001  PEF1001    -0.0304
     38  C45       -1.4590   18.0040   83.0720 C.3   1001  PEF1001     0.0303
     39  O4        -8.6670    7.4960   87.5210 O.2   1001  PEF1001    -0.2501
     40  O5       -11.7190    5.9900   83.3710 O.2   1001  PEF1001    -0.2501
     41  O2       -10.3410    8.7930   86.5620 O.3   1001  PEF1001    -0.4457
     42  O3       -10.9530    6.2160   85.4860 O.3   1001  PEF1001    -0.4444
     43  O1P      -13.8150   11.7040   85.6950 O.2   1001  PEF1001    -0.5172
     44  O2P      -11.9760   11.8490   87.5650 O.3   1001  PEF1001    -0.4373
     45  O3P      -12.8140    9.6920   86.6370 O.3   1001  PEF1001    -0.3100
     46  O4P      -14.3150   11.1300   88.0790 O.3   1001  PEF1001    -0.3074
     47  P        -13.1860   11.1980   86.9460 P.3   1001  PEF1001     0.2145
@<TRIPOS>BOND
     1    22    21    1
     2    21    20    1
     3    20    19    1
     4    19    18    1
     5    34    33    1
     6    34    35    1
     7    31    32    1
     8    31    30    1
     9    18    17    1
    10    33    32    1
    11    29    30    1
    12    29    28    1
    13    36    35    1
    14    36    37    2
    15    27    28    1
    16    27    26    1
    17    38    37    1
    18    17    16    1
    19    26    25    1
    20    25    24    1
    21    40    23    2
    22    16    15    2
    23    24    23    1
    24    23    42    1
    25    15    14    1
    26    14    13    1
    27    42     4    1
    28    43    47    2
    29     4     1    1
    30     8     7    1
    31     8     9    1
    32    10     9    1
    33    10    11    1
    34    41     7    1
    35    41     1    1
    36    45    47    1
    37    45     2    1
    38     7    39    2
    39    13    12    1
    40    47    44    1
    41    47    46    1
    42     1     2    1
    43    12    11    1
    44     5    46    1
    45     5     6    1
    46     6     3    2
