@<TRIPOS>MOLECULE
1zdw_FLV_A_1.pdb
 15 16 0 0 0
SMALL
GASTEIGER

@<TRIPOS>ATOM
      1  OAB       28.9390   28.6150   11.0540 O.2   401  FLV401     -0.2831
      2  CAM       30.0470   28.8780   10.6080 C.2   401  FLV401      0.2346
      3  CAN       30.2130   29.5710    9.2840 C.ar  401  FLV401      0.0516
      4  CAH       29.0290   29.9310    8.5730 C.ar  401  FLV401      0.0456
      5  CAI       29.0910   30.5950    7.3150 C.ar  401  FLV401      0.1990
      6  OAC       27.9370   30.9090    6.6830 O.3   401  FLV401     -0.2865
      7  CAF       30.3890   30.9080    6.7750 C.ar  401  FLV401      0.0841
      8  CAK       31.6320   30.5830    7.4370 C.ar  401  FLV401      0.2020
      9  OAE       32.7860   30.9400    6.8130 O.3   401  FLV401     -0.2864
     10  CAO       31.5530   29.8960    8.7360 C.ar  401  FLV401      0.0813
     11  CAL       32.7860   29.4890    9.5460 C.2   401  FLV401      0.2021
     12  OAA       33.9480   29.7000    9.1940 O.2   401  FLV401     -0.2864
     13  CAG       32.5610   28.7820   10.8730 C.2   401  FLV401      0.0875
     14  CAJ       31.2950   28.4880   11.3750 C.2   401  FLV401      0.2374
     15  OAD       31.1300   27.8610   12.5610 O.2   401  FLV401     -0.2830
@<TRIPOS>BOND
     1     6     5    1
     2     7     5   ar
     3     7     8   ar
     4     9     8    1
     5     5     4   ar
     6     8    10   ar
     7     4     3   ar
     8    10     3   ar
     9    10    11    1
    10    12    11    2
    11     3     2    1
    12    11    13    1
    13     2     1    2
    14     2    14    1
    15    13    14    2
    16    14    15    1
