@<TRIPOS>MOLECULE
1zdw_GST_A_1.pdb
 19 18 0 0 0
SMALL
GASTEIGER

@<TRIPOS>ATOM
      1  PA        20.1480   25.6830    3.9980 P.3   501  GST501      0.5394
      2  O1A       20.7630   24.3070    3.9030 O.3   501  GST501     -0.1143
      3  O2A       20.2760   26.3510    2.6530 O.2   501  GST501     -0.2220
      4  O3A       18.6410   25.2450    4.1100 O.3   501  GST501     -0.1143
      5  O1B       20.5600   26.7540    5.0560 O.3   501  GST501     -0.1955
      6  PB        21.2940   26.4740    6.4210 P.3   501  GST501      0.4270
      7  O2B       20.3210   25.4050    7.0750 O.2   501  GST501     -0.2431
      8  O3B       21.4610   27.8370    7.1080 O.3   501  GST501     -0.1310
      9  S1        22.8430   25.8790    6.5620 S.3   501  GST501     -0.0285
     10  C1        23.9900   26.7110    6.8490 C.3   501  GST501      0.0690
     11  C2        24.6110   26.4980    8.2130 C.3   501  GST501      0.0122
     12  C3        25.8940   26.0950    8.4060 C.3   501  GST501      0.0009
     13  C10       27.0880   26.9290    7.8840 C.3   501  GST501      0.0000
     14  C4        26.1180   24.7810    9.1380 C.3   501  GST501      0.0000
     15  C5        27.2720   24.7880   10.1650 C.3   501  GST501      0.0000
     16  C6        28.4120   23.7870    9.8590 C.3   501  GST501      0.0000
     17  C7        29.4270   23.3420   10.6680 C.3   501  GST501      0.0000
     18  C9        30.5380   24.3280   11.0740 C.3   501  GST501      0.0000
     19  C8        29.4750   21.8810   11.1800 C.3   501  GST501      0.0000
@<TRIPOS>BOND
     1     3     1    2
     2     2     1    1
     3     1     4    1
     4     1     5    1
     5     5     6    1
     6     6     9    1
     7     6     7    2
     8     6     8    1
     9     9    10    1
    10    10    11    1
    11    13    12    1
    12    11    12    1
    13    12    14    1
    14    14    15    1
    15    16    15    1
    16    16    17    1
    17    17    18    1
    18    17    19    1
