@<TRIPOS>MOLECULE
1zdy_T3A_A_1.pdb
 15 14 0 0 0
SMALL
GASTEIGER

@<TRIPOS>ATOM
      1  S1        12.3540   29.2220    0.9200 S.3   501  T3A501     -0.1960
      2  O1        11.1010   28.3300    0.5920 O.3   501  T3A501     -0.3075
      3  O2        12.7580   30.0520   -0.2340 O.3   501  T3A501     -0.3075
      4  O3        12.0220   29.9790    2.1510 O.3   501  T3A501     -0.3075
      5  C1        13.5870   27.8430    1.2740 C.3   501  T3A501      0.1067
      6  C2        14.4390   28.0530    2.4910 C.3   501  T3A501      0.0403
      7  C3        14.1380   27.1860    3.7080 C.3   501  T3A501      0.0906
      8  N1        15.2900   26.6940    4.4360 N.3   501  T3A501     -0.2130
      9  C4        15.6730   26.4470    5.8330 C.3   501  T3A501      0.1507
     10  C5        15.5390   27.6930    6.4870 C.3   501  T3A501      0.2031
     11  O5        14.7770   28.2350    7.4480 O.3   501  T3A501     -0.2187
     12  C6        16.9830   26.0110    5.7340 C.3   501  T3A501      0.2031
     13  O6        18.1540   26.4760    5.2740 O.3   501  T3A501     -0.2187
     14  C7        14.7820   25.4440    6.2630 C.3   501  T3A501      0.2031
     15  O7        13.4670   25.2770    6.5290 O.3   501  T3A501     -0.2187
@<TRIPOS>BOND
     1     3     1    1
     2     2     1    1
     3     1     5    1
     4     1     4    1
     5     5     6    1
     6     6     7    1
     7     7     8    1
     8     8     9    1
     9    13    12    1
    10    12     9    1
    11     9    14    1
    12     9    10    1
    13    14    15    1
    14    10    11    1
