@<TRIPOS>MOLECULE
1ze8_HGB_A_1.pdb
 10 10 0 0 0
SMALL
GASTEIGER

@<TRIPOS>ATOM
      1  C1        -0.1070   12.7750   30.0860 C.2   262  HGB262      0.0000
      2  C3        -0.9220   10.9220   28.5930 C.ar  262  HGB262      0.0000
      3  C5        -1.3460   10.4610   27.3110 C.ar  262  HGB262      0.0000
      4  C7        -1.3820   11.3460   26.2200 C.ar  262  HGB262      0.0000
      5 HG         -1.9980   10.7780   24.3400 Hg    262  HGB262      0.0000
      6  C6        -0.9970   12.7140   26.4070 C.ar  262  HGB262      0.0000
      7  C4        -0.5810   13.1540   27.6730 C.ar  262  HGB262      0.0000
      8  O1         0.2260   13.9460   30.2460 O.co2 262  HGB262      0.0000
      9  O2        -0.0640   12.0150   31.0730 O.co2 262  HGB262      0.0000
     10  C2        -0.5450   12.2790   28.7760 C.ar  262  HGB262      0.0000
@<TRIPOS>BOND
     1     5     4    1
     2     4     6   ar
     3     4     3   ar
     4     6     7   ar
     5     3     2   ar
     6     7    10   ar
     7     2    10   ar
     8    10     1    1
     9     1     8   ar
    10     1     9   ar
