@<TRIPOS>MOLECULE
1ze8_PIU_A_1.pdb
 21 22 0 0 0
SMALL
GASTEIGER

@<TRIPOS>ATOM
      1  S1        -5.9260    1.0470   16.7310 S.O2    1  PIU1        0.0935
      2  O1        -5.3180    1.1370   18.0510 O.2     1  PIU1       -0.1503
      3  O2        -7.3600    0.9510   16.6220 O.2     1  PIU1       -0.1503
      4  N1        -5.3200   -0.2510   16.0540 N.3     1  PIU1        0.0392
      5  C1        -5.8730    4.8280   15.0170 C.ar    1  PIU1       -0.0028
      6  C3        -3.6230    3.8390   14.6280 C.ar    1  PIU1       -0.0028
      7  C4        -4.0530    2.6260   15.2880 C.ar    1  PIU1        0.0197
      8  C6        -6.2930    3.6320   15.6680 C.ar    1  PIU1        0.0197
      9  C2        -4.5470    4.9360   14.4970 C.ar    1  PIU1       -0.0204
     10  C5        -5.3920    2.5250   15.8040 C.ar    1  PIU1        0.1250
     11  C15       -4.1220    6.2180   13.8160 C.3     1  PIU1        0.0477
     12  C16       -4.6140    6.3900   12.3810 C.3     1  PIU1        0.0954
     13  N2        -4.6250    7.8330   11.9070 N.pl3   1  PIU1       -0.3083
     14  C7        -3.4390    9.8460   11.0770 C.2     1  PIU1        0.0056
     15  C9        -5.9160    9.8620   11.3380 C.2     1  PIU1       -0.0110
     16  C10       -5.8850    8.5230   11.8050 C.3     1  PIU1        0.0945
     17  C11       -3.3930    8.5010   11.5400 C.2     1  PIU1        0.0251
     18  C8        -4.6990   10.5110   10.9830 C.2     1  PIU1       -0.0236
     19  C12       -4.7510   11.9400   10.5330 C.3     1  PIU1        0.0308
     20  C13       -1.9930    7.9110   11.5970 C.3     1  PIU1        0.0471
     21  C14       -7.2290    7.9440   12.1830 C.3     1  PIU1        0.0263
@<TRIPOS>BOND
     1    19    18    1
     2    18    14    1
     3    18    15    2
     4    14    17    2
     5    15    16    1
     6    17    20    1
     7    17    13    1
     8    16    13    1
     9    16    21    1
    10    13    12    1
    11    12    11    1
    12    11     9    1
    13     9     6   ar
    14     9     5   ar
    15     6     7   ar
    16     5     8   ar
    17     7    10   ar
    18     8    10   ar
    19    10     1    1
    20     4     1    1
    21     3     1    2
    22     1     2    2
