@<TRIPOS>MOLECULE
1zed_PNP_A_1.pdb
 14 14 0 0 0
SMALL
GASTEIGER

@<TRIPOS>ATOM
      1  C1        31.7020    8.9500   12.4180 C.ar  901  PNP901      0.1469
      2  C2        31.7020    9.5810   11.1510 C.ar  901  PNP901      0.0391
      3  C3        32.2530   10.8680   11.0090 C.ar  901  PNP901      0.0272
      4  C4        32.8070   11.5390   12.1440 C.ar  901  PNP901      0.1431
      5  C5        32.8010   10.8870   13.4080 C.ar  901  PNP901      0.0272
      6  C6        32.2460    9.5900   13.5420 C.ar  901  PNP901      0.0391
      7  CM        32.7970    5.7260   12.5970 C.3   901  PNP901      0.1453
      8  N         33.3510   12.8650   12.0250 N.pl3 901  PNP901      0.0577
      9  O1N       32.8550   13.6510   10.9880 O.2   901  PNP901     -0.1261
     10  O2N       34.3490   13.2150   12.9590 O.2   901  PNP901     -0.1261
     11  P         31.4760    6.0640   12.1320 P.3   901  PNP901      0.4182
     12  O1P       31.1460    7.4750   12.5940 O.3   901  PNP901     -0.4208
     13  O2P       31.4450    6.0290   10.7070 O.2   901  PNP901     -0.2410
     14  O3P       30.4570    5.2290   12.6410 O.3   901  PNP901     -0.1296
@<TRIPOS>BOND
     1    13    11    2
     2     9     8    2
     3     3     2   ar
     4     3     4   ar
     5     2     1   ar
     6     8     4    1
     7     8    10    2
     8    11    12    1
     9    11     7    1
    10    11    14    1
    11     4     5   ar
    12     1    12    1
    13     1     6   ar
    14     5     6   ar
