@<TRIPOS>MOLECULE
1zef_PHE_A_1.pdb
 12 12 0 0 0
SMALL
GASTEIGER

@<TRIPOS>ATOM
      1  N         36.9230   14.2540   10.7910 N.3   802  PHE802     -0.1205
      2  CA        37.3760   12.9290   10.6770 C.3   802  PHE802      0.1986
      3  C         37.7300   12.5360    9.2350 C.2   802  PHE802      0.3822
      4  O         38.9270   12.5330    8.8910 O.co2 802  PHE802     -0.2440
      5  CB        36.4740   11.8250   11.3570 C.3   802  PHE802      0.0569
      6  CG        35.0150   12.1540   11.5850 C.ar  802  PHE802     -0.0202
      7  CD1       34.2560   11.2430   12.2980 C.ar  802  PHE802     -0.0042
      8  CD2       34.3880   13.2820   11.1300 C.ar  802  PHE802     -0.0042
      9  CE1       32.9240   11.4540   12.5520 C.ar  802  PHE802     -0.0003
     10  CE2       33.0270   13.4830   11.3750 C.ar  802  PHE802     -0.0003
     11  CZ        32.3080   12.5670   12.0810 C.ar  802  PHE802     -0.0000
     12  OXT       36.9410   12.7230    8.2950 O.co2 802  PHE802     -0.2440
@<TRIPOS>BOND
     1    12     3   ar
     2     4     3   ar
     3     3     2    1
     4     2     1    1
     5     2     5    1
     6     8    10   ar
     7     8     6   ar
     8     5     6    1
     9    10    11   ar
    10     6     7   ar
    11    11     9   ar
    12     7     9   ar
