@<TRIPOS>MOLECULE
1zem_NAD_A_1.pdb
 44 48 0 0 0
SMALL
GASTEIGER

@<TRIPOS>ATOM
      1  PA        33.8870   40.4370  108.4980 P.3   2263  NAD2263     0.2189
      2  O1A       33.7090   41.0590  109.7610 O.3   2263  NAD2263    -0.4371
      3  O2A       33.1350   41.1990  107.4220 O.2   2263  NAD2263    -0.5170
      4  O5B       33.3240   38.9450  108.5360 O.3   2263  NAD2263    -0.3112
      5  C5B       33.6270   38.0350  109.6180 C.3   2263  NAD2263     0.1813
      6  C4B       32.2090   37.3830  109.7360 C.3   2263  NAD2263     0.1821
      7  O4B       32.2620   36.2800  110.7540 O.3   2263  NAD2263    -0.3135
      8  C3B       31.0700   38.3290  110.2890 C.3   2263  NAD2263     0.2184
      9  O3B       29.9100   38.1090  109.4890 O.3   2263  NAD2263    -0.2174
     10  C2B       30.9340   37.9130  111.7710 C.3   2263  NAD2263     0.2570
     11  O2B       29.6520   38.1490  112.3690 O.3   2263  NAD2263    -0.2130
     12  C1B       31.2490   36.4020  111.7330 C.3   2263  NAD2263     0.3186
     13  N9A       31.6200   35.9160  113.0650 N.pl3 2263  NAD2263    -0.1439
     14  C8A       32.4310   36.4400  114.0650 C.3   2263  NAD2263     0.3377
     15  N7A       32.3990   35.7350  115.2190 N.2   2263  NAD2263    -0.2095
     16  C5A       31.5240   34.6920  114.9370 C.2   2263  NAD2263     0.2526
     17  C6A       31.0740   33.6100  115.7670 C.2   2263  NAD2263     0.4393
     18  N6A       31.4060   33.3700  117.0250 N.pl3 2263  NAD2263     0.2180
     19  N1A       30.1690   32.6960  115.2010 N.2   2263  NAD2263     0.0021
     20  C2A       29.7410   32.8460  113.8680 C.3   2263  NAD2263     0.5254
     21  N3A       30.1550   33.8850  113.0230 N.2   2263  NAD2263    -0.0055
     22  C4A       31.0490   34.7900  113.6050 C.2   2263  NAD2263     0.3518
     23  O3        35.3990   40.4240  108.1700 O.3   2263  NAD2263    -0.2703
     24  PN        36.1920   39.7600  107.0200 P.3   2263  NAD2263     0.2189
     25  O1N       35.2690   39.0040  106.1120 O.2   2263  NAD2263    -0.5170
     26  O2N       37.2730   40.3140  106.3300 O.3   2263  NAD2263    -0.4371
     27  O5D       36.7290   38.3200  107.6320 O.3   2263  NAD2263    -0.3112
     28  C5D       36.7500   37.0370  106.9250 C.3   2263  NAD2263     0.1813
     29  C4D       37.8790   36.2020  107.4990 C.3   2263  NAD2263     0.1799
     30  O4D       39.1110   36.6080  106.8710 O.3   2263  NAD2263    -0.3327
     31  C3D       38.1780   36.3450  109.0420 C.3   2263  NAD2263     0.2158
     32  O3D       38.6310   35.0580  109.5620 O.3   2263  NAD2263    -0.2175
     33  C2D       39.2500   37.3900  109.0560 C.3   2263  NAD2263     0.2309
     34  O2D       39.9710   37.4610  110.2740 O.3   2263  NAD2263    -0.2158
     35  C1D       40.0800   36.9510  107.9110 C.3   2263  NAD2263     0.2263
     36  N1N       40.9430   37.9820  107.3080 N.pl3 2263  NAD2263    -0.2787
     37  C2N       40.4650   39.2180  106.8530 C.3   2263  NAD2263     0.1244
     38  C3N       41.3730   40.1310  106.3240 C.2   2263  NAD2263     0.0544
     39  C7N       40.8510   41.4800  105.8320 C.2   2263  NAD2263     0.2818
     40  O7N       41.6800   42.2480  105.4180 O.2   2263  NAD2263    -0.2670
     41  N7N       39.5690   41.7780  105.8780 N.am  2263  NAD2263    -0.0839
     42  C4N       42.8200   39.8350  106.2350 C.2   2263  NAD2263     0.0033
     43  C5N       43.2490   38.5490  106.7080 C.2   2263  NAD2263     0.0157
     44  C6N       42.3190   37.6070  107.2460 C.2   2263  NAD2263     0.0633
@<TRIPOS>BOND
     1    40    39    2
     2    39    41   am
     3    39    38    1
     4    25    24    2
     5    42    38    2
     6    42    43    1
     7    38    37    1
     8    26    24    1
     9    43    44    2
    10    37    36    1
    11    30    29    1
    12    30    35    1
    13    28    29    1
    14    28    27    1
    15    24    27    1
    16    24    23    1
    17    44    36    1
    18    36    35    1
    19     3     1    2
    20    29    31    1
    21    35    33    1
    22    23     1    1
    23     1     4    1
    24     1     2    1
    25     4     5    1
    26    31    33    1
    27    31    32    1
    28    33    34    1
    29     9     8    1
    30     5     6    1
    31     6     8    1
    32     6     7    1
    33     8    10    1
    34     7    12    1
    35    12    10    1
    36    12    13    1
    37    10    11    1
    38    21    22    2
    39    21    20    1
    40    13    22    1
    41    13    14    1
    42    22    16    1
    43    20    19    1
    44    14    15    1
    45    16    15    2
    46    16    17    1
    47    19    17    2
    48    17    18    1
