@<TRIPOS>MOLECULE
1zeo_C01_A_1.pdb
 31 33 0 0 0
SMALL
GASTEIGER

@<TRIPOS>ATOM
      1  C1        21.3430    6.1890   14.8940 C.ar  478  C01478      0.0118
      2  C2        21.3070    7.0550   16.0460 C.ar  478  C01478      0.1346
      3  C3        21.9410    8.3830   15.9580 C.ar  478  C01478      0.0486
      4  C4        22.5680    8.7370   14.6910 C.ar  478  C01478      0.1765
      5  C5        22.5670    7.8480   13.6040 C.ar  478  C01478      0.0952
      6  C6        21.9860    6.5990   13.6840 C.ar  478  C01478      0.0067
      7  O8        23.2480    9.9190   14.3110 O.2   478  C01478     -0.3727
      8  N9        23.6510    9.6700   12.9390 N.ar  478  C01478     -0.1562
      9  C10       23.2820    8.4460   12.4820 C.ar  478  C01478      0.2917
     10  C11       24.4030   10.6080   12.0960 C.3   478  C01478      0.1760
     11  O15       23.4970    7.9900   11.3540 O.2   478  C01478     -0.2642
     12  C16       21.9780    9.3750   17.1350 C.3   478  C01478      0.0326
     13  C17       20.7540   10.2820   17.3190 C.3   478  C01478      0.0049
     14  C20       20.9100   11.1900   18.5310 C.3   478  C01478      0.0004
     15  C26       20.7370    4.8170   14.8990 C.3   478  C01478      0.0294
     16  C27       19.6800    4.6890   13.8080 C.3   478  C01478      0.0048
     17  C30       19.0930    3.2910   13.7840 C.3   478  C01478      0.0004
     18  O36       20.6650    6.5880   17.2540 O.3   478  C01478     -0.4637
     19  C37       19.3930    7.1510   17.6720 C.3   478  C01478      0.2899
     20  C38       18.2420    6.5980   16.8450 C.ar  478  C01478      0.0283
     21  C39       19.1490    6.9320   19.2070 C.2   478  C01478      0.4084
     22  C40       17.5740    7.4790   15.9720 C.ar  478  C01478     -0.0006
     23  C41       16.5110    7.0470   15.1610 C.ar  478  C01478     -0.0045
     24  C42       16.0550    5.7120   15.1910 C.ar  478  C01478     -0.0225
     25  C43       16.7210    4.7930   16.0770 C.ar  478  C01478     -0.0045
     26  C44       17.8040    5.2270   16.9060 C.ar  478  C01478     -0.0006
     27  C49       14.8870    5.3210   14.2770 C.3   478  C01478      0.0224
     28  C50       15.3640    4.6130   13.0080 C.3   478  C01478      0.0047
     29  C54       13.8470    4.4720   15.0330 C.3   478  C01478      0.0047
     30  O60       18.0930    7.0170   19.7520 O.co2 478  C01478     -0.2412
     31  O61       20.2780    6.6580   19.8770 O.co2 478  C01478     -0.2412
@<TRIPOS>BOND
     1    11     9    2
     2    10     8    1
     3     9     8   ar
     4     9     5   ar
     5     8     7   ar
     6    28    27    1
     7     5     6   ar
     8     5     4   ar
     9     6     1   ar
    10    17    16    1
    11    16    15    1
    12    27    29    1
    13    27    24    1
    14     7     4   ar
    15     4     3   ar
    16     1    15    1
    17     1     2   ar
    18    23    24   ar
    19    23    22   ar
    20    24    25   ar
    21     3     2   ar
    22     3    12    1
    23    22    20   ar
    24     2    18    1
    25    25    26   ar
    26    20    26   ar
    27    20    19    1
    28    12    13    1
    29    18    19    1
    30    13    14    1
    31    19    21    1
    32    21    30   ar
    33    21    31   ar
