@<TRIPOS>MOLECULE
1zet_TTP_A_1.pdb
 29 30 0 0 0
SMALL
GASTEIGER

@<TRIPOS>ATOM
      1  PA        52.7110   63.0420  -15.6000 P.3   451  TTP451      0.2189
      2  O1A       53.6090   63.6690  -14.8440 O.2   451  TTP451     -0.5170
      3  O2A       51.8690   62.3160  -14.5170 O.3   451  TTP451     -0.4371
      4  O3A       51.7150   64.0770  -16.4920 O.3   451  TTP451     -0.2700
      5  PB        51.8250   65.7470  -16.4330 P.3   451  TTP451      0.2277
      6  O1B       51.1280   66.2000  -17.7510 O.2   451  TTP451     -0.5168
      7  O2B       53.3030   66.2690  -16.4900 O.3   451  TTP451     -0.4368
      8  O3B       51.0060   66.3670  -15.1030 O.3   451  TTP451     -0.2258
      9  PG        51.5850   67.4080  -13.9240 P.3   451  TTP451      0.5373
     10  O1G       52.8820   66.8250  -13.2590 O.3   451  TTP451     -0.1143
     11  O2G       50.4590   67.5420  -12.8620 O.3   451  TTP451     -0.1143
     12  O3G       51.9140   68.8100  -14.5060 O.2   451  TTP451     -0.2221
     13  O5'       53.3380   62.3560  -16.6520 O.3   451  TTP451     -0.3112
     14  C5'       54.2180   63.1210  -17.7740 C.3   451  TTP451      0.1812
     15  C4'       53.8650   62.9430  -19.2540 C.3   451  TTP451      0.1773
     16  O4'       53.7920   61.5930  -19.7150 O.3   451  TTP451     -0.3342
     17  C3'       52.5490   63.6380  -19.5450 C.3   451  TTP451      0.1857
     18  O3'       52.9020   64.7480  -20.3500 O.3   451  TTP451     -0.2203
     19  C2'       51.6570   62.6230  -20.2300 C.3   451  TTP451      0.0871
     20  C1'       52.5140   61.3610  -20.3030 C.3   451  TTP451      0.2052
     21  N1        51.6700   60.2270  -19.5450 N.am  451  TTP451     -0.1977
     22  C2        50.9740   59.2890  -20.4030 C.1   451  TTP451      0.2807
     23  O2        51.0060   59.3330  -21.6330 O.2   451  TTP451     -0.1922
     24  N3        50.2160   58.2670  -19.9060 N.2   451  TTP451     -0.2457
     25  C4        50.0730   58.0740  -18.5430 C.1   451  TTP451      0.2138
     26  O4        49.3030   57.0330  -18.2080 O.2   451  TTP451     -0.2088
     27  C5        50.7430   58.9820  -17.5710 C.2   451  TTP451      0.0940
     28  C5M       50.6640   58.8770  -16.5910 C.2   451  TTP451      0.0105
     29  C6        51.5200   60.0260  -18.1630 C.3   451  TTP451      0.1450
@<TRIPOS>BOND
     1    23    22    2
     2    22    24    2
     3    22    21   am
     4    18    17    1
     5    20    19    1
     6    20    16    1
     7    20    21    1
     8    19    17    1
     9    24    25    2
    10    16    15    1
    11    21    29    1
    12    17    15    1
    13    15    14    1
    14    25    26    2
    15    25    27    1
    16    29    27    1
    17    14    13    1
    18     6     5    2
    19    27    28    2
    20    13     1    1
    21     4     5    1
    22     4     1    1
    23     7     5    1
    24     5     8    1
    25     1     2    2
    26     1     3    1
    27     8     9    1
    28    12     9    2
    29     9    10    1
    30     9    11    1
