@<TRIPOS>MOLECULE
1zfj_IMP_A_1.pdb
 23 25 0 0 0
SMALL
GASTEIGER

@<TRIPOS>ATOM
      1  P         96.8550   67.4840   18.1450 P.3   500  IMP500      0.5327
      2  O1P       96.5670   66.9580   16.7640 O.2   500  IMP500     -0.2224
      3  O2P       97.8310   68.6430   18.1070 O.3   500  IMP500     -0.1145
      4  O3P       95.6300   67.8480   18.9260 O.3   500  IMP500     -0.1145
      5  O5'       97.5760   66.3480   19.0980 O.3   500  IMP500     -0.2675
      6  C5'       96.9060   65.1020   19.3790 C.3   500  IMP500      0.1860
      7  C4'       97.7250   64.1880   20.3140 C.3   500  IMP500      0.1823
      8  O4'       96.8490   63.0560   20.5100 O.3   500  IMP500     -0.3135
      9  C3'       99.1280   63.6150   19.8960 C.3   500  IMP500      0.2184
     10  O3'      100.2830   64.1650   20.5660 O.3   500  IMP500     -0.2174
     11  C2'       99.0630   62.1380   20.4010 C.3   500  IMP500      0.2570
     12  O2'       99.4590   61.9620   21.7770 O.3   500  IMP500     -0.2130
     13  C1'       97.5680   61.8200   20.3910 C.3   500  IMP500      0.3186
     14  N9        97.1720   60.9520   19.1870 N.pl3 500  IMP500     -0.1435
     15  C8        97.7690   60.7620   17.9340 C.3   500  IMP500      0.3382
     16  N7        96.9600   59.8110   17.1950 N.2   500  IMP500     -0.2054
     17  C5        95.9030   59.4890   18.0920 C.2   500  IMP500      0.2446
     18  C6        94.7740   58.5480   17.8510 C.1   500  IMP500      0.1792
     19  O6        94.5200   57.8680   16.8520 O.2   500  IMP500     -0.2203
     20  N1        93.9590   58.5210   18.9940 N.2   500  IMP500     -0.1458
     21  C2        94.1550   59.2560   20.1900 C.3   500  IMP500      0.4017
     22  N3        95.1820   60.0670   20.3130 N.2   500  IMP500     -0.0334
     23  C4        96.0160   60.1500   19.2590 C.2   500  IMP500      0.3528
@<TRIPOS>BOND
     1     2     1    2
     2    19    18    2
     3    16    15    1
     4    16    17    2
     5    18    17    1
     6    18    20    2
     7    15    14    1
     8    17    23    1
     9     3     1    1
    10     1     4    1
    11     1     5    1
    12    20    21    1
    13     5     6    1
    14    14    23    1
    15    14    13    1
    16    23    22    2
    17     6     7    1
    18     9     7    1
    19     9    11    1
    20     9    10    1
    21    21    22    1
    22     7     8    1
    23    13    11    1
    24    13     8    1
    25    11    12    1
