@<TRIPOS>MOLECULE
1zfk_NR2_A_1.pdb
 24 25 0 0 0
SMALL
GASTEIGER

@<TRIPOS>ATOM
      1  S1        15.3260    2.6930   16.8080 S.O2  1400  NR21400     0.0935
      2  N24       15.8140    1.4320   16.1690 N.3   1400  NR21400     0.0392
      3  O23       13.8840    2.7660   16.6740 O.2   1400  NR21400    -0.1503
      4  O22       15.8670    2.8480   18.1570 O.2   1400  NR21400    -0.1503
      5  C2        16.0050    4.0270   15.8870 C.ar  1400  NR21400     0.1251
      6  C7        15.0780    5.0080   15.4720 C.ar  1400  NR21400     0.0213
      7  C6        15.4930    6.1140   14.7390 C.ar  1400  NR21400     0.0180
      8  C5        16.8410    6.2730   14.3990 C.ar  1400  NR21400     0.0751
      9  N8        17.1920    7.4120   13.6450 N.am  1400  NR21400    -0.1596
     10  C9        18.4190    7.7630   13.2110 C.2   1400  NR21400     0.3646
     11  O13       19.4390    7.1170   13.4110 O.2   1400  NR21400    -0.2471
     12  N10       18.4470    8.9120   12.5130 N.am  1400  NR21400    -0.0398
     13  S11       19.5890    9.4400   11.6970 S.O2  1400  NR21400     0.0967
     14  O15       20.5580    8.4430   11.3160 O.2   1400  NR21400    -0.1482
     15  O14       19.0170   10.2960   10.6640 O.2   1400  NR21400    -0.1482
     16  C12       20.3370   10.4740   12.9200 C.ar  1400  NR21400     0.1272
     17  C20       21.7280   10.4020   13.0850 C.ar  1400  NR21400     0.0199
     18  C19       22.3430   11.2100   14.0450 C.ar  1400  NR21400    -0.0029
     19  C18       21.5680   12.0710   14.8240 C.ar  1400  NR21400    -0.0218
     20  C21       22.2280   12.9570   15.8690 C.3   1400  NR21400     0.0310
     21  C17       20.1890   12.1340   14.6520 C.ar  1400  NR21400    -0.0029
     22  C16       19.5730   11.3310   13.6950 C.ar  1400  NR21400     0.0199
     23  C4        17.7530    5.2980   14.8040 C.ar  1400  NR21400     0.0180
     24  C3        17.3440    4.1790   15.5490 C.ar  1400  NR21400     0.0213
@<TRIPOS>BOND
     1    15    13    2
     2    14    13    2
     3    13    12    1
     4    13    16    1
     5    12    10   am
     6    16    17   ar
     7    16    22   ar
     8    17    18   ar
     9    10    11    2
    10    10     9   am
    11     9     8    1
    12    22    21   ar
    13    18    19   ar
    14     8     7   ar
    15     8    23   ar
    16    21    19   ar
    17     7     6   ar
    18    23    24   ar
    19    19    20    1
    20     6     5   ar
    21    24     5   ar
    22     5     1    1
    23     2     1    1
    24     3     1    2
    25     1     4    2
