@<TRIPOS>MOLECULE
1zfn_ATP_A_1.pdb
 31 33 0 0 0
SMALL
GASTEIGER

@<TRIPOS>ATOM
      1  PG       -69.7510  170.6960   20.0050 P.3   253  ATP253      0.5373
      2  O1G      -69.1510  169.4930   19.5400 O.2   253  ATP253     -0.2221
      3  O2G      -71.3070  170.8890   19.9870 O.3   253  ATP253     -0.1143
      4  O3G      -69.0410  170.8230   21.3170 O.3   253  ATP253     -0.1143
      5  PB       -68.2480  172.0970   17.9760 P.3   253  ATP253      0.2277
      6  O1B      -66.8870  171.5020   18.0450 O.3   253  ATP253     -0.4368
      7  O2B      -68.6730  172.6300   16.6510 O.2   253  ATP253     -0.5168
      8  O3B      -69.2980  171.9500   19.1410 O.3   253  ATP253     -0.2258
      9  PA       -66.7690  174.2940   19.1760 P.3   253  ATP253      0.2189
     10  O1A      -67.0820  175.6490   19.2940 O.2   253  ATP253     -0.5170
     11  O2A      -65.9320  173.6130   20.2730 O.3   253  ATP253     -0.4371
     12  O3A      -68.1180  173.6030   18.6180 O.3   253  ATP253     -0.2700
     13  O5'      -66.0190  174.0640   17.8230 O.3   253  ATP253     -0.3112
     14  C5'      -65.0480  174.8330   17.2860 C.3   253  ATP253      0.1813
     15  C4'      -64.8660  174.5920   15.7740 C.3   253  ATP253      0.1821
     16  O4'      -63.6160  174.3520   15.2150 O.3   253  ATP253     -0.3135
     17  C3'      -65.8580  173.5140   15.1190 C.3   253  ATP253      0.2184
     18  O3'      -66.8540  174.0450   14.2770 O.3   253  ATP253     -0.2174
     19  C2'      -64.8120  172.5310   14.6820 C.3   253  ATP253      0.2570
     20  O2'      -65.3700  171.8340   13.6080 O.3   253  ATP253     -0.2130
     21  C1'      -63.6650  173.3410   14.2660 C.3   253  ATP253      0.3186
     22  N9       -62.3400  172.7040   14.2410 N.pl3 253  ATP253     -0.1439
     23  C8       -61.7460  171.8820   15.1630 C.3   253  ATP253      0.3377
     24  N7       -60.5100  171.5360   14.7520 N.2   253  ATP253     -0.2095
     25  C5       -60.2990  172.1380   13.5540 C.2   253  ATP253      0.2526
     26  C6       -59.1970  172.1430   12.6480 C.2   253  ATP253      0.4393
     27  N6       -58.0360  171.5290   12.8430 N.pl3 253  ATP253      0.2180
     28  N1       -59.3180  172.8810   11.4790 N.2   253  ATP253      0.0021
     29  C2       -60.4710  173.6080   11.1740 C.3   253  ATP253      0.5254
     30  N3       -61.5340  173.5950   12.0670 N.2   253  ATP253     -0.0055
     31  C4       -61.4560  172.8680   13.2290 C.2   253  ATP253      0.3518
@<TRIPOS>BOND
     1    29    28    1
     2    29    30    1
     3    28    26    2
     4    30    31    2
     5    26    27    1
     6    26    25    1
     7    31    25    1
     8    31    22    1
     9    25    24    2
    10    20    19    1
    11    22    21    1
    12    22    23    1
    13    21    19    1
    14    21    16    1
    15    18    17    1
    16    19    17    1
    17    24    23    1
    18    17    15    1
    19    16    15    1
    20    15    14    1
    21     7     5    2
    22    14    13    1
    23    13     9    1
    24     5     6    1
    25     5    12    1
    26     5     8    1
    27    12     9    1
    28     8     1    1
    29     9    10    2
    30     9    11    1
    31     2     1    2
    32     3     1    1
    33     1     4    1
