@<TRIPOS>MOLECULE
1zfq_ZEC_A_1.pdb
 14 15 0 0 0
SMALL
GASTEIGER

@<TRIPOS>ATOM
      1  O1        18.0710    8.7120   12.7370 O.3   300  ZEC300     -0.2134
      2  C2        17.9010    7.5460   13.4830 C.3   300  ZEC300      0.1968
      3  C7        16.6030    7.1130   13.7980 C.2   300  ZEC300      0.0198
      4  C6        16.5510    5.9300   14.5420 C.2   300  ZEC300      0.0612
      5  S8        15.0360    5.2040   15.0220 S.3   300  ZEC300     -0.0329
      6  C9        16.0860    3.9480   15.8060 C.2   300  ZEC300      0.2855
      7  S11       15.2540    2.6620   16.6940 S.O2  300  ZEC300      0.1273
      8  N14       15.7100    1.3510   16.1280 N.3   300  ZEC300      0.0423
      9  O13       13.8400    2.8810   16.4290 O.2   300  ZEC300     -0.1473
     10  O12       15.7060    2.8040   18.0740 O.2   300  ZEC300     -0.1473
     11  N10       17.3380    4.1070   15.6660 N.2   300  ZEC300     -0.3756
     12  C5        17.6650    5.2240   14.9590 C.2   300  ZEC300      0.1393
     13  C4        18.9500    5.6580   14.6570 C.2   300  ZEC300      0.0309
     14  C3        19.0230    6.8330   13.9070 C.2   300  ZEC300      0.0133
@<TRIPOS>BOND
     1     1     2    1
     2     2     3    1
     3     2    14    1
     4     3     4    2
     5    14    13    2
     6     4    12    1
     7     4     5    1
     8    13    12    1
     9    12    11    2
    10     5     6    1
    11    11     6    2
    12     6     7    1
    13     8     7    1
    14     9     7    2
    15     7    10    2
