@<TRIPOS>MOLECULE
1zg3_2HI_A_1.pdb
 20 22 0 0 0
SMALL
GASTEIGER

@<TRIPOS>ATOM
      1  C1       100.5790   78.7410   34.1360 C.ar  365  2HI365      0.0423
      2  C2       101.8750   78.4070   33.7060 C.ar  365  2HI365      0.0092
      3  C3       102.2900   77.0560   33.7330 C.ar  365  2HI365      0.0695
      4  C4       101.4150   76.0120   34.2140 C.ar  365  2HI365      0.1473
      5  C5       100.1220   76.3880   34.6430 C.ar  365  2HI365      0.0791
      6  C6        99.6910   77.7470   34.6020 C.ar  365  2HI365      0.1988
      7  O1       101.8160   74.6720   34.2640 O.3   365  2HI365     -0.4500
      8  C7       103.6580   76.7150   33.2410 C.2   365  2HI365      0.1859
      9  O2       104.4420   77.5680   32.8360 O.2   365  2HI365     -0.2907
     10  C8       104.0120   75.2200   33.2040 C.3   365  2HI365      0.1568
     11  C9       103.2510   74.4330   34.2800 C.3   365  2HI365      0.3289
     12  O3       103.6170   74.8180   35.6010 O.3   365  2HI365     -0.1736
     13  C10      103.6600   74.7960   31.7560 C.ar  365  2HI365     -0.0088
     14  C11      102.3250   74.4020   31.3630 C.ar  365  2HI365     -0.0004
     15  C12      102.0250   74.0510   30.0230 C.ar  365  2HI365      0.0417
     16  C13      103.0300   74.0780   29.0310 C.ar  365  2HI365      0.1957
     17  C14      104.3520   74.4620   29.4060 C.ar  365  2HI365      0.0417
     18  C15      104.6640   74.8180   30.7510 C.ar  365  2HI365     -0.0004
     19  O4       102.7420   73.7480   27.7510 O.3   365  2HI365     -0.2866
     20  O5        98.4550   78.0890   35.0030 O.3   365  2HI365     -0.2865
@<TRIPOS>BOND
     1    19    16    1
     2    16    17   ar
     3    16    15   ar
     4    17    18   ar
     5    15    14   ar
     6    18    13   ar
     7    14    13   ar
     8    13    10    1
     9     9     8    2
    10    10     8    1
    11    10    11    1
    12     8     3    1
    13     2     3   ar
    14     2     1   ar
    15     3     4   ar
    16     1     6   ar
    17     4     7    1
    18     4     5   ar
    19     7    11    1
    20    11    12    1
    21     6     5   ar
    22     6    20    1
