@<TRIPOS>MOLECULE
1zg3_SAH_A_1.pdb
 26 28 0 0 0
SMALL
GASTEIGER

@<TRIPOS>ATOM
      1  N        107.3890   76.7330   16.4050 N.3   3994  SAH3994    -0.1208
      2  CA       106.1380   77.0280   17.2360 C.3   3994  SAH3994     0.1952
      3  CB       105.5420   75.9290   18.0530 C.3   3994  SAH3994     0.0422
      4  CG       105.1340   74.6390   17.4020 C.3   3994  SAH3994     0.0597
      5  SD       103.3240   74.7500   17.1050 S.3   3994  SAH3994    -0.1375
      6  C        106.4730   78.2470   18.1840 C.2   3994  SAH3994     0.3819
      7  O        107.6070   78.7570   18.1450 O.co2 3994  SAH3994    -0.2441
      8  OXT      105.5110   78.6350   18.9580 O.co2 3994  SAH3994    -0.2441
      9  C5'      103.1290   73.2810   16.2190 C.3   3994  SAH3994     0.0899
     10  C4'      102.7900   73.6370   14.7190 C.3   3994  SAH3994     0.1630
     11  O4'      102.7060   72.3750   14.0940 O.3   3994  SAH3994    -0.3153
     12  C3'      101.4410   74.2630   14.4280 C.3   3994  SAH3994     0.2168
     13  O3'      101.5820   75.6340   14.0440 O.3   3994  SAH3994    -0.2175
     14  C2'      100.8680   73.3080   13.2980 C.3   3994  SAH3994     0.2569
     15  O2'      100.1210   74.0020   12.3110 O.3   3994  SAH3994    -0.2130
     16  C1'      102.1390   72.6360   12.7850 C.3   3994  SAH3994     0.3185
     17  N9       101.9960   71.4870   12.1370 N.pl3 3994  SAH3994    -0.1439
     18  C8       101.2790   70.3180   12.3480 C.3   3994  SAH3994     0.3377
     19  N7       101.4400   69.4100   11.4320 N.2   3994  SAH3994    -0.2095
     20  C5       102.3510   70.0040   10.5060 C.2   3994  SAH3994     0.2526
     21  C6       102.9260   69.5120    9.2790 C.2   3994  SAH3994     0.4393
     22  N6       102.6680   68.2990    8.7690 N.pl3 3994  SAH3994     0.2180
     23  N1       103.7820   70.3940    8.6450 N.2   3994  SAH3994     0.0021
     24  C2       104.0750   71.6380    9.1270 C.3   3994  SAH3994     0.5254
     25  N3       103.5470   72.1410   10.2950 N.2   3994  SAH3994    -0.0055
     26  C4       102.6950   71.2680   10.9250 C.2   3994  SAH3994     0.3518
@<TRIPOS>BOND
     1    23    24    1
     2    23    21    2
     3    22    21    1
     4    24    25    1
     5    21    20    1
     6    25    26    2
     7    20    26    1
     8    20    19    2
     9    26    17    1
    10    19    18    1
    11    17    18    1
    12    17    16    1
    13    15    14    1
    14    16    14    1
    15    16    11    1
    16    14    12    1
    17    13    12    1
    18    11    10    1
    19    12    10    1
    20    10     9    1
    21     9     5    1
    22     1     2    1
    23     5     4    1
    24     2     3    1
    25     2     6    1
    26     4     3    1
    27     7     6   ar
    28     6     8   ar
