@<TRIPOS>MOLECULE
1zg7_P20_A_1.pdb
 17 17 0 0 0
SMALL
GASTEIGER

@<TRIPOS>ATOM
      1  S         34.9250   12.2100   60.1730 S.3   401  P20401     -0.0812
      2  C1        35.9510   11.6000   58.8430 C.3   401  P20401      0.0843
      3  C2        37.4450   11.6510   59.2330 C.3   401  P20401      0.1381
      4  C3        38.3440   11.4000   58.0530 C.ar  401  P20401      0.0026
      5  C4        38.8980   10.1120   57.8120 C.ar  401  P20401      0.0342
      6  C5        39.7500    9.8440   56.7150 C.ar  401  P20401      0.1589
      7  C6        38.6790   12.4410   57.1400 C.ar  401  P20401      0.0544
      8  C7        39.5280   12.1900   56.0350 C.ar  401  P20401      0.0141
      9  C8        40.0630   10.8970   55.8200 C.ar  401  P20401      0.0380
     10  N9        40.2840    8.6250   56.5040 N.pl3 401  P20401     -0.0605
     11  C10       41.0730    7.9230   57.3750 C.cat 401  P20401      0.5393
     12  N11       41.4800    6.7060   56.9920 N.pl3 401  P20401      0.1358
     13  N12       41.4330    8.4050   58.5680 N.pl3 401  P20401      0.1358
     14  C13       37.7810   10.6850   60.3210 C.2   401  P20401      0.3693
     15  O14       37.3930    9.4850   60.3050 O.co2 401  P20401     -0.2453
     16  O15       38.4690   11.0600   61.2950 O.co2 401  P20401     -0.2453
     17 CL16       38.1000   14.0120   57.3130 Cl    401  P20401     -0.0826
@<TRIPOS>BOND
     1     9     8   ar
     2     9     6   ar
     3     8     7   ar
     4    10     6    1
     5    10    11    2
     6     6     5   ar
     7    12    11    1
     8     7    17    1
     9     7     4   ar
    10    11    13    1
    11     5     4   ar
    12     4     3    1
    13     2     3    1
    14     2     1    1
    15     3    14    1
    16    15    14   ar
    17    14    16   ar
