@<TRIPOS>MOLECULE
1zg8_L98_A_1.pdb
 16 16 0 0 0
SMALL
GASTEIGER

@<TRIPOS>ATOM
      1  S         34.7250   12.1120   60.2400 S.3   401  L98401     -0.0812
      2  C1        35.6830   11.5460   58.8650 C.3   401  L98401      0.0843
      3  C2        37.1530   11.5200   59.2440 C.3   401  L98401      0.1373
      4  C3        38.0180   11.2870   58.0460 C.ar  401  L98401     -0.0080
      5  C4        38.7750   10.0980   57.8660 C.ar  401  L98401      0.0334
      6  C5        39.5980    9.8990   56.7170 C.ar  401  L98401      0.1589
      7  C6        38.0990   12.2890   57.0540 C.ar  401  L98401     -0.0035
      8  C7        38.9110   12.0940   55.9110 C.ar  401  L98401      0.0027
      9  C8        39.6550   10.9110   55.7450 C.ar  401  L98401      0.0371
     10  N9        40.3090    8.7820   56.5090 N.pl3 401  L98401     -0.0605
     11  C10       41.0270    8.0930   57.3970 C.cat 401  L98401      0.5393
     12  N11       41.6200    6.9840   56.9450 N.pl3 401  L98401      0.1358
     13  N12       41.1270    8.4530   58.6650 N.pl3 401  L98401      0.1358
     14  C13       37.3760   10.5100   60.3150 C.2   401  L98401      0.3692
     15  O14       37.1340    9.2900   60.1590 O.co2 401  L98401     -0.2453
     16  O15       37.8030   10.8900   61.4500 O.co2 401  L98401     -0.2453
@<TRIPOS>BOND
     1     9     8   ar
     2     9     6   ar
     3     8     7   ar
     4    10     6    1
     5    10    11    2
     6     6     5   ar
     7    12    11    1
     8     7     4   ar
     9    11    13    1
    10     5     4   ar
    11     4     3    1
    12     2     3    1
    13     2     1    1
    14     3    14    1
    15    15    14   ar
    16    14    16   ar
