@<TRIPOS>MOLECULE
1zg9_L06_A_1.pdb
 13 12 0 0 0
SMALL
GASTEIGER

@<TRIPOS>ATOM
      1  S         34.4860   12.6190   59.8990 S.3   401  L06401     -0.0816
      2  C1        35.6620   11.9410   58.6970 C.3   401  L06401      0.0799
      3  C2        37.1460   11.9720   59.1870 C.3   401  L06401      0.1151
      4  C3        38.2260   11.8290   58.0280 C.3   401  L06401      0.0159
      5  C4        37.8540   10.7760   56.9380 C.3   401  L06401      0.0475
      6  C5        38.9200   10.5860   55.8100 C.3   401  L06401      0.2204
      7  N6        39.4960    9.2940   55.9000 N.pl3 401  L06401     -0.0865
      8  C7        40.2410    8.8500   56.9160 C.cat 401  L06401      0.5346
      9  N8        40.6960    7.6040   56.8350 N.pl3 401  L06401      0.1354
     10  N9        40.6000    9.6770   57.9560 N.pl3 401  L06401      0.1354
     11  C10       37.2910   10.9180   60.2450 C.2   401  L06401      0.3652
     12  O11       36.9530    9.6980   60.0490 O.co2 401  L06401     -0.2456
     13  O12       37.7130   11.2540   61.3850 O.co2 401  L06401     -0.2456
@<TRIPOS>BOND
     1     6     7    1
     2     6     5    1
     3     7     8    2
     4     9     8    1
     5     8    10    1
     6     5     4    1
     7     4     3    1
     8     2     3    1
     9     2     1    1
    10     3    11    1
    11    12    11   ar
    12    11    13   ar
