@<TRIPOS>MOLECULE
1zga_SAH_A_1.pdb
 26 28 0 0 0
SMALL
GASTEIGER

@<TRIPOS>ATOM
      1  N        105.8240   75.3900   16.3760 N.3   3994  SAH3994    -0.1208
      2  CA       104.6550   75.6050   17.3440 C.3   3994  SAH3994     0.1952
      3  CB       104.2360   74.4820   18.2380 C.3   3994  SAH3994     0.0422
      4  CG       103.8540   73.1430   17.6570 C.3   3994  SAH3994     0.0597
      5  SD       102.0510   73.2170   17.3100 S.3   3994  SAH3994    -0.1375
      6  C        105.0050   76.8730   18.2240 C.2   3994  SAH3994     0.3819
      7  O        106.0810   77.4670   18.0390 O.co2 3994  SAH3994    -0.2441
      8  OXT      104.1190   77.2070   19.1020 O.co2 3994  SAH3994    -0.2441
      9  C5'      101.8520   71.7610   16.3910 C.3   3994  SAH3994     0.0899
     10  C4'      101.5680   72.1440   14.8790 C.3   3994  SAH3994     0.1630
     11  O4'      101.4410   70.8940   14.2170 O.3   3994  SAH3994    -0.3153
     12  C3'      100.2660   72.8500   14.5720 C.3   3994  SAH3994     0.2168
     13  O3'      100.5030   74.2050   14.1810 O.3   3994  SAH3994    -0.2175
     14  C2'       99.6430   71.9320   13.4430 C.3   3994  SAH3994     0.2569
     15  O2'       98.9120   72.6710   12.4730 O.3   3994  SAH3994    -0.2130
     16  C1'      100.8820   71.2090   12.9100 C.3   3994  SAH3994     0.3185
     17  N9       100.6760   70.0830   12.2160 N.pl3 3994  SAH3994    -0.1439
     18  C8        99.9290   68.9290   12.4130 C.3   3994  SAH3994     0.3377
     19  N7       100.0160   68.0480   11.4590 N.2   3994  SAH3994    -0.2095
     20  C5       100.9050   68.6410   10.5120 C.2   3994  SAH3994     0.2526
     21  C6       101.4080   68.1720    9.2390 C.2   3994  SAH3994     0.4393
     22  N6       101.0830   66.9910    8.6980 N.pl3 3994  SAH3994     0.2180
     23  N1       102.2690   69.0430    8.5970 N.2   3994  SAH3994     0.0021
     24  C2       102.6300   70.2590    9.1080 C.3   3994  SAH3994     0.5254
     25  N3       102.1720   70.7400   10.3170 N.2   3994  SAH3994    -0.0055
     26  C4       101.3160   69.8800   10.9600 C.2   3994  SAH3994     0.3518
@<TRIPOS>BOND
     1    23    24    1
     2    23    21    2
     3    22    21    1
     4    24    25    1
     5    21    20    1
     6    25    26    2
     7    20    26    1
     8    20    19    2
     9    26    17    1
    10    19    18    1
    11    17    18    1
    12    17    16    1
    13    15    14    1
    14    16    14    1
    15    16    11    1
    16    14    12    1
    17    13    12    1
    18    11    10    1
    19    12    10    1
    20    10     9    1
    21     1     2    1
    22     9     5    1
    23     5     4    1
    24     2     6    1
    25     2     3    1
    26     4     3    1
    27     7     6   ar
    28     6     8   ar
