@<TRIPOS>MOLECULE
1zga_HMK_A_1.pdb
 22 26 0 0 0
SMALL
GASTEIGER

@<TRIPOS>ATOM
      1  C1       102.0730   73.2190   32.8720 C.3   365  HMK365      0.2437
      2  O1       101.6120   73.5040   31.5910 O.3   365  HMK365     -0.4724
      3  C2       102.2810   74.5590   30.9070 C.ar  365  HMK365      0.1413
      4  C3       102.7460   75.7800   31.6580 C.ar  365  HMK365      0.0543
      5  C4       102.4880   75.8720   33.2270 C.3   365  HMK365      0.2262
      6  C5       101.7670   74.5400   33.8500 C.3   365  HMK365      0.2284
      7  C6       102.5340   74.5070   29.4610 C.ar  365  HMK365      0.0787
      8  C7       103.2140   75.5920   28.7370 C.ar  365  HMK365      0.1988
      9  C8       103.6490   76.7750   29.5090 C.ar  365  HMK365      0.0420
     10  C9       103.4180   76.8710   30.9450 C.ar  365  HMK365      0.0056
     11  O2       101.5610   76.9200   33.3130 O.3   365  HMK365     -0.4717
     12  O5       102.3610   73.9830   35.0340 O.3   365  HMK365     -0.2131
     13  O6       103.4400   75.5130   27.3970 O.3   365  HMK365     -0.2865
     14  C10      100.3170   76.5490   33.7790 C.ar  365  HMK365      0.1407
     15  C11      100.3790   75.1210   34.1280 C.ar  365  HMK365      0.0496
     16  C12       99.1280   77.3660   33.9470 C.ar  365  HMK365      0.0768
     17  C13       97.9630   76.6900   34.4880 C.ar  365  HMK365      0.1794
     18  C14       97.9850   75.2720   34.8480 C.ar  365  HMK365      0.1764
     19  C15       99.1920   74.4420   34.6820 C.ar  365  HMK365      0.0415
     20  O3        96.7170   77.2020   34.7500 O.3   365  HMK365     -0.4345
     21  C16       95.9250   76.1270   35.2800 C.3   365  HMK365      0.4294
     22  O4        96.7390   74.9360   35.3310 O.3   365  HMK365     -0.4346
@<TRIPOS>BOND
     1    13     8    1
     2     8     7   ar
     3     8     9   ar
     4     7     3   ar
     5     9    10   ar
     6     3     2    1
     7     3     4   ar
     8    10     4   ar
     9     2     1    1
    10     4     5    1
    11     1     6    1
    12     5    11    1
    13     5     6    1
    14    11    14    1
    15    14    16   ar
    16    14    15   ar
    17     6    15    1
    18     6    12    1
    19    16    17   ar
    20    15    19   ar
    21    17    20    1
    22    17    18   ar
    23    19    18   ar
    24    20    21    1
    25    18    22    1
    26    21    22    1
