@<TRIPOS>MOLECULE
1zgb_A1E_A_1.pdb
 37 41 0 0 0
SMALL
GASTEIGER

@<TRIPOS>ATOM
      1  C1        -3.1010   59.6420   74.6460 C.3   1001  A1E1001     0.0086
      2  C2        -2.0300   60.6480   74.2690 C.3   1001  A1E1001     0.0186
      3  C3        -1.0720   60.0800   73.1650 C.3   1001  A1E1001     0.0831
      4  C4        -0.5640   58.6720   73.5430 C.3   1001  A1E1001     0.0877
      5  C5        -1.2260   57.9290   74.5080 C.2   1001  A1E1001     0.1046
      6  C6        -2.4440   58.4090   75.2790 C.3   1001  A1E1001     0.0558
      7  C7         0.6260   58.0220   72.8830 C.2   1001  A1E1001    -0.0049
      8  C8         1.0540   56.7480   73.2200 C.2   1001  A1E1001     0.1024
      9  C9         0.2850   56.0030   74.2960 C.1   1001  A1E1001     0.2045
     10  N10       -0.7790   56.6730   74.8270 N.2   1001  A1E1001    -0.3414
     11  O11        0.5390   54.9060   74.6920 O.2   1001  A1E1001    -0.2093
     12  N12        0.0400   61.0700   73.2430 N.3   1001  A1E1001    -0.2187
     13  C13       -0.0680   62.2860   72.3830 C.3   1001  A1E1001     0.0887
     14  C14        0.9870   62.0150   71.3460 C.3   1001  A1E1001     0.0188
     15  C15        0.6380   62.6540   70.0350 C.3   1001  A1E1001     0.0015
     16  C16        1.6990   62.3090   68.9910 C.3   1001  A1E1001     0.0000
     17  C17        3.1210   62.4740   69.5480 C.3   1001  A1E1001     0.0000
     18  C18        3.6790   63.7740   69.0100 C.3   1001  A1E1001     0.0000
     19  C19        3.2800   65.0280   69.8120 C.3   1001  A1E1001     0.0004
     20  C20        2.2410   65.8630   69.0450 C.3   1001  A1E1001     0.0063
     21  C21        2.7180   66.3770   67.6860 C.3   1001  A1E1001     0.0470
     22  C22        1.7260   67.4350   67.2000 C.2   1001  A1E1001     0.0720
     23  N23        2.2130   68.4110   66.2220 N.2   1001  A1E1001    -0.2523
     24  C24        3.5210   68.6620   65.7320 C.2   1001  A1E1001     0.0672
     25  C25        4.5280   69.2680   66.6260 C.3   1001  A1E1001     0.1140
     26  C26        5.7970   69.5770   66.0220 C.2   1001  A1E1001     0.1178
     27  N27        6.0700   69.3050   64.6510 N.2   1001  A1E1001    -0.4101
     28  C28        5.1550   68.7420   63.8630 C.2   1001  A1E1001     0.1057
     29  C29        3.8300   68.3860   64.3510 C.2   1001  A1E1001     0.0174
     30  C30        4.4250   69.6100   68.0480 C.2   1001  A1E1001    -0.0135
     31  C31        5.4660   70.1970   68.7720 C.2   1001  A1E1001    -0.0037
     32  C32        6.7110   70.4990   68.1320 C.2   1001  A1E1001     0.0020
     33  C33        6.8660   70.1920   66.7800 C.2   1001  A1E1001     0.0282
     34  C34        5.6230   68.5170   62.4010 C.3   1001  A1E1001     0.0587
     35  C35        4.4170   68.2910   61.4350 C.3   1001  A1E1001     0.0078
     36  C36        3.4630   67.2460   62.0080 C.3   1001  A1E1001     0.0052
     37  C37        2.8360   67.7540   63.3560 C.3   1001  A1E1001     0.0298
@<TRIPOS>BOND
     1    35    36    1
     2    35    34    1
     3    36    37    1
     4    34    28    1
     5    37    29    1
     6    28    29    1
     7    28    27    2
     8    29    24    2
     9    27    26    2
    10    24    23    1
    11    24    25    1
    12    26    25    1
    13    26    33    1
    14    23    22    2
    15    25    30    1
    16    33    32    2
    17    22    21    1
    18    21    20    1
    19    30    31    2
    20    32    31    1
    21    16    17    1
    22    16    15    1
    23    18    17    1
    24    18    19    1
    25    20    19    1
    26    15    14    1
    27    14    13    1
    28    13    12    1
    29     7     8    2
    30     7     4    1
    31     3    12    1
    32     3     4    1
    33     3     2    1
    34     8     9    1
    35     4     5    1
    36     2     1    1
    37     9    11    2
    38     9    10    2
    39     5    10    2
    40     5     6    1
    41     1     6    1
