@<TRIPOS>MOLECULE
1zgc_A2E_A_1.pdb
 37 41 0 0 0
SMALL
GASTEIGER

@<TRIPOS>ATOM
      1  O11       98.4380   54.4260   26.5710 O.2   1002  A2E1002    -0.2138
      2  C9        99.5080   55.1300   26.2500 C.1   1002  A2E1002     0.1844
      3  C8       100.6960   54.4880   25.9260 C.3   1002  A2E1002     0.1605
      4  N10       99.4920   56.4700   26.2330 N.2   1002  A2E1002    -0.3408
      5  C5       100.5810   57.2280   25.9690 C.2   1002  A2E1002     0.1186
      6  C6       100.4700   58.7520   25.9530 C.3   1002  A2E1002     0.0597
      7  C4       101.8530   56.5950   25.6190 C.2   1002  A2E1002     0.0167
      8  C7       101.8590   55.2140   25.6350 C.2   1002  A2E1002    -0.0081
      9  C3       103.1220   57.4130   25.2780 C.3   1002  A2E1002     0.0968
     10  C2       102.9410   58.9940   25.3080 C.3   1002  A2E1002     0.0224
     11  C1       101.7870   59.4950   26.1860 C.3   1002  A2E1002     0.0092
     12  N12      103.6640   56.9780   23.9230 N.3   1002  A2E1002    -0.2150
     13  C13      103.1580   57.8460   22.7450 C.3   1002  A2E1002     0.0890
     14  C14      102.6080   56.9890   21.6100 C.3   1002  A2E1002     0.0188
     15  C15      101.4070   56.1550   22.0240 C.3   1002  A2E1002     0.0015
     16  C16      101.3430   54.7460   21.3940 C.3   1002  A2E1002     0.0000
     17  C17       99.8920   54.3890   21.0280 C.3   1002  A2E1002     0.0000
     18  C18       99.3050   53.1140   21.7170 C.3   1002  A2E1002     0.0000
     19  C19       99.0290   51.9760   20.6990 C.3   1002  A2E1002     0.0001
     20  C20       97.8200   51.0890   21.0950 C.3   1002  A2E1002     0.0018
     21  C21       97.4660   50.0530   20.0480 C.3   1002  A2E1002     0.0233
     22  C22       95.9290   49.8400   19.8940 C.3   1002  A2E1002     0.1118
     23  N23       95.6960   48.4940   19.5240 N.pl3 1002  A2E1002    -0.2414
     24  C24       94.7990   47.6260   20.1610 C.2   1002  A2E1002     0.0515
     25  C25       95.4390   46.4500   20.8860 C.3   1002  A2E1002     0.1112
     26  C30       96.8250   46.2230   20.8090 C.2   1002  A2E1002    -0.0137
     27  C26       94.6410   45.5580   21.6560 C.2   1002  A2E1002     0.1176
     28  C33       95.2560   44.5080   22.2930 C.2   1002  A2E1002     0.0282
     29  C32       96.6420   44.3110   22.2080 C.2   1002  A2E1002     0.0020
     30  C31       97.4030   45.1760   21.4480 C.2   1002  A2E1002    -0.0037
     31  N27       93.2790   45.7300   21.7650 N.2   1002  A2E1002    -0.4102
     32  C28       92.6040   46.7430   21.1510 C.2   1002  A2E1002     0.1055
     33  C34       91.1410   46.7830   21.3190 C.3   1002  A2E1002     0.0587
     34  C29       93.3060   47.7500   20.2970 C.2   1002  A2E1002     0.0147
     35  C37       92.5230   48.8460   19.6160 C.3   1002  A2E1002     0.0296
     36  C36       91.0630   48.5830   19.5590 C.3   1002  A2E1002     0.0052
     37  C35       90.4990   48.0540   20.8360 C.3   1002  A2E1002     0.0078
@<TRIPOS>BOND
     1    23    22    1
     2    23    24    1
     3    36    35    1
     4    36    37    1
     5    35    34    1
     6    22    21    1
     7    21    20    1
     8    24    34    2
     9    24    25    1
    10    34    32    1
    11    19    20    1
    12    19    18    1
    13    26    25    1
    14    26    30    2
    15    37    33    1
    16    25    27    1
    17    17    16    1
    18    17    18    1
    19    32    33    1
    20    32    31    2
    21    16    15    1
    22    30    29    1
    23    14    15    1
    24    14    13    1
    25    27    31    2
    26    27    28    1
    27    29    28    2
    28    13    12    1
    29    12     9    1
    30     9    10    1
    31     9     7    1
    32    10    11    1
    33     7     8    2
    34     7     5    1
    35     8     3    1
    36     3     2    1
    37     6     5    1
    38     6    11    1
    39     5     4    2
    40     4     2    2
    41     2     1    2
