@<TRIPOS>MOLECULE
1zgd_NAP_A_1.pdb
 48 52 0 0 0
SMALL
GASTEIGER

@<TRIPOS>ATOM
      1  PA        38.9010  -20.0460   49.5860 P.3   755  NAP755      0.2189
      2  O1A       38.2120  -18.7280   49.5540 O.3   755  NAP755     -0.4371
      3  O2A       38.2230  -21.2020   49.0280 O.2   755  NAP755     -0.5170
      4  O5B       39.3460  -20.3010   51.1180 O.3   755  NAP755     -0.3112
      5  C5B       40.0460  -21.5030   51.4820 C.3   755  NAP755      0.1813
      6  C4B       40.3510  -21.4680   52.9590 C.3   755  NAP755      0.1820
      7  O4B       39.0970  -21.4440   53.6600 O.3   755  NAP755     -0.3136
      8  C3B       41.0860  -22.6720   53.4260 C.3   755  NAP755      0.2157
      9  O3B       42.0430  -22.3350   54.4510 O.3   755  NAP755     -0.2175
     10  C2B       39.9790  -23.5800   53.9320 C.3   755  NAP755      0.2314
     11  O2B       40.3810  -24.6670   54.8370 O.3   755  NAP755     -0.2630
     12  C1B       38.9900  -22.5780   54.5320 C.3   755  NAP755      0.3158
     13  N9A       37.5420  -22.9720   54.4710 N.pl3 755  NAP755     -0.1439
     14  C8A       36.8810  -23.7280   53.5100 C.3   755  NAP755      0.3377
     15  N7A       35.6100  -23.8850   53.7560 N.2   755  NAP755     -0.2095
     16  C5A       35.3980  -23.2080   54.9330 C.2   755  NAP755      0.2526
     17  C6A       34.2440  -23.0050   55.7150 C.2   755  NAP755      0.4393
     18  N6A       33.0650  -23.5130   55.3670 N.pl3 755  NAP755      0.2180
     19  N1A       34.3630  -22.2630   56.8590 N.2   755  NAP755      0.0021
     20  C2A       35.5640  -21.7400   57.2240 C.3   755  NAP755      0.5254
     21  N3A       36.7090  -21.8850   56.5430 N.2   755  NAP755     -0.0055
     22  C4A       36.5590  -22.6390   55.3920 C.2   755  NAP755      0.3518
     23  O3        40.3820  -19.8420   48.9450 O.3   755  NAP755     -0.2703
     24  PN        41.1260  -20.1780   47.5620 P.3   755  NAP755      0.2189
     25  O1N       42.2140  -19.1970   47.4010 O.3   755  NAP755     -0.4371
     26  O2N       40.0010  -20.1100   46.5460 O.2   755  NAP755     -0.5170
     27  O5D       41.5550  -21.7230   47.4770 O.3   755  NAP755     -0.3112
     28  C5D       42.0580  -22.2880   46.1850 C.3   755  NAP755      0.1813
     29  C4D       40.9950  -22.6050   45.0630 C.3   755  NAP755      0.1799
     30  O4D       40.5850  -21.3930   44.3820 O.3   755  NAP755     -0.3327
     31  C3D       41.5590  -23.4610   43.8930 C.3   755  NAP755      0.2158
     32  O3D       40.5980  -24.1910   43.1370 O.3   755  NAP755     -0.2175
     33  C2D       42.2120  -22.4870   43.0060 C.3   755  NAP755      0.2309
     34  O2D       42.3010  -22.9340   41.6800 O.3   755  NAP755     -0.2158
     35  C1D       41.2600  -21.2640   43.1070 C.3   755  NAP755      0.2263
     36  N1N       42.1040  -20.0550   42.9730 N.pl3 755  NAP755     -0.2787
     37  C2N       42.3370  -19.6620   41.6320 C.3   755  NAP755      0.1244
     38  C3N       43.1680  -18.5120   41.4080 C.2   755  NAP755      0.0544
     39  C7N       43.4550  -18.0470   40.0470 C.2   755  NAP755      0.2818
     40  O7N       44.1740  -17.0690   39.8140 O.2   755  NAP755     -0.2670
     41  N7N       42.9330  -18.6780   38.9830 N.am  755  NAP755     -0.0839
     42  C4N       43.6990  -17.8440   42.5240 C.2   755  NAP755      0.0033
     43  C5N       43.4610  -18.2300   43.8100 C.2   755  NAP755      0.0157
     44  C6N       42.6650  -19.3370   44.0440 C.2   755  NAP755      0.0633
     45  P2B       40.7370  -24.6250   56.4070 P.3   755  NAP755      0.5328
     46  O1X       39.8260  -23.7220   57.1650 O.3   755  NAP755     -0.1145
     47  O2X       42.1430  -24.1880   56.3400 O.2   755  NAP755     -0.2224
     48  O3X       40.6160  -26.0490   56.7590 O.3   755  NAP755     -0.1145
@<TRIPOS>BOND
     1    41    39   am
     2    40    39    2
     3    39    38    1
     4    38    37    1
     5    38    42    2
     6    37    36    1
     7    34    33    1
     8    42    43    1
     9    36    35    1
    10    36    44    1
    11    33    35    1
    12    33    31    1
    13    35    30    1
    14    32    31    1
    15    43    44    2
    16    31    29    1
    17    30    29    1
    18    29    28    1
    19    28    27    1
    20    26    24    2
    21    25    24    1
    22    27    24    1
    23    24    23    1
    24    23     1    1
    25     3     1    2
    26     2     1    1
    27     1     4    1
    28     4     5    1
    29     5     6    1
    30     6     8    1
    31     6     7    1
    32     8    10    1
    33     8     9    1
    34    14    15    1
    35    14    13    1
    36     7    12    1
    37    15    16    2
    38    10    12    1
    39    10    11    1
    40    13    12    1
    41    13    22    1
    42    11    45    1
    43    16    22    1
    44    16    17    1
    45    18    17    1
    46    22    21    2
    47    17    19    2
    48    47    45    2
    49    45    48    1
    50    45    46    1
    51    21    20    1
    52    19    20    1
