@<TRIPOS>MOLECULE
1zge_SDA_A_1.pdb
 13 13 0 0 0
SMALL
GASTEIGER

@<TRIPOS>ATOM
      1  S1        15.3140    2.7660   16.5040 S.O2  300  SDA300      0.0936
      2  N13       15.7860    1.5240   15.8390 N.3   300  SDA300      0.0392
      3  O12       15.9150    2.8960   17.8310 O.2   300  SDA300     -0.1503
      4  O11       13.8620    2.8830   16.4370 O.2   300  SDA300     -0.1503
      5  C2        16.0230    4.1120   15.5850 C.ar  300  SDA300      0.1268
      6  C7        17.3890    4.2370   15.3280 C.ar  300  SDA300      0.0328
      7  C6        17.9040    5.3060   14.6060 C.ar  300  SDA300      0.0765
      8 CL8        19.5980    5.5600   14.2360 Cl    300  SDA300     -0.0808
      9  C5        17.0380    6.2910   14.1190 C.ar  300  SDA300      0.1102
     10  N10       17.5580    7.3750   13.3800 N.pl3 300  SDA300     -0.1263
     11  C4        15.6850    6.1790   14.3630 C.ar  300  SDA300      0.0765
     12 CL9        14.6580    7.4130   13.7360 Cl    300  SDA300     -0.0808
     13  C3        15.1550    5.1100   15.0860 C.ar  300  SDA300      0.0328
@<TRIPOS>BOND
     1    10     9    1
     2    12    11    1
     3     9    11   ar
     4     9     7   ar
     5     8     7    1
     6    11    13   ar
     7     7     6   ar
     8    13     5   ar
     9     6     5   ar
    10     5     1    1
    11     2     1    1
    12     4     1    2
    13     1     3    2
