@<TRIPOS>MOLECULE
1zgf_TRU_A_1.pdb
 20 21 0 0 0
SMALL
GASTEIGER

@<TRIPOS>ATOM
      1  S1        16.9850    4.3720   12.3180 S.O2  300  TRU300      0.0668
      2  O17       15.8520    4.0470   11.4660 O.2   300  TRU300     -0.1554
      3  O16       18.1060    3.4780   12.4900 O.2   300  TRU300     -0.1554
      4  N10       17.5240    5.7290   11.9440 N.3   300  TRU300     -0.0554
      5  C9        16.6790    6.8840   12.0550 C.3   300  TRU300      0.2286
      6  C18       17.1350    8.0810   11.2080 C.3   300  TRU300      0.1991
      7 CL20       17.4700    7.5150    9.5580 Cl    300  TRU300     -0.0933
      8 CL19       15.8020    9.2570   11.1220 Cl    300  TRU300     -0.0933
      9  N8        16.3000    7.1880   13.4330 N.2   300  TRU300     -0.2524
     10  C3        15.9970    6.0910   14.2650 C.2   300  TRU300      0.0838
     11  C4        15.4260    6.3570   15.4940 C.2   300  TRU300      0.0291
     12  C5        15.1280    5.2670   16.3140 C.2   300  TRU300      0.0773
     13 CL11       14.4140    5.6570   17.8440 Cl    300  TRU300     -0.0808
     14  C6        15.3810    3.9520   15.9420 C.2   300  TRU300      0.1334
     15  S12       14.9730    2.6270   17.0400 S.O2  300  TRU300      0.0941
     16  N15       15.5450    1.3910   16.4500 N.3   300  TRU300      0.0392
     17  O14       15.6860    2.8550   18.2940 O.2   300  TRU300     -0.1503
     18  O13       13.5360    2.5810   17.0120 O.2   300  TRU300     -0.1503
     19  C7        15.9550    3.6910   14.7060 C.2   300  TRU300      0.0255
     20  C2        16.2560    4.7690   13.8810 C.3   300  TRU300      0.2098
@<TRIPOS>BOND
     1     7     6    1
     2     8     6    1
     3     6     5    1
     4     2     1    2
     5     4     5    1
     6     4     1    1
     7     5     9    1
     8     1     3    2
     9     1    20    1
    10     9    10    2
    11    20    10    1
    12    20    19    1
    13    10    11    1
    14    19    14    2
    15    11    12    2
    16    14    12    1
    17    14    15    1
    18    12    13    1
    19    16    15    1
    20    18    15    2
    21    15    17    2
