@<TRIPOS>MOLECULE
1zgi_382_A_1.pdb
 32 36 0 0 0
SMALL
GASTEIGER

@<TRIPOS>ATOM
      1  C1        22.3230  -14.2910   25.6190 C.3   1001  3821001     0.0189
      2  C2        22.0110  -14.9860   24.2840 C.3   1001  3821001     0.0889
      3  N3        21.0480  -16.1020   24.5080 N.3   1001  3821001    -0.2138
      4  C4        19.7680  -15.6610   25.1350 C.3   1001  3821001     0.1381
      5  C5        20.0600  -15.0240   26.4980 C.3   1001  3821001     0.0232
      6  C6        21.0240  -13.8280   26.3050 C.3   1001  3821001     0.0031
      7  C15       18.7190  -16.8040   25.1620 C.3   1001  3821001     0.3245
      8  F17       19.2670  -18.0340   25.3410 F     1001  3821001    -0.1982
      9  F18       17.8050  -16.5990   26.1480 F     1001  3821001    -0.1982
     10  C19       18.0010  -16.8490   23.8070 C.3   1001  3821001     0.3184
     11  N20       17.4150  -15.5460   23.4030 N.pl3 1001  3821001    -0.0231
     12  C23       17.8610  -14.8050   22.2800 C.2   1001  3821001     0.3899
     13  C24       17.0050  -13.8380   21.6540 C.2   1001  3821001     0.2534
     14  C25       17.4730  -13.1050   20.5270 C.2   1001  3821001     0.1849
     15  C26       18.8440  -13.3810   20.0340 C.2   1001  3821001     0.0715
     16  C27       19.7160  -14.3780   20.6870 C.3   1001  3821001     0.2930
     17  N28       19.1710  -15.0470   21.8000 N.2   1001  3821001    -0.0546
     18  N31       15.7100  -13.3970   21.8900 N.2   1001  3821001    -0.3599
     19  C32       15.4580  -12.4320   20.9190 C.2   1001  3821001     0.2618
     20  O33       16.5440  -12.2110   20.0760 O.2   1001  3821001    -0.4275
     21  C34       14.1350  -11.6760   20.7150 C.3   1001  3821001     0.1272
     22  C36       13.0240  -11.7240   21.7700 C.ar  1001  3821001     0.0060
     23  C39       12.9160  -10.4860   22.5640 C.ar  1001  3821001    -0.0022
     24  C40       11.8770  -10.3870   23.5960 C.ar  1001  3821001    -0.0002
     25  C41       10.9660  -11.5370   23.7640 C.ar  1001  3821001     0.0015
     26  C42       11.0880  -12.7730   22.9610 C.ar  1001  3821001     0.0189
     27  C43       12.1470  -12.8950   21.9490 C.ar  1001  3821001     0.0811
     28  N48       12.3340  -14.1540   21.2840 N.ar  1001  3821001    -0.2082
     29  N49       12.6160  -15.3380   21.9060 N.ar  1001  3821001    -0.1409
     30  C50       12.6910  -16.3250   20.9570 C.ar  1001  3821001     0.2214
     31  N51       12.4480  -15.7450   19.7450 N.ar  1001  3821001    -0.2004
     32  C52       12.2270  -14.4050   19.9490 C.ar  1001  3821001     0.2016
@<TRIPOS>BOND
     1    31    32   ar
     2    31    30   ar
     3    32    28   ar
     4    15    14    2
     5    15    16    1
     6    20    14    1
     7    20    19    1
     8    14    13    1
     9    16    17    1
    10    21    19    1
    11    21    22    1
    12    19    18    2
    13    30    29   ar
    14    28    29   ar
    15    28    27    1
    16    13    18    2
    17    13    12    1
    18    22    27   ar
    19    22    23   ar
    20    17    12    2
    21    27    26   ar
    22    12    11    1
    23    23    24   ar
    24    26    25   ar
    25    11    10    1
    26    24    25   ar
    27    10     7    1
    28     2     3    1
    29     2     1    1
    30     3     4    1
    31     4     7    1
    32     4     5    1
    33     7     8    1
    34     7     9    1
    35     1     6    1
    36     6     5    1
