@<TRIPOS>MOLECULE
1zgj_SAH_A_1.pdb
 26 28 0 0 0
SMALL
GASTEIGER

@<TRIPOS>ATOM
      1  N         35.0850   76.2690   16.2590 N.3   3994  SAH3994    -0.1208
      2  CA        33.8590   76.4340   17.1530 C.3   3994  SAH3994     0.1952
      3  CB        33.2230   75.2090   17.6900 C.3   3994  SAH3994     0.0422
      4  CG        32.7950   74.1500   16.7270 C.3   3994  SAH3994     0.0597
      5  SD        31.0890   73.6400   17.1790 S.3   3994  SAH3994    -0.1375
      6  C         34.2570   77.3820   18.3520 C.2   3994  SAH3994     0.3819
      7  O         35.4120   77.8310   18.4240 O.co2 3994  SAH3994    -0.2441
      8  OXT       33.3260   77.6270   19.2010 O.co2 3994  SAH3994    -0.2441
      9  C5'       30.9720   72.3200   16.0880 C.3   3994  SAH3994     0.0899
     10  C4'       30.6790   72.8950   14.6390 C.3   3994  SAH3994     0.1630
     11  O4'       30.6530   71.7180   13.8870 O.3   3994  SAH3994    -0.3153
     12  C3'       29.3140   73.4980   14.4030 C.3   3994  SAH3994     0.2168
     13  O3'       29.4080   74.8710   14.0350 O.3   3994  SAH3994    -0.2175
     14  C2'       28.7260   72.5690   13.2830 C.3   3994  SAH3994     0.2569
     15  O2'       27.8670   73.2700   12.4030 O.3   3994  SAH3994    -0.2130
     16  C1'       29.9980   72.0070   12.6420 C.3   3994  SAH3994     0.3185
     17  N9        29.9120   70.8520   11.9950 N.pl3 3994  SAH3994    -0.1439
     18  C8        29.2140   69.6780   12.2310 C.3   3994  SAH3994     0.3377
     19  N7        29.3980   68.7490   11.3560 N.2   3994  SAH3994    -0.2095
     20  C5        30.3040   69.3190   10.4280 C.2   3994  SAH3994     0.2526
     21  C6        30.8930   68.7780    9.2320 C.2   3994  SAH3994     0.4393
     22  N6        30.6470   67.5370    8.7790 N.pl3 3994  SAH3994     0.2180
     23  N1        31.7490   69.6400    8.5690 N.2   3994  SAH3994     0.0021
     24  C2        32.0240   70.9070    9.0000 C.3   3994  SAH3994     0.5254
     25  N3        31.4760   71.4560   10.1430 N.2   3994  SAH3994    -0.0055
     26  C4        30.6280   70.6030   10.8010 C.2   3994  SAH3994     0.3518
@<TRIPOS>BOND
     1    23    24    1
     2    23    21    2
     3    22    21    1
     4    24    25    1
     5    21    20    1
     6    25    26    2
     7    20    26    1
     8    20    19    2
     9    26    17    1
    10    19    18    1
    11    17    18    1
    12    17    16    1
    13    15    14    1
    14    16    14    1
    15    16    11    1
    16    14    12    1
    17    11    10    1
    18    13    12    1
    19    12    10    1
    20    10     9    1
    21     9     5    1
    22     1     2    1
    23     4     5    1
    24     4     3    1
    25     2     3    1
    26     2     6    1
    27     6     7   ar
    28     6     8   ar
