@<TRIPOS>MOLECULE
1zgj_P1S_A_1.pdb
 23 27 0 0 0
SMALL
GASTEIGER

@<TRIPOS>ATOM
      1  C1        30.5660   73.5600   33.0000 C.3     0  P1S0        0.2437
      2  O1        30.1440   73.8170   31.6610 O.3     0  P1S0       -0.4725
      3  C2        31.0300   74.6630   30.9810 C.ar    0  P1S0        0.1379
      4  C3        31.6650   75.7890   31.6690 C.ar    0  P1S0        0.0541
      5  C4        31.3470   76.0560   33.1590 C.3     0  P1S0        0.2262
      6  C5        30.5590   74.8520   33.8250 C.3     0  P1S0        0.2284
      7  C6        31.3400   74.4580   29.5920 C.ar    0  P1S0        0.0349
      8  C7        32.2400   75.3240   28.8830 C.ar    0  P1S0        0.0136
      9  C8        32.8450   76.4200   29.5830 C.ar    0  P1S0       -0.0018
     10  C9        32.5610   76.6500   30.9580 C.ar    0  P1S0        0.0021
     11  O2        30.4690   77.1870   33.1100 O.3     0  P1S0       -0.4717
     12  C10       29.2290   76.8580   33.6240 C.ar    0  P1S0        0.1407
     13  C11       29.2030   75.4950   34.0630 C.ar    0  P1S0        0.0496
     14  C12       28.1000   77.7250   33.7210 C.ar    0  P1S0        0.0768
     15  C13       26.9320   77.1530   34.2830 C.ar    0  P1S0        0.1794
     16  C14       26.8910   75.7980   34.7270 C.ar    0  P1S0        0.1764
     17  C15       28.0280   74.9230   34.6330 C.ar    0  P1S0        0.0415
     18  O3        25.6950   77.7440   34.4980 O.3     0  P1S0       -0.4345
     19  C16       24.8390   76.7490   35.0920 C.3     0  P1S0        0.4294
     20  O4        25.6180   75.5340   35.2250 O.3     0  P1S0       -0.4346
     21  O5        31.0570   74.5480   35.1450 O.3     0  P1S0       -0.2131
     22  C17       32.5650   75.1030   27.4220 C.3     0  P1S0        0.2087
     23  O6        33.7770   74.3200   27.3350 O.3     0  P1S0       -0.2152
@<TRIPOS>BOND
     1    23    22    1
     2    22     8    1
     3     8     9   ar
     4     8     7   ar
     5     9    10   ar
     6     7     3   ar
     7    10     4   ar
     8     3     2    1
     9     3     4   ar
    10     2     1    1
    11     4     5    1
    12     1     6    1
    13    11     5    1
    14    11    12    1
    15     5     6    1
    16    12    14   ar
    17    12    13   ar
    18    14    15   ar
    19     6    13    1
    20     6    21    1
    21    13    17   ar
    22    15    18    1
    23    15    16   ar
    24    18    19    1
    25    17    16   ar
    26    16    20    1
    27    19    20    1
