@<TRIPOS>MOLECULE
1zgn_GSH_A_1.pdb
 20 19 0 0 0
SMALL
GASTEIGER

@<TRIPOS>ATOM
      1  N1        14.0530   10.5920   22.8620 N.3   1221  GSH1221    -0.1208
      2  CA1       13.9980    9.7310   23.9310 C.3   1221  GSH1221     0.1948
      3  C1        15.0500    8.7450   23.9350 C.2   1221  GSH1221     0.3819
      4  O11       15.5560    8.3910   22.8620 O.co2 1221  GSH1221    -0.2441
      5  O12       15.4240    8.2610   25.1030 O.co2 1221  GSH1221    -0.2441
      6  CB1       12.5920    9.0590   23.9790 C.3   1221  GSH1221     0.0402
      7  CG1       12.2720    8.5220   25.4130 C.3   1221  GSH1221     0.0889
      8  CD1       10.8800    7.8420   25.4660 C.2   1221  GSH1221     0.2418
      9  OE1       10.0820    7.8880   24.5120 O.2   1221  GSH1221    -0.2733
     10  N2        10.6410    7.2160   26.6290 N.am  1221  GSH1221    -0.1968
     11  CA2        9.3700    6.5130   26.8750 C.3   1221  GSH1221     0.1843
     12  C2         8.7770    7.0200   28.2030 C.2   1221  GSH1221     0.2627
     13  O2         9.5000    7.4090   29.1380 O.2   1221  GSH1221    -0.2714
     14  CB2        9.6220    4.9890   26.9950 C.3   1221  GSH1221     0.0997
     15  SG2       10.6450    4.3520   25.6300 S.3   1221  GSH1221    -0.0797
     16  N3         7.4140    7.0110   28.2920 N.am  1221  GSH1221    -0.1917
     17  CA3        6.6700    7.4560   29.4960 C.3   1221  GSH1221     0.2285
     18  C3         6.1770    8.8890   29.3260 C.2   1221  GSH1221     0.3865
     19  O31        5.5420    9.3630   30.2830 O.co2 1221  GSH1221    -0.2437
     20  O32        6.4300    9.5030   28.2580 O.co2 1221  GSH1221    -0.2437
@<TRIPOS>BOND
     1     4     3   ar
     2     1     2    1
     3     2     3    1
     4     2     6    1
     5     3     5   ar
     6     6     7    1
     7     9     8    2
     8     7     8    1
     9     8    10   am
    10    15    14    1
    11    10    11    1
    12    11    14    1
    13    11    12    1
    14    12    16   am
    15    12    13    2
    16    20    18   ar
    17    16    17    1
    18    18    17    1
    19    18    19   ar
