@<TRIPOS>MOLECULE
1zgs_XMM_A_1.pdb
 23 25 0 0 0
SMALL
GASTEIGER

@<TRIPOS>ATOM
      1  O2         5.3540   -2.9190   17.1090 O.3   450  XMM450     -0.2135
      2  C2         3.9380   -3.0100   17.2370 C.3   450  XMM450      0.2542
      3  C3         3.7070   -3.9550   18.4020 C.3   450  XMM450      0.2211
      4  O3         4.2990   -5.2390   18.1460 O.3   450  XMM450     -0.2173
      5  C4         4.3960   -3.3390   19.6040 C.3   450  XMM450      0.2145
      6  O4         4.1610   -4.0740   20.7890 O.3   450  XMM450     -0.2176
      7  C5         3.9520   -1.9210   19.8900 C.3   450  XMM450      0.1846
      8  O5         3.8500   -1.0860   18.7360 O.3   450  XMM450     -0.3157
      9  C6         5.1590   -1.4470   20.6540 C.3   450  XMM450      0.2142
     10  O6         5.0080   -0.0870   20.9450 O.3   450  XMM450     -0.2176
     11  C1         3.3100   -1.6340   17.5190 C.3   450  XMM450      0.3219
     12  O1         1.9220   -1.9300   17.6520 O.2   450  XMM450     -0.4488
     13  C7         0.7530   -1.2070   17.6930 C.2   450  XMM450      0.1623
     14  C8        -0.5210   -1.5560   18.4670 C.2   450  XMM450      0.0605
     15  C9        -1.4510   -0.4520   18.1010 C.2   450  XMM450      0.0673
     16  N1        -0.8580    0.4750   17.1930 N.2   450  XMM450     -0.2445
     17  C11        0.2710   -0.1430   17.1330 C.2   450  XMM450      0.1354
     18  C10       -0.8800   -2.6420   19.3520 C.2   450  XMM450      0.0676
     19 CL          0.1290   -3.6970   19.6390 Cl    450  XMM450     -0.0816
     20  C13       -2.3120   -2.6340   19.9300 C.2   450  XMM450      0.0414
     21 BR         -3.0050   -3.5110   20.8570 Br    450  XMM450     -0.0484
     22  C14       -2.8000   -1.5750   19.4250 C.2   450  XMM450     -0.0122
     23  C12       -2.7520   -0.5060   18.6830 C.3   450  XMM450      0.0724
@<TRIPOS>BOND
     1     1     2    1
     2    17    16    1
     3    17    13    2
     4    16    15    2
     5     2    11    1
     6     2     3    1
     7    11    12    1
     8    11     8    1
     9    12    13    1
    10    13    14    1
    11    15    14    1
    12    15    23    1
    13     4     3    1
    14     3     5    1
    15    14    18    2
    16    23    22    1
    17     8     7    1
    18    18    19    1
    19    18    20    1
    20    22    20    2
    21     5     7    1
    22     5     6    1
    23     7     9    1
    24    20    21    1
    25     9    10    1
