@<TRIPOS>MOLECULE
1zgv_501_A_1.pdb
 24 26 0 0 0
SMALL
GASTEIGER

@<TRIPOS>ATOM
      1  C1        10.7320  -12.5100   23.7680 C.ar  1001  5011001    -0.0021
      2  C2        11.6150  -12.6110   22.6210 C.ar  1001  5011001    -0.0057
      3  C3        12.5060  -11.5690   22.2370 C.ar  1001  5011001     0.0795
      4  C4        12.5770  -10.3810   22.9890 C.ar  1001  5011001     0.0284
      5  C5        11.7790  -10.2680   24.1490 C.ar  1001  5011001     0.0590
      6  C6        10.8750  -11.3150   24.5610 C.ar  1001  5011001     0.0112
      7  N10       13.3400  -11.7050   21.0830 N.pl3 1001  5011001    -0.1329
      8  C11       14.6110  -12.3990   21.2230 C.1   1001  5011001     0.2206
      9  N12       15.7110  -12.1700   20.4040 N.2   1001  5011001    -0.2329
     10  C13       16.6100  -13.0750   20.8400 C.1   1001  5011001     0.3382
     11  N14       16.1280  -13.7970   21.8780 N.pl3 1001  5011001     0.0368
     12  N15       14.9310  -13.4270   22.1280 N.2   1001  5011001     0.0128
     13  N16       17.8630  -13.1950   20.3310 N.2   1001  5011001    -0.3114
     14  C17       18.7030  -14.1750   20.8500 C.2   1001  5011001     0.1323
     15  C18       18.3090  -15.0510   21.9870 C.2   1001  5011001     0.1188
     16  C19       16.9750  -14.8270   22.5700 C.2   1001  5011001     0.3519
     17  N21       16.5790  -15.6550   23.7440 N.pl3 1001  5011001    -0.0335
     18  C22       17.7690  -16.2390   24.4090 C.3   1001  5011001     0.2510
     19  C23       18.4020  -15.1740   25.3320 C.3   1001  5011001     0.0554
     20  C26       19.8840  -15.4410   25.6620 C.3   1001  5011001     0.0044
     21  C29       20.4920  -14.3270   26.4940 C.3   1001  5011001     0.0001
     22  C37       20.0680  -14.3670   20.1790 C.3   1001  5011001     0.0678
     23 CL41       11.9740   -8.7900   25.0390 Cl    1001  5011001    -0.0822
     24  C42       11.6720  -13.8410   21.8100 C.3   1001  5011001     0.0324
@<TRIPOS>BOND
     1    22    14    1
     2    13    10    2
     3    13    14    2
     4     9    10    2
     5     9     8    2
     6    10    11    1
     7    14    15    1
     8     7     8    1
     9     7     3    1
    10     8    12    2
    11    24     2    1
    12    11    12    1
    13    11    16    1
    14    15    16    2
    15     3     2   ar
    16     3     4   ar
    17    16    17    1
    18     2     1   ar
    19     4     5   ar
    20    17    18    1
    21     1     6   ar
    22     5     6   ar
    23     5    23    1
    24    18    19    1
    25    19    20    1
    26    20    21    1
