@<TRIPOS>MOLECULE
1zgy_BRL_A_1.pdb
 25 27 0 0 0
SMALL
GASTEIGER

@<TRIPOS>ATOM
      1  S1        33.2740   -2.1370   27.6560 S.3   503  BRL503      0.0093
      2  O2        34.7450   -3.9680   28.8790 O.2   503  BRL503     -0.2017
      3  O4        32.6000   -4.8780   25.0490 O.2   503  BRL503     -0.2125
      4  O13       30.5660    3.5910   25.8980 O.3   503  BRL503     -0.4736
      5  N3        33.7730   -4.6340   26.9640 N.2   503  BRL503     -0.2557
      6  N16       28.8930    5.0360   28.2980 N.pl3 503  BRL503     -0.2879
      7  N18       26.7060    3.6320   28.3980 N.ar  503  BRL503     -0.2292
      8  C2        34.0440   -3.7150   27.8970 C.1   503  BRL503      0.2450
      9  C4        32.9600   -4.1540   25.9690 C.1   503  BRL503      0.2022
     10  C5        32.4730   -2.6660   26.1070 C.3   503  BRL503      0.1865
     11  C6        32.9140   -1.6840   24.8510 C.3   503  BRL503      0.0562
     12  C7        32.2820   -0.2640   25.0220 C.ar  503  BRL503     -0.0199
     13  C8        30.9410    0.0080   24.5450 C.ar  503  BRL503     -0.0011
     14  C9        30.3320    1.2760   24.7730 C.ar  503  BRL503      0.0366
     15  C10       31.0630    2.3130   25.5140 C.ar  503  BRL503      0.1386
     16  C11       32.4000    2.0510   25.9500 C.ar  503  BRL503      0.0366
     17  C12       33.0030    0.7900   25.7130 C.ar  503  BRL503     -0.0011
     18  C14       29.1160    3.7690   26.0650 C.3   503  BRL503      0.2267
     19  C15       28.8850    5.1300   26.7750 C.3   503  BRL503      0.1396
     20  C16       30.0090    5.7310   29.0460 C.3   503  BRL503      0.1137
     21  C17       27.7710    4.2640   29.0830 C.ar  503  BRL503      0.1318
     22  C19       25.7270    2.9500   29.0790 C.ar  503  BRL503      0.1003
     23  C20       25.7180    2.8630   30.4960 C.ar  503  BRL503      0.0208
     24  C21       26.7610    3.4660   31.2350 C.ar  503  BRL503      0.0045
     25  C22       27.7850    4.1660   30.5550 C.ar  503  BRL503      0.0343
@<TRIPOS>BOND
     1    13    14   ar
     2    13    12   ar
     3    14    15   ar
     4    11    12    1
     5    11    10    1
     6    12    17   ar
     7     3     9    2
     8    15     4    1
     9    15    16   ar
    10    17    16   ar
    11     4    18    1
    12     9    10    1
    13     9     5    2
    14    18    19    1
    15    10     1    1
    16    19     6    1
    17     5     8    2
    18     1     8    1
    19     8     2    2
    20     6    20    1
    21     6    21    1
    22     7    22   ar
    23     7    21   ar
    24    22    23   ar
    25    21    25   ar
    26    23    24   ar
    27    25    24   ar
