@<TRIPOS>MOLECULE
1zh0_NAL_A_1.pdb
 16 17 0 0 0
SMALL
GASTEIGER

@<TRIPOS>ATOM
      1  C1        75.1210   43.1120   -4.9170 C.ar  315  NAL315     -0.0042
      2  C2        74.1710   42.0960   -4.9480 C.ar  315  NAL315     -0.0202
      3  C3        73.2290   42.0490   -5.9950 C.ar  315  NAL315     -0.0042
      4  C4        73.2120   43.0330   -6.9850 C.ar  315  NAL315     -0.0003
      5  C4A       74.1520   44.0660   -6.9320 C.ar  315  NAL315     -0.0000
      6  C5        74.1910   45.0440   -7.9250 C.ar  315  NAL315     -0.0000
      7  C6        75.1490   46.0220   -7.8850 C.ar  315  NAL315     -0.0000
      8  C7        76.0780   46.0760   -6.8550 C.ar  315  NAL315     -0.0000
      9  C8        76.0580   45.1110   -5.8710 C.ar  315  NAL315     -0.0000
     10  C8A       75.1030   44.0950   -5.9000 C.ar  315  NAL315     -0.0003
     11  C9        74.0940   41.1180   -3.7970 C.3   315  NAL315      0.0569
     12  CA        75.4170   40.4230   -3.6290 C.3   315  NAL315      0.1986
     13  C         75.3300   39.4140   -2.4400 C.2   315  NAL315      0.3822
     14  N         75.7480   39.6940   -4.8670 N.3   315  NAL315     -0.1205
     15  O         76.0560   38.3880   -2.4890 O.co2 315  NAL315     -0.2440
     16  OXT       74.6800   39.6840   -1.3910 O.co2 315  NAL315     -0.2440
@<TRIPOS>BOND
     1     6     7   ar
     2     6     5   ar
     3     7     8   ar
     4     4     5   ar
     5     4     3   ar
     6     5    10   ar
     7     8     9   ar
     8     3     2   ar
     9    10     9   ar
    10    10     1   ar
    11     2     1   ar
    12     2    11    1
    13    14    12    1
    14    11    12    1
    15    12    13    1
    16    15    13   ar
    17    13    16   ar
