@<TRIPOS>MOLECULE
1zh6_4AF_A_1.pdb
 15 15 0 0 0
SMALL
GASTEIGER

@<TRIPOS>ATOM
      1  C11       75.0640   44.4720   -7.5650 C.3   315  4AF315      0.0773
      2  C8        74.1700   43.2740   -7.2440 C.2   315  4AF315      0.1735
      3  O2        73.1780   43.0220   -7.9230 O.2   315  4AF315     -0.2913
      4  C7        74.4850   42.3380   -6.1080 C.ar  315  4AF315      0.0347
      5  C9        73.5530   41.3370   -5.8950 C.ar  315  4AF315      0.0025
      6  C10       73.7570   40.4210   -4.9000 C.ar  315  4AF315     -0.0041
      7  C6        75.6440   42.4320   -5.3400 C.ar  315  4AF315      0.0025
      8  C5        75.8410   41.4900   -4.3440 C.ar  315  4AF315     -0.0041
      9  C4        74.9030   40.4890   -4.1350 C.ar  315  4AF315     -0.0202
     10  C3        75.0410   39.4570   -3.0370 C.3   315  4AF315      0.0569
     11  C1        76.3400   38.7350   -3.0820 C.3   315  4AF315      0.1986
     12  C2        76.3240   37.7280   -1.9170 C.2   315  4AF315      0.3822
     13  OX1       76.9540   36.6810   -2.0030 O.co2 315  4AF315     -0.2440
     14  O         75.6840   37.9530   -0.8770 O.co2 315  4AF315     -0.2440
     15  N         76.4490   38.0630   -4.3800 N.3   315  4AF315     -0.1205
@<TRIPOS>BOND
     1     3     2    2
     2     1     2    1
     3     2     4    1
     4     4     5   ar
     5     4     7   ar
     6     5     6   ar
     7     7     8   ar
     8     6     9   ar
     9    15    11    1
    10     8     9   ar
    11     9    10    1
    12    11    10    1
    13    11    12    1
    14    13    12   ar
    15    12    14   ar
