@<TRIPOS>MOLECULE
1zh8_NAP_A_1.pdb
 48 52 0 0 0
SMALL
GASTEIGER

@<TRIPOS>ATOM
      1  PA        49.5420    5.5720   -2.1050 P.3   400  NAP400      0.2189
      2  O1A       48.1340    5.1940   -2.3930 O.2   400  NAP400     -0.5170
      3  O2A       50.2570    4.5900   -1.2740 O.3   400  NAP400     -0.4371
      4  O5B       50.2760    5.8660   -3.5000 O.3   400  NAP400     -0.3112
      5  C5B       51.6560    5.6210   -3.6440 C.3   400  NAP400      0.1813
      6  C4B       51.8670    4.9100   -4.9670 C.3   400  NAP400      0.1820
      7  O4B       53.2540    4.8390   -5.2700 O.3   400  NAP400     -0.3136
      8  C3B       51.3600    3.4730   -4.9290 C.3   400  NAP400      0.2157
      9  O3B       50.8460    3.2320   -6.2060 O.3   400  NAP400     -0.2175
     10  C2B       52.6510    2.7040   -4.7060 C.3   400  NAP400      0.2314
     11  O2B       52.7870    1.3060   -4.9370 O.3   400  NAP400     -0.2630
     12  C1B       53.5840    3.4970   -5.5950 C.3   400  NAP400      0.3158
     13  N9A       54.9810    3.2050   -5.2850 N.pl3 400  NAP400     -0.1439
     14  C8A       55.5300    2.8740   -4.0660 C.3   400  NAP400      0.3377
     15  N7A       56.8600    2.7060   -4.2370 N.2   400  NAP400     -0.2095
     16  C5A       57.1570    2.9200   -5.5460 C.2   400  NAP400      0.2526
     17  C6A       58.3400    2.8790   -6.2730 C.2   400  NAP400      0.4393
     18  N6A       59.4820    2.5610   -5.6870 N.pl3 400  NAP400      0.2180
     19  N1A       58.3340    3.1690   -7.6120 N.2   400  NAP400      0.0021
     20  C2A       57.1500    3.4800   -8.2360 C.3   400  NAP400      0.5254
     21  N3A       55.9760    3.5140   -7.5280 N.2   400  NAP400     -0.0055
     22  C4A       55.9830    3.2410   -6.2080 C.2   400  NAP400      0.3518
     23  O3        49.5500    6.9710   -1.3330 O.3   400  NAP400     -0.2703
     24  PN        48.8690    8.3160   -1.8910 P.3   400  NAP400      0.2189
     25  O1N       48.4620    8.2540   -3.3310 O.2   400  NAP400     -0.5170
     26  O2N       47.9450    8.6260   -0.8090 O.3   400  NAP400     -0.4371
     27  O5D       50.0470    9.4130   -1.8180 O.3   400  NAP400     -0.3112
     28  C5D       51.0500    9.5720   -2.8060 C.3   400  NAP400      0.1813
     29  C4D       51.5540   11.0130   -2.7680 C.3   400  NAP400      0.1799
     30  O4D       50.4490   11.8890   -2.9560 O.3   400  NAP400     -0.3327
     31  C3D       52.1560   11.3530   -1.4010 C.3   400  NAP400      0.2158
     32  O3D       53.3160   12.1380   -1.5460 O.3   400  NAP400     -0.2175
     33  C2D       51.0920   12.1590   -0.6960 C.3   400  NAP400      0.2309
     34  O2D       51.6300   13.0970    0.2130 O.3   400  NAP400     -0.2158
     35  C1D       50.3720   12.8060   -1.8700 C.3   400  NAP400      0.2263
     36  N1N       48.9870   13.1150   -1.5240 N.pl3 400  NAP400     -0.2787
     37  C2N       48.5770   14.4140   -1.6160 C.3   400  NAP400      0.1244
     38  C3N       47.2660   14.7730   -1.2880 C.2   400  NAP400      0.0544
     39  C7N       46.7500   16.1560   -1.6010 C.2   400  NAP400      0.2818
     40  O7N       45.4290   16.4380   -1.2050 O.2   400  NAP400     -0.2670
     41  N7N       47.5110   17.0700   -2.2340 N.am  400  NAP400     -0.0839
     42  C4N       46.3710   13.7790   -0.8690 C.2   400  NAP400      0.0033
     43  C5N       46.7950   12.4460   -0.7910 C.2   400  NAP400      0.0157
     44  C6N       48.1150   12.1240   -1.1220 C.2   400  NAP400      0.0633
     45  P2B       51.9060    0.2460   -5.7690 P.3   400  NAP400      0.5328
     46  O1X       52.2880    0.2360   -7.2340 O.2   400  NAP400     -0.2224
     47  O2X       50.4310    0.5620   -5.6710 O.3   400  NAP400     -0.1145
     48  O3X       52.2290   -1.0840   -5.1230 O.3   400  NAP400     -0.1145
@<TRIPOS>BOND
     1    20    19    1
     2    20    21    1
     3    19    17    2
     4    21    22    2
     5    46    45    2
     6    17    18    1
     7    17    16    1
     8    22    16    1
     9    22    13    1
    10     9     8    1
    11    45    47    1
    12    45    48    1
    13    45    11    1
    14    12    13    1
    15    12     7    1
    16    12    10    1
    17    16    15    2
    18    13    14    1
    19     7     6    1
    20     6     8    1
    21     6     5    1
    22    11    10    1
    23     8    10    1
    24    15    14    1
    25     5     4    1
    26     4     1    1
    27    25    24    2
    28    30    29    1
    29    30    35    1
    30    28    29    1
    31    28    27    1
    32    29    31    1
    33     2     1    2
    34    41    39   am
    35     1    23    1
    36     1     3    1
    37    24    27    1
    38    24    23    1
    39    24    26    1
    40    35    36    1
    41    35    33    1
    42    37    36    1
    43    37    38    1
    44    39    38    1
    45    39    40    2
    46    32    31    1
    47    36    44    1
    48    31    33    1
    49    38    42    2
    50    44    43    2
    51    42    43    1
    52    33    34    1
