@<TRIPOS>MOLECULE
1zh9_MPX_A_1.pdb
 21 22 0 0 0
SMALL
GASTEIGER

@<TRIPOS>ATOM
      1  C1        15.6790    4.0230   15.8780 C.ar  500  MPX500      0.1251
      2  C2        14.7260    5.0890   15.6860 C.ar  500  MPX500      0.0213
      3  C3        15.2380    6.1760   14.9660 C.ar  500  MPX500      0.0179
      4  C4        16.5300    6.3270   14.4320 C.ar  500  MPX500      0.0725
      5  C5        17.4450    5.2560   14.6400 C.ar  500  MPX500      0.0179
      6  C6        16.9850    4.1330   15.3670 C.ar  500  MPX500      0.0213
      7  N10       17.0550    7.4410   13.6990 N.am  500  MPX500     -0.1894
      8  C16       16.3560    8.3790   12.9590 C.2   500  MPX500      0.1908
      9  S25       14.6450    8.4370   12.7080 S.2   500  MPX500     -0.0137
     10  N17       17.1460    9.3510   12.3800 N.am  500  MPX500     -0.1397
     11  N18       18.6310    9.2170   12.6400 N.3   500  MPX500     -0.1824
     12  C23       19.0530   10.4830   13.3500 C.3   500  MPX500      0.1112
     13  C22       20.5920   10.3900   13.6530 C.3   500  MPX500      0.0915
     14  N21       21.2760   10.2480   12.3320 N.3   500  MPX500     -0.2690
     15  C24       22.7390   10.1710   12.5570 C.3   500  MPX500      0.0897
     16  C20       20.8410    9.0140   11.6040 C.3   500  MPX500      0.0915
     17  C19       19.2920    8.9630   11.4540 C.3   500  MPX500      0.1112
     18  S7        15.0980    2.6330   16.7760 S.O2  500  MPX500      0.0935
     19  N15       15.6780    1.4340   16.1180 N.3   500  MPX500      0.0392
     20  O14       13.6400    2.6670   16.6400 O.2   500  MPX500     -0.1503
     21  O13       15.6200    2.8140   18.1550 O.2   500  MPX500     -0.1503
@<TRIPOS>BOND
     1    17    16    1
     2    17    11    1
     3    16    14    1
     4    14    15    1
     5    14    13    1
     6    10    11    1
     7    10     8    1
     8    11    12    1
     9     9     8    2
    10     8     7    1
    11    12    13    1
    12     7     4    1
    13     4     5   ar
    14     4     3   ar
    15     5     6   ar
    16     3     2   ar
    17     6     1   ar
    18     2     1   ar
    19     1    18    1
    20    19    18    1
    21    20    18    2
    22    18    21    2
