@<TRIPOS>MOLECULE
1zha_R5P_A_1.pdb
 14 13 0 0 0
SMALL
GASTEIGER

@<TRIPOS>ATOM
      1  C1        35.8650   51.8430   18.0020 C.2   1269  R5P1269     0.2427
      2  O1        35.4520   50.6960   18.0230 O.2   1269  R5P1269    -0.2854
      3  C2        34.9120   53.0190   17.8310 C.3   1269  R5P1269     0.2486
      4  O2        34.5130   53.0970   16.4650 O.3   1269  R5P1269    -0.2118
      5  C3        35.6790   54.3260   18.0440 C.3   1269  R5P1269     0.2224
      6  O3        34.9080   55.4820   17.6860 O.3   1269  R5P1269    -0.2171
      7  C4        37.1340   54.0760   17.6380 C.3   1269  R5P1269     0.2151
      8  O4        38.0890   54.2140   18.6950 O.3   1269  R5P1269    -0.2176
      9  C5        37.4980   54.9330   16.4410 C.3   1269  R5P1269     0.1892
     10  O5        38.7870   55.5010   16.6300 O.3   1269  R5P1269    -0.2674
     11  P         39.6120   56.4250   15.6410 P.3   1269  R5P1269     0.5327
     12  O1P       41.0290   56.3120   16.0640 O.3   1269  R5P1269    -0.1145
     13  O2P       39.5600   55.7940   14.3010 O.2   1269  R5P1269    -0.2224
     14  O3P       39.0320   57.7970   15.7060 O.3   1269  R5P1269    -0.1145
@<TRIPOS>BOND
     1    13    11    2
     2    11    14    1
     3    11    12    1
     4    11    10    1
     5     9    10    1
     6     9     7    1
     7     4     3    1
     8     7     5    1
     9     7     8    1
    10     6     5    1
    11     3     1    1
    12     3     5    1
    13     1     2    2
