@<TRIPOS>MOLECULE
1zha_PEP_A_1.pdb
 10 9 0 0 0
SMALL
GASTEIGER

@<TRIPOS>ATOM
      1  C1        32.6640   51.7710   22.5520 C.2   1268  PEP1268     0.4216
      2  O1        33.3990   52.3470   23.4030 O.co2 1268  PEP1268    -0.2371
      3  O2'       31.4110   51.7810   22.7210 O.co2 1268  PEP1268    -0.2371
      4  C2        33.2330   51.0490   21.3600 C.2   1268  PEP1268     0.2283
      5  C3        34.5340   50.8270   21.1990 C.2   1268  PEP1268     0.0477
      6  O2        32.2480   50.5980   20.4960 O.2   1268  PEP1268    -0.3930
      7  P         32.3050   49.5780   19.2290 P.3   1268  PEP1268     0.5889
      8  O1P       32.9550   48.2920   19.7390 O.3   1268  PEP1268    -0.1039
      9  O2P       33.1140   50.3240   18.1940 O.2   1268  PEP1268    -0.2114
     10  O3P       30.8320   49.3820   18.8390 O.3   1268  PEP1268    -0.1039
@<TRIPOS>BOND
     1     9     7    2
     2    10     7    1
     3     7     8    1
     4     7     6    1
     5     6     4    1
     6     5     4    2
     7     4     1    1
     8     1     3   ar
     9     1     2   ar
