@<TRIPOS>MOLECULE
1zhf_SAH_A_1.pdb
 26 28 0 0 0
SMALL
GASTEIGER

@<TRIPOS>ATOM
      1  N         34.8640   75.9610  110.7140 N.3   3994  SAH3994    -0.1208
      2  CA        33.5940   75.9810  111.5590 C.3   3994  SAH3994     0.1952
      3  CB        33.0660   74.6960  112.0690 C.3   3994  SAH3994     0.0422
      4  CG        32.7630   73.5840  111.1070 C.3   3994  SAH3994     0.0597
      5  SD        31.1210   72.9190  111.5930 S.3   3994  SAH3994    -0.1375
      6  C         33.8320   76.9580  112.7770 C.2   3994  SAH3994     0.3819
      7  O         34.9220   77.5410  112.9010 O.co2 3994  SAH3994    -0.2441
      8  OXT       32.8380   77.0810  113.5880 O.co2 3994  SAH3994    -0.2441
      9  C5'       30.9900   71.6160  110.4790 C.3   3994  SAH3994     0.0899
     10  C4'       30.6140   72.1900  109.0460 C.3   3994  SAH3994     0.1630
     11  O4'       30.5620   71.0090  108.2930 O.3   3994  SAH3994    -0.3153
     12  C3'       29.2320   72.7860  108.8630 C.3   3994  SAH3994     0.2168
     13  O3'       29.2980   74.1800  108.5630 O.3   3994  SAH3994    -0.2175
     14  C2'       28.6260   71.8910  107.7060 C.3   3994  SAH3994     0.2569
     15  O2'       27.7930   72.6190  106.8200 O.3   3994  SAH3994    -0.2130
     16  C1'       29.8740   71.3120  107.0610 C.3   3994  SAH3994     0.3185
     17  N9        29.7520   70.1750  106.3870 N.pl3 3994  SAH3994    -0.1439
     18  C8        29.0480   68.9940  106.5960 C.3   3994  SAH3994     0.3377
     19  N7        29.2050   68.0980  105.6810 N.2   3994  SAH3994    -0.2095
     20  C5        30.1010   68.7090  104.7490 C.2   3994  SAH3994     0.2526
     21  C6        30.6670   68.2330  103.5130 C.2   3994  SAH3994     0.4393
     22  N6        30.4120   67.0340  103.0040 N.pl3 3994  SAH3994     0.2180
     23  N1        31.5110   69.1180  102.8750 N.2   3994  SAH3994     0.0021
     24  C2        31.7970   70.3580  103.3640 C.3   3994  SAH3994     0.5254
     25  N3        31.2740   70.8490  104.5400 N.2   3994  SAH3994    -0.0055
     26  C4        30.4410   69.9720  105.1720 C.2   3994  SAH3994     0.3518
@<TRIPOS>BOND
     1    23    24    1
     2    23    21    2
     3    22    21    1
     4    24    25    1
     5    21    20    1
     6    25    26    2
     7    20    26    1
     8    20    19    2
     9    26    17    1
    10    19    18    1
    11    17    18    1
    12    17    16    1
    13    15    14    1
    14    16    14    1
    15    16    11    1
    16    14    12    1
    17    11    10    1
    18    13    12    1
    19    12    10    1
    20    10     9    1
    21     9     5    1
    22     1     2    1
    23     4     5    1
    24     4     3    1
    25     2     3    1
    26     2     6    1
    27     6     7   ar
    28     6     8   ar
