@<TRIPOS>MOLECULE
1zhj_GAL_A_1.pdb
 12 12 0 0 0
SMALL
GASTEIGER

@<TRIPOS>ATOM
      1  C1        17.8180   63.6580   46.5140 C.3     1  GAL1        0.3024
      2  C2        16.9370   62.4490   46.1830 C.3     1  GAL1        0.2434
      3  C3        17.5730   61.1740   46.7410 C.3     1  GAL1        0.2199
      4  C4        19.0190   61.0410   46.2570 C.3     1  GAL1        0.2144
      5  C5        19.7870   62.3200   46.6040 C.3     1  GAL1        0.1836
      6  C6        21.2320   62.2200   46.1100 C.3     1  GAL1        0.2142
      7  O1        17.2540   64.8280   45.9180 O.3     1  GAL1       -0.1869
      8  O2        15.6500   62.6320   46.7790 O.3     1  GAL1       -0.2148
      9  O3        16.8170   60.0380   46.3110 O.3     1  GAL1       -0.2174
     10  O4        19.0270   60.8560   44.8390 O.3     1  GAL1       -0.2176
     11  O5        19.1430   63.4520   45.9960 O.3     1  GAL1       -0.3236
     12  O6        21.9370   63.4110   46.4710 O.3     1  GAL1       -0.2176
@<TRIPOS>BOND
     1    10     4    1
     2     7     1    1
     3    11     1    1
     4    11     5    1
     5     6    12    1
     6     6     5    1
     7     2     1    1
     8     2     3    1
     9     2     8    1
    10     4     5    1
    11     4     3    1
    12     9     3    1
