@<TRIPOS>MOLECULE
1zhm_GSH_A_1.pdb
 14 13 0 0 0
SMALL
GASTEIGER

@<TRIPOS>ATOM
      1  CG1        4.8140   26.4270   38.5750 C.3   1002  GSH1002     0.0964
      2  CD1        4.9810   27.6480   37.6400 C.2   1002  GSH1002     0.2423
      3  OE1        4.2960   28.6760   37.8170 O.2   1002  GSH1002    -0.2733
      4  N2         5.9060   27.4880   36.6570 N.am  1002  GSH1002    -0.1968
      5  CA2        6.1630   28.5790   35.6990 C.3   1002  GSH1002     0.1843
      6  C2         5.7450   28.1890   34.2680 C.2   1002  GSH1002     0.2627
      7  O2         5.6030   27.0040   33.9060 O.2   1002  GSH1002    -0.2714
      8  CB2        7.6820   28.9570   35.6650 C.3   1002  GSH1002     0.0997
      9  SG2        8.7900   27.5640   35.2130 S.3   1002  GSH1002    -0.0797
     10  N3         5.5690   29.2530   33.4200 N.am  1002  GSH1002    -0.1917
     11  CA3        5.2000   29.1740   31.9880 C.3   1002  GSH1002     0.2285
     12  C3         3.7950   28.6340   31.7650 C.2   1002  GSH1002     0.3865
     13  O31        3.6450   27.9540   30.7400 O.co2 1002  GSH1002    -0.2437
     14  O32        2.8870   28.9010   32.5970 O.co2 1002  GSH1002    -0.2437
@<TRIPOS>BOND
     1    13    12   ar
     2    12    11    1
     3    12    14   ar
     4    11    10    1
     5    10     6   am
     6     7     6    2
     7     6     5    1
     8     9     8    1
     9     8     5    1
    10     5     4    1
    11     4     2   am
    12     2     3    2
    13     2     1    1
