@<TRIPOS>MOLECULE
1zhn_FUC_A_1.pdb
 10 10 0 0 0
SMALL
GASTEIGER

@<TRIPOS>ATOM
      1  C1       -15.1140   55.1970   20.6700 C.3   287  FUC287      0.1776
      2  C2       -14.0510   54.4430   19.8620 C.3   287  FUC287      0.2141
      3  C3       -12.7080   54.5800   20.5770 C.3   287  FUC287      0.2172
      4  C4       -12.8770   54.0370   21.9960 C.3   287  FUC287      0.2116
      5  C5       -13.9490   54.8530   22.7070 C.3   287  FUC287      0.1483
      6  C6       -14.0840   54.4240   24.1630 C.3   287  FUC287      0.0349
      7  O2       -13.9230   54.8940   18.5280 O.3   287  FUC287     -0.2176
      8  O3       -11.6750   53.9500   19.8500 O.3   287  FUC287     -0.2175
      9  O4       -13.3130   52.6910   21.9970 O.3   287  FUC287     -0.2177
     10  O5       -15.1510   54.6610   21.9840 O.3   287  FUC287     -0.3508
@<TRIPOS>BOND
     1     7     2    1
     2     8     3    1
     3     2     3    1
     4     2     1    1
     5     3     4    1
     6     1    10    1
     7    10     5    1
     8     4     9    1
     9     4     5    1
    10     5     6    1
