@<TRIPOS>MOLECULE
1zhp_GSH_A_1.pdb
 14 13 0 0 0
SMALL
GASTEIGER

@<TRIPOS>ATOM
      1  CG1       34.6530   22.4590   62.6930 C.3   1002  GSH1002     0.0964
      2  CD1       33.4860   23.4190   63.0820 C.2   1002  GSH1002     0.2423
      3  OE1       32.3860   23.2870   62.5020 O.2   1002  GSH1002    -0.2733
      4  N2        33.7490   24.3780   64.0680 N.am  1002  GSH1002    -0.1968
      5  CA2       32.6600   25.3220   64.4660 C.3   1002  GSH1002     0.1843
      6  C2        32.8690   26.6390   63.7720 C.2   1002  GSH1002     0.2627
      7  O2        33.9710   26.9880   63.3160 O.2   1002  GSH1002    -0.2714
      8  CB2       32.5680   25.6230   66.0250 C.3   1002  GSH1002     0.0997
      9  SG2       33.9760   26.5480   66.7870 S.3   1002  GSH1002    -0.0797
     10  N3        31.7530   27.3890   63.7170 N.am  1002  GSH1002    -0.1917
     11  CA3       31.6280   28.7280   63.1360 C.3   1002  GSH1002     0.2285
     12  C3        31.9930   28.7940   61.6710 C.2   1002  GSH1002     0.3865
     13  O31       32.7040   29.7650   61.3570 O.co2 1002  GSH1002    -0.2437
     14  O32       31.5490   27.9190   60.8860 O.co2 1002  GSH1002    -0.2437
@<TRIPOS>BOND
     1    14    12   ar
     2    13    12   ar
     3    12    11    1
     4     3     2    2
     5     1     2    1
     6     2     4   am
     7    11    10    1
     8     7     6    2
     9    10     6   am
    10     6     5    1
    11     4     5    1
    12     5     8    1
    13     8     9    1
