@<TRIPOS>MOLECULE
1zhs_BMA_A_1.pdb
 11 11 0 0 0
SMALL
GASTEIGER

@<TRIPOS>ATOM
      1  C1        13.2720   15.4790  -10.8390 C.3   203  BMA203      0.1777
      2  C2        14.4650   15.4150   -9.8890 C.3   203  BMA203      0.2141
      3  C3        13.9440   15.2950   -8.4540 C.3   203  BMA203      0.2173
      4  C4        12.9480   16.3980   -8.1220 C.3   203  BMA203      0.2142
      5  C5        11.8510   16.5090   -9.1940 C.3   203  BMA203      0.1810
      6  C6        11.0270   17.7680   -9.0220 C.3   203  BMA203      0.2141
      7  O2        15.2640   16.5870  -10.0320 O.3   203  BMA203     -0.2176
      8  O3        15.0390   15.3660   -7.5260 O.3   203  BMA203     -0.2175
      9  O4        12.3580   16.1210   -6.8610 O.3   203  BMA203     -0.2176
     10  O5        12.4460   16.5850  -10.5080 O.3   203  BMA203     -0.3481
     11  O6        11.9170   18.8990   -8.9690 O.3   203  BMA203     -0.2176
@<TRIPOS>BOND
     1     1    10    1
     2     1     2    1
     3    10     5    1
     4     7     2    1
     5     2     3    1
     6     5     6    1
     7     5     4    1
     8     6    11    1
     9     3     4    1
    10     3     8    1
    11     4     9    1
