@<TRIPOS>MOLECULE
1zhs_NAG_A_1.pdb
 15 15 0 0 0
SMALL
GASTEIGER

@<TRIPOS>ATOM
      1  C1        10.6960   10.5310  -19.2850 C.3   201  NAG201      0.2917
      2  C2        10.9190   10.1700  -17.8120 C.3   201  NAG201      0.1871
      3  C3        10.8670   11.4210  -16.9220 C.3   201  NAG201      0.2095
      4  C4        11.6930   12.5880  -17.5010 C.3   201  NAG201      0.2136
      5  C5        11.4130   12.7680  -18.9940 C.3   201  NAG201      0.1835
      6  C6        12.3030   13.8070  -19.6430 C.3   201  NAG201      0.2142
      7  C7        10.1490    7.9440  -17.3100 C.2   201  NAG201      0.2421
      8  C8         9.1030    7.0780  -16.6300 C.3   201  NAG201      0.0964
      9  N2         9.8910    9.2440  -17.3810 N.am  201  NAG201     -0.1991
     10  O1        10.9060    9.4150  -20.0770 O.3   201  NAG201     -0.1879
     11  O3        11.3570   11.0850  -15.6290 O.3   201  NAG201     -0.2183
     12  O4        11.3410   13.8070  -16.8280 O.3   201  NAG201     -0.2176
     13  O5        11.6340   11.5290  -19.6810 O.3   201  NAG201     -0.3242
     14  O6        13.6730   13.5090  -19.4310 O.3   201  NAG201     -0.2176
     15  O7        11.1740    7.4340  -17.7660 O.2   201  NAG201     -0.2733
@<TRIPOS>BOND
     1    10     1    1
     2    13     1    1
     3    13     5    1
     4     6    14    1
     5     6     5    1
     6     1     2    1
     7     5     4    1
     8     2     9    1
     9     2     3    1
    10    15     7    2
    11     4     3    1
    12     4    12    1
    13     9     7   am
    14     7     8    1
    15     3    11    1
