@<TRIPOS>MOLECULE
1zhs_MAN_A_1.pdb
 11 11 0 0 0
SMALL
GASTEIGER

@<TRIPOS>ATOM
      1  C1        11.2990   20.1230   -9.2500 C.3   205  MAN205      0.1777
      2  C2        12.3500   21.2350   -9.1750 C.3   205  MAN205      0.2141
      3  C3        12.8710   21.3330   -7.7430 C.3   205  MAN205      0.2173
      4  C4        11.7060   21.5850   -6.7830 C.3   205  MAN205      0.2142
      5  C5        10.6190   20.5170   -6.9590 C.3   205  MAN205      0.1810
      6  C6         9.3650   20.8490   -6.1710 C.3   205  MAN205      0.2141
      7  O2        11.7670   22.4720   -9.5550 O.3   205  MAN205     -0.2176
      8  O3        13.8130   22.3910   -7.6460 O.3   205  MAN205     -0.2175
      9  O4        12.1790   21.5600   -5.4450 O.3   205  MAN205     -0.2176
     10  O5        10.2300   20.4150   -8.3500 O.3   205  MAN205     -0.3481
     11  O6         8.6180   21.8830   -6.8010 O.3   205  MAN205     -0.2176
@<TRIPOS>BOND
     1     7     2    1
     2     1     2    1
     3     1    10    1
     4     2     3    1
     5    10     5    1
     6     3     8    1
     7     3     4    1
     8     5     4    1
     9     5     6    1
    10    11     6    1
    11     4     9    1
