@<TRIPOS>MOLECULE
1zht_HCR_A_1.pdb
 29 32 0 0 0
SMALL
GASTEIGER

@<TRIPOS>ATOM
      1  C18       57.3680   32.5750   28.6630 C.3   1001  HCR1001     0.0000
      2  C13       56.6550   33.9190   28.4630 C.3   1001  HCR1001     0.0001
      3  C12       57.5180   35.0900   28.9420 C.3   1001  HCR1001     0.0000
      4  C11       57.7480   35.0020   30.4540 C.3   1001  HCR1001     0.0004
      5  C9        56.4440   34.9330   31.2650 C.3   1001  HCR1001     0.0062
      6  C10       56.6990   34.8070   32.7730 C.3   1001  HCR1001     0.0152
      7  C19       57.6540   33.6520   33.0730 C.3   1001  HCR1001     0.0040
      8  C1        57.3030   36.1230   33.2830 C.3   1001  HCR1001     0.0063
      9  C2        57.3740   36.2220   34.8130 C.3   1001  HCR1001     0.0335
     10  C3        55.9750   36.1130   35.4270 C.3   1001  HCR1001     0.1560
     11  O1        56.0400   36.2340   36.8490 O.3   1001  HCR1001    -0.2228
     12  C4        55.3670   34.7550   35.0600 C.3   1001  HCR1001     0.0546
     13  C5        55.4010   34.5320   33.5470 C.2   1001  HCR1001    -0.0441
     14  C6        54.2330   34.1060   32.9190 C.2   1001  HCR1001    -0.0023
     15  C7        54.1390   33.8870   31.4080 C.3   1001  HCR1001     0.1733
     16  O2        53.4530   32.6610   31.1540 O.3   1001  HCR1001    -0.2183
     17  C8        55.5170   33.8250   30.7400 C.3   1001  HCR1001     0.0350
     18  C14       55.3330   33.9890   29.2290 C.3   1001  HCR1001     0.0028
     19  C15       54.5120   32.9160   28.5170 C.3   1001  HCR1001     0.0001
     20  C16       54.7380   33.3300   27.0600 C.3   1001  HCR1001     0.0000
     21  C17       56.0810   34.0710   27.0490 C.3   1001  HCR1001     0.0000
     22  C20       56.9920   33.5850   25.9150 C.3   1001  HCR1001     0.0000
     23  C21       58.2800   34.4110   25.8620 C.3   1001  HCR1001     0.0000
     24  C22       56.2500   33.6720   24.5790 C.3   1001  HCR1001     0.0000
     25  C23       56.9680   32.9370   23.4450 C.3   1001  HCR1001     0.0000
     26  C24       56.2110   33.1000   22.1220 C.3   1001  HCR1001     0.0000
     27  C25       54.9490   32.2400   21.9990 C.3   1001  HCR1001     0.0000
     28  C27       53.9920   32.4150   23.1790 C.3   1001  HCR1001     0.0000
     29  C26       54.2300   32.5730   20.6890 C.3   1001  HCR1001     0.0000
@<TRIPOS>BOND
     1    29    27    1
     2    27    26    1
     3    27    28    1
     4    26    25    1
     5    25    24    1
     6    24    22    1
     7    23    22    1
     8    22    21    1
     9    21    20    1
    10    21     2    1
    11    20    19    1
    12     2     1    1
    13     2     3    1
    14     2    18    1
    15    19    18    1
    16     3     4    1
    17    18    17    1
    18     4     5    1
    19    17     5    1
    20    17    15    1
    21    16    15    1
    22     5     6    1
    23    15    14    1
    24     6     7    1
    25     6     8    1
    26     6    13    1
    27    14    13    2
    28     8     9    1
    29    13    12    1
    30     9    10    1
    31    12    10    1
    32    10    11    1
