@<TRIPOS>MOLECULE
1zhw_HC2_A_1.pdb
 29 32 0 0 0
SMALL
GASTEIGER

@<TRIPOS>ATOM
      1  C1        57.2880   36.2750   33.2290 C.3   1001  HC21001     0.0063
      2  C2        57.3430   36.3930   34.7560 C.3   1001  HC21001     0.0335
      3  C3        55.9560   36.1850   35.3730 C.3   1001  HC21001     0.1560
      4  C4        55.4390   34.7890   35.0140 C.3   1001  HC21001     0.0545
      5  C5        55.5270   34.5410   33.5060 C.2   1001  HC21001    -0.0466
      6  C6        54.4320   33.9970   32.8420 C.2   1001  HC21001    -0.0345
      7  C7        54.3420   33.7260   31.4810 C.3   1001  HC21001     0.0254
      8  C8        55.7030   33.7430   30.7770 C.3   1001  HC21001     0.0046
      9  C9        56.5470   34.9410   31.2330 C.3   1001  HC21001     0.0038
     10  C10       56.8100   34.9000   32.7460 C.3   1001  HC21001     0.0150
     11  C11       57.8370   35.0620   30.4090 C.3   1001  HC21001     0.0003
     12  C12       57.5770   35.0670   28.8970 C.3   1001  HC21001     0.0001
     13  C13       56.8090   33.8090   28.4790 C.3   1001  HC21001     0.0023
     14  C14       55.4940   33.8030   29.2610 C.3   1001  HC21001     0.0004
     15  C15       54.7520   32.6220   28.6320 C.3   1001  HC21001     0.0001
     16  C16       55.0120   32.8590   27.1410 C.3   1001  HC21001     0.0024
     17  C17       56.1730   33.8610   27.0840 C.3   1001  HC21001     0.0281
     18  C18       57.6340   32.5410   28.7270 C.3   1001  HC21001     0.0001
     19  C19       57.8660   33.8390   33.0770 C.3   1001  HC21001     0.0040
     20  C20       57.0790   33.6710   25.8600 C.3   1001  HC21001     0.1266
     21  C21       57.7750   32.3070   25.8680 C.3   1001  HC21001     0.0329
     22  C22       56.2410   33.8070   24.5830 C.3   1001  HC21001     0.0304
     23  C23       57.0610   33.6190   23.3030 C.3   1001  HC21001     0.0025
     24  C24       56.1880   33.6750   22.0460 C.3   1001  HC21001     0.0001
     25  C25       55.2100   32.5020   21.9370 C.3   1001  HC21001     0.0000
     26  C26       54.3080   32.6750   20.7120 C.3   1001  HC21001     0.0000
     27  C27       55.9410   31.1600   21.8490 C.3   1001  HC21001     0.0000
     28  O1        56.0370   36.3160   36.7960 O.3   1001  HC21001    -0.2228
     29  O2        58.0600   34.7120   25.8590 O.3   1001  HC21001    -0.2257
@<TRIPOS>BOND
     1    26    25    1
     2    27    25    1
     3    25    24    1
     4    24    23    1
     5    23    22    1
     6    22    20    1
     7    29    20    1
     8    20    21    1
     9    20    17    1
    10    17    16    1
    11    17    13    1
    12    16    15    1
    13    13    18    1
    14    13    12    1
    15    13    14    1
    16    15    14    1
    17    12    11    1
    18    14     8    1
    19    11     9    1
    20     8     9    1
    21     8     7    1
    22     9    10    1
    23     7     6    1
    24    10    19    1
    25    10     1    1
    26    10     5    1
    27     6     5    2
    28     1     2    1
    29     5     4    1
    30     2     3    1
    31     4     3    1
    32     3    28    1
