@<TRIPOS>MOLECULE
1zhx_HC3_A_1.pdb
 29 32 0 0 0
SMALL
GASTEIGER

@<TRIPOS>ATOM
      1  C18       57.5640   32.6010   28.8800 C.3   1001  HC31001     0.0000
      2  C13       56.7780   33.9060   28.7080 C.3   1001  HC31001     0.0000
      3  C12       57.5850   35.1200   29.1810 C.3   1001  HC31001     0.0000
      4  C11       57.8430   35.0350   30.6900 C.3   1001  HC31001     0.0003
      5  C9        56.5470   34.9240   31.5050 C.3   1001  HC31001     0.0038
      6  C10       56.7950   34.8400   33.0180 C.3   1001  HC31001     0.0150
      7  C19       57.8220   33.7500   33.3420 C.3   1001  HC31001     0.0040
      8  C1        57.2940   36.1940   33.5370 C.3   1001  HC31001     0.0063
      9  C2        57.3230   36.2940   35.0670 C.3   1001  HC31001     0.0335
     10  C3        55.9200   36.0910   35.6470 C.3   1001  HC31001     0.1560
     11  O1        55.9540   36.2200   37.0710 O.3   1001  HC31001    -0.2228
     12  C4        55.4080   34.6980   35.2690 C.3   1001  HC31001     0.0545
     13  C5        55.4930   34.4930   33.7540 C.2   1001  HC31001    -0.0466
     14  C6        54.3830   34.0130   33.0680 C.2   1001  HC31001    -0.0345
     15  C7        54.2920   33.7980   31.6970 C.3   1001  HC31001     0.0254
     16  C8        55.6590   33.7760   31.0050 C.3   1001  HC31001     0.0046
     17  C14       55.4640   33.9090   29.4910 C.3   1001  HC31001     0.0003
     18  C15       54.6730   32.7930   28.8090 C.3   1001  HC31001     0.0000
     19  C16       54.9490   33.0860   27.3310 C.3   1001  HC31001     0.0000
     20  C17       56.1500   34.0410   27.3160 C.3   1001  HC31001     0.0000
     21  C20       57.0540   33.8090   26.0980 C.3   1001  HC31001     0.0000
     22  C21       58.1520   34.8720   26.0130 C.3   1001  HC31001     0.0000
     23  C22       56.1890   33.8170   24.8330 C.3   1001  HC31001     0.0001
     24  C23       56.9370   33.5070   23.5340 C.3   1001  HC31001     0.0025
     25  C24       55.9180   33.2750   22.4140 C.3   1001  HC31001     0.0304
     26  C25       56.5390   33.1810   21.0170 C.3   1001  HC31001     0.1268
     27  C26       57.6000   32.0790   20.9620 C.3   1001  HC31001     0.0329
     28  C27       55.4390   32.8720   19.9990 C.3   1001  HC31001     0.0329
     29  O2        57.1350   34.4420   20.7050 O.3   1001  HC31001    -0.2257
@<TRIPOS>BOND
     1    28    26    1
     2    29    26    1
     3    27    26    1
     4    26    25    1
     5    25    24    1
     6    24    23    1
     7    23    21    1
     8    22    21    1
     9    21    20    1
    10    20    19    1
    11    20     2    1
    12    19    18    1
    13     2     1    1
    14     2     3    1
    15     2    17    1
    16    18    17    1
    17     3     4    1
    18    17    16    1
    19     4     5    1
    20    16     5    1
    21    16    15    1
    22     5     6    1
    23    15    14    1
    24     6     7    1
    25     6     8    1
    26     6    13    1
    27    14    13    2
    28     8     9    1
    29    13    12    1
    30     9    10    1
    31    12    10    1
    32    10    11    1
