@<TRIPOS>MOLECULE
1zhy_CLR_A_1.pdb
 28 31 0 0 0
SMALL
GASTEIGER

@<TRIPOS>ATOM
      1  C1        57.7400   36.0540   33.4270 C.3   1001  CLR1001     0.0063
      2  C2        57.7820   36.1530   34.9560 C.3   1001  CLR1001     0.0335
      3  C3        56.3760   36.0200   35.5470 C.3   1001  CLR1001     0.1560
      4  C4        55.7960   34.6540   35.1730 C.3   1001  CLR1001     0.0545
      5  C5        55.8600   34.4410   33.6580 C.2   1001  CLR1001    -0.0466
      6  C6        54.7230   34.0100   32.9840 C.2   1001  CLR1001    -0.0345
      7  C7        54.6060   33.8010   31.6150 C.3   1001  CLR1001     0.0254
      8  C8        55.9620   33.7420   30.9020 C.3   1001  CLR1001     0.0046
      9  C9        56.9070   34.8450   31.3980 C.3   1001  CLR1001     0.0038
     10  C10       57.1660   34.7310   32.9070 C.3   1001  CLR1001     0.0150
     11  C11       58.2000   34.8910   30.5720 C.3   1001  CLR1001     0.0003
     12  C12       57.9480   34.9520   29.0590 C.3   1001  CLR1001     0.0000
     13  C13       57.0630   33.7850   28.6110 C.3   1001  CLR1001     0.0000
     14  C14       55.7530   33.8960   29.3930 C.3   1001  CLR1001     0.0003
     15  C15       54.8930   32.8320   28.7130 C.3   1001  CLR1001     0.0000
     16  C16       55.1270   33.1900   27.2420 C.3   1001  CLR1001     0.0000
     17  C17       56.4720   33.9260   27.2040 C.3   1001  CLR1001     0.0000
     18  C18       57.7540   32.4310   28.8240 C.3   1001  CLR1001     0.0000
     19  C19       58.1370   33.5840   33.2050 C.3   1001  CLR1001     0.0040
     20  C20       57.3590   33.4520   26.0460 C.3   1001  CLR1001     0.0000
     21  C21       58.6160   34.3190   25.9510 C.3   1001  CLR1001     0.0000
     22  C22       56.5810   33.5110   24.7270 C.3   1001  CLR1001     0.0000
     23  C23       57.3250   32.8640   23.5550 C.3   1001  CLR1001     0.0000
     24  C24       56.5200   32.9270   22.2530 C.3   1001  CLR1001     0.0000
     25  C25       55.2910   32.0110   22.2620 C.3   1001  CLR1001     0.0000
     26  C26       54.6480   31.9210   20.8760 C.3   1001  CLR1001     0.0000
     27  C27       54.2580   32.4620   23.2970 C.3   1001  CLR1001     0.0000
     28  O1        56.4380   36.1370   36.9710 O.3   1001  CLR1001    -0.2228
@<TRIPOS>BOND
     1    26    25    1
     2    24    25    1
     3    24    23    1
     4    25    27    1
     5    23    22    1
     6    22    20    1
     7    21    20    1
     8    20    17    1
     9    17    16    1
    10    17    13    1
    11    16    15    1
    12    13    18    1
    13    13    12    1
    14    13    14    1
    15    15    14    1
    16    12    11    1
    17    14     8    1
    18    11     9    1
    19     8     9    1
    20     8     7    1
    21     9    10    1
    22     7     6    1
    23    10    19    1
    24    10     1    1
    25    10     5    1
    26     6     5    2
    27     1     2    1
    28     5     4    1
    29     2     3    1
    30     4     3    1
    31     3    28    1
