@<TRIPOS>MOLECULE
1zhz_ERG_A_1.pdb
 29 32 0 0 0
SMALL
GASTEIGER

@<TRIPOS>ATOM
      1  C1        57.2750   36.1050   33.2930 C.3   1001  ERG1001     0.0066
      2  C2        57.3150   36.1500   34.8230 C.3   1001  ERG1001     0.0335
      3  C3        55.9000   36.0340   35.3960 C.3   1001  ERG1001     0.1560
      4  C4        55.3150   34.6760   35.0000 C.3   1001  ERG1001     0.0549
      5  C5        55.3710   34.4860   33.4820 C.2   1001  ERG1001    -0.0420
      6  C6        54.2220   34.0430   32.8330 C.2   1001  ERG1001    -0.0091
      7  C7        54.1680   33.9120   31.4500 C.2   1001  ERG1001    -0.0091
      8  C8        55.2570   34.2460   30.6520 C.2   1001  ERG1001    -0.0446
      9  C9        56.4290   35.0590   31.2180 C.3   1001  ERG1001     0.0217
     10  C10       56.6600   34.8230   32.7180 C.3   1001  ERG1001     0.0188
     11  C11       57.7030   34.9120   30.3730 C.3   1001  ERG1001     0.0043
     12  C12       57.4610   34.9440   28.8590 C.3   1001  ERG1001     0.0006
     13  C13       56.5000   33.8230   28.4540 C.3   1001  ERG1001     0.0038
     14  C14       55.1600   34.1080   29.1310 C.3   1001  ERG1001     0.0183
     15  C15       54.2880   32.9870   28.5670 C.3   1001  ERG1001     0.0040
     16  C16       54.6250   33.1340   27.0790 C.3   1001  ERG1001     0.0007
     17  C17       55.9500   33.9070   27.0260 C.3   1001  ERG1001     0.0043
     18  C18       57.0640   32.4380   28.7960 C.3   1001  ERG1001     0.0003
     19  C19       57.6140   33.6460   32.9470 C.3   1001  ERG1001     0.0044
     20  C20       56.8700   33.4150   25.9040 C.3   1001  ERG1001     0.0217
     21  C21       58.1790   34.2070   25.8660 C.3   1001  ERG1001     0.0047
     22  C22       56.1280   33.5850   24.5740 C.2   1001  ERG1001    -0.0310
     23  C23       55.5550   32.4930   23.9330 C.2   1001  ERG1001    -0.0310
     24  C24       54.8060   32.6960   22.6130 C.3   1001  ERG1001     0.0217
     25  C25       55.4530   31.8850   21.4850 C.3   1001  ERG1001     0.0040
     26  C26       54.6530   31.9720   20.1810 C.3   1001  ERG1001     0.0003
     27  C27       56.8750   32.3870   21.2250 C.3   1001  ERG1001     0.0003
     28  C28       53.3440   32.3070   22.8480 C.3   1001  ERG1001     0.0047
     29  O1        55.9500   36.1520   36.8210 O.3   1001  ERG1001    -0.2228
@<TRIPOS>BOND
     1    26    25    1
     2    27    25    1
     3    25    24    1
     4    24    28    1
     5    24    23    1
     6    23    22    2
     7    22    20    1
     8    21    20    1
     9    20    17    1
    10    17    16    1
    11    17    13    1
    12    16    15    1
    13    13    18    1
    14    13    12    1
    15    13    14    1
    16    15    14    1
    17    12    11    1
    18    14     8    1
    19    11     9    1
    20     8     9    1
    21     8     7    2
    22     9    10    1
    23     7     6    1
    24    10    19    1
    25    10     1    1
    26    10     5    1
    27     6     5    2
    28     1     2    1
    29     5     4    1
    30     2     3    1
    31     4     3    1
    32     3    29    1
