@<TRIPOS>MOLECULE
1zi3_NLC_A_1.pdb
 26 27 0 0 0
SMALL
GASTEIGER

@<TRIPOS>ATOM
      1  C1        17.6440   68.7970   45.6820 C.3     1  NLC1        0.2917
      2  O1        17.3270   68.9300   44.2940 O.3     1  NLC1       -0.1879
      3  C2        18.8950   67.9290   45.8470 C.3     1  NLC1        0.1870
      4  N         19.9890   68.5030   45.0490 N.am    1  NLC1       -0.1991
      5  C7        21.0820   69.0220   45.6010 C.2     1  NLC1        0.2420
      6  C8        22.1040   69.5770   44.6070 C.3     1  NLC1        0.0964
      7  O7        21.2880   69.0750   46.8130 O.2     1  NLC1       -0.2733
      8  C3        18.6080   66.5030   45.3720 C.3     1  NLC1        0.2063
      9  O3        19.7490   65.6840   45.6380 O.3     1  NLC1       -0.2184
     10  C4        17.3850   65.9280   46.0930 C.3     1  NLC1        0.1796
     11  O4        17.0290   64.6390   45.5680 O.3     1  NLC1       -0.3258
     12  C5        16.2190   66.8860   45.8900 C.3     1  NLC1        0.1803
     13  C6        14.9820   66.3570   46.6190 C.3     1  NLC1        0.2141
     14  O6        15.2600   66.2320   48.0160 O.3     1  NLC1       -0.2176
     15  O5        16.5430   68.1970   46.3860 O.3     1  NLC1       -0.3243
     16  C12       16.9020   62.2780   46.0250 C.3     1  NLC1        0.2406
     17  O12       15.5520   62.3870   46.4860 O.3     1  NLC1       -0.2149
     18  C13       17.5970   61.1020   46.7160 C.3     1  NLC1        0.2198
     19  O13       16.9590   59.8810   46.3330 O.3     1  NLC1       -0.2174
     20  C14       19.0710   61.0560   46.3070 C.3     1  NLC1        0.2144
     21  C15       19.7220   62.4100   46.6010 C.3     1  NLC1        0.1835
     22  C16       21.1940   62.3860   46.1840 C.3     1  NLC1        0.2142
     23  C10       17.6590   63.5790   46.3030 C.3     1  NLC1        0.2695
     24  O16       21.7990   63.6420   46.5000 O.3     1  NLC1       -0.2176
     25  O15       19.0270   63.4420   45.8790 O.3     1  NLC1       -0.3256
     26  O40       19.1580   60.7850   44.9050 O.3     1  NLC1       -0.2176
@<TRIPOS>BOND
     1     2     1    1
     2     6     5    1
     3    26    20    1
     4     4     5   am
     5     4     3    1
     6     8     9    1
     7     8     3    1
     8     8    10    1
     9    11    10    1
    10    11    23    1
    11     5     7    2
    12     1     3    1
    13     1    15    1
    14    25    23    1
    15    25    21    1
    16    12    10    1
    17    12    15    1
    18    12    13    1
    19    16    23    1
    20    16    17    1
    21    16    18    1
    22    22    24    1
    23    22    21    1
    24    20    21    1
    25    20    18    1
    26    19    18    1
    27    13    14    1
