@<TRIPOS>MOLECULE
1zi4_DR2_A_1.pdb
 36 38 0 0 0
SMALL
GASTEIGER

@<TRIPOS>ATOM
      1  OAZ       19.7040   66.2280   47.0090 O.3     1  DR21       -0.2184
      2  CBV       19.2560   66.9540   45.8540 C.3     1  DR21        0.2063
      3  CBS       19.4840   68.4530   46.0760 C.3     1  DR21        0.1870
      4  NAX       20.9290   68.7330   46.0760 N.am    1  DR21       -0.1991
      5  CBF       21.4390   69.9290   46.3560 C.2     1  DR21        0.2420
      6  CAB       22.9560   70.0370   46.1860 C.3     1  DR21        0.0964
      7  OAD       20.7660   70.9190   46.6390 O.2     1  DR21       -0.2733
      8  CBI       18.8020   69.2890   44.9890 C.3     1  DR21        0.2917
      9  OAH       18.8370   70.6380   45.4630 O.3     1  DR21       -0.1879
     10  OBA       17.4030   68.9660   44.9550 O.3     1  DR21       -0.3243
     11  CBK       17.1920   67.6010   44.5590 C.3     1  DR21        0.1803
     12  CAV       15.6870   67.3350   44.4960 C.3     1  DR21        0.2141
     13  OAG       15.1320   67.4550   45.8090 O.3     1  DR21       -0.2176
     14  CBU       17.7950   66.6290   45.5620 C.3     1  DR21        0.1796
     15  O1'       17.5710   65.3110   45.0330 O.3     1  DR21       -0.3258
     16  C1'       17.9080   64.2260   45.9110 C.3     1  DR21        0.2663
     17  O5'       19.2550   63.8260   45.6010 O.3     1  DR21       -0.3257
     18  C5'       19.7010   62.6950   46.3680 C.3     1  DR21        0.1835
     19  C6'       21.1530   62.3650   46.0130 C.3     1  DR21        0.2142
     20  O6'       21.9980   63.4700   46.3450 O.3     1  DR21       -0.2176
     21  C4'       18.8180   61.4910   46.0370 C.3     1  DR21        0.2143
     22  O4'       18.9350   61.1850   44.6440 O.3     1  DR21       -0.2176
     23  C3'       17.3620   61.8310   46.3600 C.3     1  DR21        0.2166
     24  O3'       16.5270   60.7360   45.9760 O.3     1  DR21       -0.2175
     25  C2'       16.9310   63.0970   45.6120 C.3     1  DR21        0.2066
     26  O2'       15.6000   63.4890   45.9850 O.3     1  DR21       -0.3231
     27  CBQ       14.6020   62.7730   45.2410 C.3     1  DR21        0.2695
     28  OBB       14.6170   63.1860   43.8630 O.3     1  DR21       -0.3284
     29  CBH       14.3840   64.5970   43.7060 C.3     1  DR21        0.1508
     30  CAC       14.5140   64.9870   42.2320 C.3     1  DR21        0.0350
     31  CBL       12.9940   64.9700   44.2320 C.3     1  DR21        0.2118
     32  OAI       11.9790   64.3510   43.4370 O.3     1  DR21       -0.2177
     33  CBN       12.8520   64.5260   45.6900 C.3     1  DR21        0.2197
     34  OAK       11.5040   64.7300   46.1200 O.3     1  DR21       -0.2174
     35  CBO       13.2170   63.0460   45.8350 C.3     1  DR21        0.2406
     36  OAL       13.1820   62.6640   47.2130 O.3     1  DR21       -0.2149
@<TRIPOS>BOND
     1    30    29    1
     2    32    31    1
     3    29    28    1
     4    29    31    1
     5    28    27    1
     6    31    33    1
     7    12    11    1
     8    12    13    1
     9    11    10    1
    10    11    14    1
    11    22    21    1
    12    10     8    1
    13     8     9    1
    14     8     3    1
    15    15    14    1
    16    15    16    1
    17    27    35    1
    18    27    26    1
    19    14     2    1
    20    17    16    1
    21    17    18    1
    22    25    16    1
    23    25    26    1
    24    25    23    1
    25    33    35    1
    26    33    34    1
    27    35    36    1
    28     2     3    1
    29     2     1    1
    30    24    23    1
    31    19    20    1
    32    19    18    1
    33    21    23    1
    34    21    18    1
    35     4     3    1
    36     4     5   am
    37     6     5    1
    38     5     7    2
