@<TRIPOS>MOLECULE
1zi5_UDP_A_1.pdb
 25 26 0 0 0
SMALL
GASTEIGER

@<TRIPOS>ATOM
      1  N1        10.4220   52.9510   45.9810 N.am    1  UDP1       -0.1766
      2  C2         9.7010   52.2860   44.9790 C.1     1  UDP1        0.2845
      3  N3         8.9970   51.1190   45.3020 N.2     1  UDP1       -0.2452
      4  C4         9.0160   50.6220   46.6120 C.1     1  UDP1        0.2182
      5  C5         9.7380   51.2800   47.6030 C.2     1  UDP1        0.1242
      6  C6        10.4380   52.4390   47.2860 C.2     1  UDP1        0.0929
      7  O2         9.6800   52.7220   43.8290 O.2     1  UDP1       -0.1918
      8  O4         8.3800   49.6070   46.8890 O.2     1  UDP1       -0.2085
      9  C1'       11.1130   54.2240   45.6730 C.3     1  UDP1        0.2401
     10  C2'       10.1250   55.3860   45.7660 C.3     1  UDP1        0.2319
     11  O2'        9.3200   55.4060   44.5840 O.3     1  UDP1       -0.2157
     12  C3'       11.1400   56.5270   45.7300 C.3     1  UDP1        0.2158
     13  C4'       12.1800   56.0020   46.7240 C.3     1  UDP1        0.1799
     14  O4'       12.1320   54.5650   46.6290 O.3     1  UDP1       -0.3320
     15  O3'       11.7170   56.6310   44.4260 O.3     1  UDP1       -0.2175
     16  C5'       11.7690   56.3980   48.1450 C.3     1  UDP1        0.1813
     17  O5'       12.7180   55.9250   49.1040 O.3     1  UDP1       -0.3111
     18  PA        12.3780   55.9900   50.6770 P.3     1  UDP1        0.2231
     19  O1A       13.7870   55.9110   51.4530 O.3     1  UDP1       -0.4370
     20  O2A       11.5950   57.1850   51.0650 O.2     1  UDP1       -0.5169
     21  O3A       11.6020   54.6220   51.0180 O.3     1  UDP1       -0.2261
     22  PB        12.3880   53.2170   50.9740 P.3     1  UDP1        0.5373
     23  O1B       13.0530   53.0230   52.4270 O.3     1  UDP1       -0.1143
     24  O2B       11.2650   52.0710   50.8430 O.3     1  UDP1       -0.1143
     25  O3B       13.3920   53.1400   49.8880 O.2     1  UDP1       -0.2221
@<TRIPOS>BOND
     1     7     2    2
     2    15    12    1
     3    11    10    1
     4     2     3    2
     5     2     1   am
     6     3     4    2
     7     9    10    1
     8     9     1    1
     9     9    14    1
    10    12    10    1
    11    12    13    1
    12     1     6    1
    13     4     8    2
    14     4     5    1
    15    14    13    1
    16    13    16    1
    17     6     5    2
    18    16    17    1
    19    17    18    1
    20    25    22    2
    21    18    21    1
    22    18    20    2
    23    18    19    1
    24    24    22    1
    25    22    21    1
    26    22    23    1
