@<TRIPOS>MOLECULE
1zi5_DR3_A_1.pdb
 36 38 0 0 0
SMALL
GASTEIGER

@<TRIPOS>ATOM
      1  OAL       13.1610   62.1510   47.6060 O.3     2  DR32       -0.2149
      2  CBO       13.2010   62.6430   46.2640 C.3     2  DR32        0.2406
      3  CBN       12.8140   64.1240   46.2340 C.3     2  DR32        0.2197
      4  OAK       11.4600   64.2750   46.6700 O.3     2  DR32       -0.2174
      5  CBL       12.9620   64.6820   44.8170 C.3     2  DR32        0.2118
      6  OAI       11.9930   64.0740   43.9590 O.3     2  DR32       -0.2177
      7  CBH       14.3740   64.3950   44.2960 C.3     2  DR32        0.1508
      8  CAC       14.5300   64.9150   42.8660 C.3     2  DR32        0.0350
      9  OBB       14.6340   62.9810   44.3320 O.3     2  DR32       -0.3284
     10  CBQ       14.5970   62.4430   45.6670 C.3     2  DR32        0.2695
     11  O2'       15.5660   63.1060   46.4940 O.3     2  DR32       -0.3231
     12  C2'       16.9070   62.8370   46.0540 C.3     2  DR32        0.2066
     13  C3'       17.4500   61.5720   46.7240 C.3     2  DR32        0.2166
     14  O3'       16.6830   60.4400   46.3070 O.3     2  DR32       -0.2175
     15  C4'       18.9220   61.3570   46.3620 C.3     2  DR32        0.2143
     16  O4'       19.0370   61.1020   44.9590 O.3     2  DR32       -0.2176
     17  C5'       19.7210   62.6120   46.7250 C.3     2  DR32        0.1835
     18  C6'       21.1880   62.4470   46.3220 C.3     2  DR32        0.2142
     19  O6'       21.9130   63.6290   46.6720 O.3     2  DR32       -0.2176
     20  O5'       19.1580   63.7460   46.0460 O.3     2  DR32       -0.3257
     21  C1'       17.8010   64.0020   46.4510 C.3     2  DR32        0.2663
     22  O1'       17.3260   65.1880   45.7960 O.3     2  DR32       -0.3265
     23  CBV       17.9460   66.3490   46.3670 C.3     2  DR32        0.1755
     24  CBU       18.4230   67.3080   45.2730 C.3     2  DR32        0.2104
     25  OAE       19.4270   66.6640   44.4830 O.3     2  DR32       -0.2178
     26  CBK       18.9990   68.5800   45.9010 C.3     2  DR32        0.1834
     27  CAV       19.4130   69.5610   44.8020 C.3     2  DR32        0.2142
     28  OAG       18.2730   69.9070   44.0120 O.3     2  DR32       -0.2176
     29  OBA       18.0160   69.2010   46.7470 O.3     2  DR32       -0.3242
     30  CBI       17.6330   68.3560   47.8450 C.3     2  DR32        0.2916
     31  OAH       16.7060   69.0470   48.6860 O.3     2  DR32       -0.1879
     32  CBS       16.9830   67.0780   47.3080 C.3     2  DR32        0.1839
     33  NAX       16.5940   66.1970   48.4200 N.am    2  DR32       -0.1993
     34  CBF       15.3380   65.8360   48.6740 C.2     2  DR32        0.2420
     35  CAB       14.2520   66.8260   48.2440 C.3     2  DR32        0.0964
     36  OAD       15.0910   65.0100   49.7250 O.2     2  DR32       -0.2733
@<TRIPOS>BOND
     1     8     7    1
     2     6     5    1
     3    28    27    1
     4     7     9    1
     5     7     5    1
     6     9    10    1
     7    25    24    1
     8    27    26    1
     9     5     3    1
    10    16    15    1
    11    24    26    1
    12    24    23    1
    13    10     2    1
    14    10    11    1
    15    22    23    1
    16    22    21    1
    17    26    29    1
    18    20    21    1
    19    20    17    1
    20    12    21    1
    21    12    11    1
    22    12    13    1
    23     3     2    1
    24     3     4    1
    25     2     1    1
    26    14    13    1
    27    18    19    1
    28    18    17    1
    29    15    13    1
    30    15    17    1
    31    23    32    1
    32    29    30    1
    33    32    30    1
    34    32    33    1
    35    30    31    1
    36    35    34    1
    37    33    34   am
    38    34    36    2
