@<TRIPOS>MOLECULE
1zis_INI_A_1.pdb
 21 21 0 0 0
SMALL
GASTEIGER

@<TRIPOS>ATOM
      1  N1        51.0700  135.3290   47.5230 N.2   200  INI200     -0.2923
      2  C2        50.1690  135.8510   46.5830 C.1   200  INI200      0.3663
      3  O2        48.9920  136.0390   46.9710 O.2   200  INI200     -0.1745
      4  N3        50.6600  136.1030   45.3460 N.2   200  INI200     -0.2344
      5  C4        51.9710  135.8870   44.9460 C.1   200  INI200      0.2293
      6  O4        52.2280  136.1900   43.7290 O.2   200  INI200     -0.2107
      7  C5        52.9290  135.3270   45.9940 C.3   200  INI200      0.3505
      8  N5        54.2880  135.1240   45.5770 N.pl3 200  INI200      0.0583
      9  O51       54.6460  135.3970   44.3990 O.2   200  INI200     -0.1294
     10  O52       55.0940  134.6710   46.4230 O.2   200  INI200     -0.1294
     11  C6        52.4300  135.0880   47.3180 C.2   200  INI200      0.2365
     12  N7        53.1810  134.6650   48.4210 N.pl3 200  INI200     -0.2071
     13  C8        53.0470  133.1930   48.6640 C.3   200  INI200      0.1501
     14  C9        52.1950  132.8600   49.9680 C.3   200  INI200      0.2063
     15  O9        50.9130  133.3680   49.6900 O.3   200  INI200     -0.2184
     16  C10       52.5560  133.4600   51.4220 C.3   200  INI200      0.2166
     17  O10       52.5660  134.8690   51.3790 O.3   200  INI200     -0.2175
     18  C11       53.9460  132.9650   52.2170 C.3   200  INI200      0.2175
     19  O11       54.3780  131.9830   51.2230 O.3   200  INI200     -0.2175
     20  C12       54.0670  132.1190   53.5730 C.3   200  INI200      0.2175
     21  O12       52.8300  131.4490   53.7030 O.3   200  INI200     -0.2175
@<TRIPOS>BOND
     1     6     5    2
     2     9     8    2
     3     5     4    2
     4     5     7    1
     5     4     2    2
     6     8     7    1
     7     8    10    2
     8     7    11    1
     9     2     3    2
    10     2     1    2
    11    11     1    2
    12    11    12    1
    13    12    13    1
    14    13    14    1
    15    15    14    1
    16    14    16    1
    17    19    18    1
    18    17    16    1
    19    16    18    1
    20    18    20    1
    21    20    21    1
