@<TRIPOS>MOLECULE
1ziz_GAL_A_1.pdb
 12 12 0 0 0
SMALL
GASTEIGER

@<TRIPOS>ATOM
      1  C1        17.8530   64.0660   46.2810 C.3     1  GAL1        0.3024
      2  C2        16.9880   62.8380   45.9860 C.3     1  GAL1        0.2434
      3  C3        17.5650   61.6150   46.7030 C.3     1  GAL1        0.2199
      4  C4        19.0390   61.4340   46.3350 C.3     1  GAL1        0.2144
      5  C5        19.7980   62.7310   46.6260 C.3     1  GAL1        0.1836
      6  C6        21.2720   62.5790   46.2420 C.3     1  GAL1        0.2142
      7  O1        17.3490   65.1880   45.5510 O.3     1  GAL1       -0.1869
      8  O2        15.6580   63.0750   46.4550 O.3     1  GAL1       -0.2148
      9  O3        16.8290   60.4480   46.3250 O.3     1  GAL1       -0.2174
     10  O4        19.1360   61.1310   44.9400 O.3     1  GAL1       -0.2176
     11  O5        19.2110   63.8120   45.8820 O.3     1  GAL1       -0.3236
     12  O6        21.9740   63.7850   46.5550 O.3     1  GAL1       -0.2176
@<TRIPOS>BOND
     1    10     4    1
     2     7     1    1
     3    11     1    1
     4    11     5    1
     5     2     1    1
     6     2     8    1
     7     2     3    1
     8     6    12    1
     9     6     5    1
    10     9     3    1
    11     4     5    1
    12     4     3    1
