@<TRIPOS>MOLECULE
1zj0_LAT_A_1.pdb
 23 24 0 0 0
SMALL
GASTEIGER

@<TRIPOS>ATOM
      1  C1        17.9650   63.4490   46.8870 C.3     2  LAT2        0.2695
      2  C2        17.1690   62.1990   46.5040 C.3     2  LAT2        0.2406
      3  C3        17.8710   60.9430   47.0270 C.3     2  LAT2        0.2198
      4  C4        19.3250   60.9190   46.5500 C.3     2  LAT2        0.2144
      5  C5        20.0120   62.2280   46.9500 C.3     2  LAT2        0.1835
      6  C6        21.4640   62.2370   46.4690 C.3     2  LAT2        0.2142
      7  O1        17.3260   64.6020   46.3200 O.3     2  LAT2       -0.3257
      8  O2        15.8470   62.2770   47.0440 O.3     2  LAT2       -0.2149
      9  O3        17.1930   59.7830   46.5360 O.3     2  LAT2       -0.2174
     10  O4        19.3460   60.7830   45.1270 O.3     2  LAT2       -0.2176
     11  O5        19.3040   63.3370   46.3720 O.3     2  LAT2       -0.3256
     12  O6        22.0890   63.4590   46.8710 O.3     2  LAT2       -0.2176
     13  C1'       17.9550   68.6780   47.1640 C.3     2  LAT2        0.3023
     14  C2'       19.1440   67.7480   47.4220 C.3     2  LAT2        0.2433
     15  C3'       18.9380   66.4210   46.6860 C.3     2  LAT2        0.2168
     16  C4'       17.6020   65.7870   47.0840 C.3     2  LAT2        0.1804
     17  C5'       16.4970   66.8060   46.8370 C.3     2  LAT2        0.1804
     18  C6'       15.1510   66.2240   47.2720 C.3     2  LAT2        0.2141
     19  O1'       17.8930   69.0160   45.7760 O.3     2  LAT2       -0.1869
     20  O2'       20.3430   68.3720   46.9560 O.3     2  LAT2       -0.2148
     21  O3'       20.0100   65.5360   47.0210 O.3     2  LAT2       -0.2175
     22  O5'       16.7410   68.0220   47.5660 O.3     2  LAT2       -0.3237
     23  O6'       15.1930   65.9060   48.6660 O.3     2  LAT2       -0.2176
@<TRIPOS>BOND
     1    10     4    1
     2    19    13    1
     3     7     1    1
     4     7    16    1
     5    11     1    1
     6    11     5    1
     7     6    12    1
     8     6     5    1
     9     2     1    1
    10     2     3    1
    11     2     8    1
    12     9     3    1
    13     4     5    1
    14     4     3    1
    15    15    21    1
    16    15    16    1
    17    15    14    1
    18    17    16    1
    19    17    18    1
    20    17    22    1
    21    20    14    1
    22    13    14    1
    23    13    22    1
    24    18    23    1
