@<TRIPOS>MOLECULE
1zj1_NLC_A_1.pdb
 26 27 0 0 0
SMALL
GASTEIGER

@<TRIPOS>ATOM
      1  C1        16.7010   68.3970   48.0350 C.3     1  NLC1        0.2917
      2  O1        15.5480   68.7200   47.2520 O.3     1  NLC1       -0.1879
      3  C2        17.8920   68.1220   47.1120 C.3     1  NLC1        0.1870
      4  N         18.0820   69.2720   46.2170 N.am    1  NLC1       -0.1991
      5  C7        19.2520   69.8920   46.0900 C.2     1  NLC1        0.2420
      6  C8        19.2520   71.0740   45.1180 C.3     1  NLC1        0.0964
      7  O7        20.2740   69.5710   46.6960 O.2     1  NLC1       -0.2733
      8  C3        17.6290   66.8680   46.2750 C.3     1  NLC1        0.2063
      9  O3        18.8020   66.5430   45.5250 O.3     1  NLC1       -0.2184
     10  C4        17.2650   65.6870   47.1780 C.3     1  NLC1        0.1796
     11  O4        16.9290   64.5480   46.3730 O.3     1  NLC1       -0.3258
     12  C5        16.0980   66.0810   48.0730 C.3     1  NLC1        0.1803
     13  C6        15.7340   64.9310   49.0160 C.3     1  NLC1        0.2141
     14  O6        16.8440   64.6300   49.8660 O.3     1  NLC1       -0.2176
     15  O5        16.4340   67.2430   48.8510 O.3     1  NLC1       -0.3243
     16  C12       16.8790   62.1360   46.4260 C.3     1  NLC1        0.2406
     17  O12       15.5830   62.1310   47.0300 O.3     1  NLC1       -0.2149
     18  C13       17.6590   60.8900   46.8520 C.3     1  NLC1        0.2198
     19  O13       16.9960   59.7260   46.3520 O.3     1  NLC1       -0.2174
     20  C14       19.0810   60.9510   46.2890 C.3     1  NLC1        0.2144
     21  C15       19.7410   62.2630   46.7220 C.3     1  NLC1        0.1835
     22  C16       21.1590   62.3550   46.1540 C.3     1  NLC1        0.2142
     23  C10       17.6440   63.3950   46.8390 C.3     1  NLC1        0.2695
     24  O16       21.7680   63.5760   46.5810 O.3     1  NLC1       -0.2176
     25  O15       18.9590   63.3750   46.2550 O.3     1  NLC1       -0.3256
     26  O40       19.0170   60.8980   44.8620 O.3     1  NLC1       -0.2176
@<TRIPOS>BOND
     1    26    20    1
     2     6     5    1
     3     9     8    1
     4     5     4   am
     5     5     7    2
     6    22    24    1
     7    22    21    1
     8     4     3    1
     9    25    21    1
    10    25    23    1
    11     8     3    1
    12     8    10    1
    13    20    21    1
    14    20    18    1
    15    19    18    1
    16    11    23    1
    17    11    10    1
    18    16    23    1
    19    16    18    1
    20    16    17    1
    21     3     1    1
    22    10    12    1
    23     2     1    1
    24     1    15    1
    25    12    15    1
    26    12    13    1
    27    13    14    1
