@<TRIPOS>MOLECULE
1zj2_UDP_A_1.pdb
 25 26 0 0 0
SMALL
GASTEIGER

@<TRIPOS>ATOM
      1  N1         9.7090   51.6810   47.4160 N.am    1  UDP1       -0.1766
      2  C2         8.6040   50.8900   47.7560 C.1     1  UDP1        0.2845
      3  N3         8.0620   50.9770   49.0450 N.2     1  UDP1       -0.2452
      4  C4         8.6230   51.8510   49.9860 C.1     1  UDP1        0.2182
      5  C5         9.7190   52.6380   49.6470 C.2     1  UDP1        0.1242
      6  C6        10.2580   52.5520   48.3680 C.2     1  UDP1        0.0929
      7  O2         8.1070   50.1350   46.9200 O.2     1  UDP1       -0.1918
      8  O4         8.1440   51.9240   51.1170 O.2     1  UDP1       -0.2085
      9  C1'       10.2880   51.5650   46.0570 C.3     1  UDP1        0.2401
     10  C2'        9.4570   52.3770   45.0590 C.3     1  UDP1        0.2319
     11  O2'        9.6520   51.8780   43.7330 O.3     1  UDP1       -0.2157
     12  C3'       10.1080   53.7490   45.2080 C.3     1  UDP1        0.2158
     13  C4'       11.5670   53.2950   45.1850 C.3     1  UDP1        0.1799
     14  O4'       11.6040   52.1490   46.0510 O.3     1  UDP1       -0.3320
     15  O3'        9.8310   54.5340   44.0450 O.3     1  UDP1       -0.2175
     16  C5'       12.5100   54.3990   45.6630 C.3     1  UDP1        0.1813
     17  O5'       12.0930   54.8960   46.9370 O.3     1  UDP1       -0.3111
     18  PA        11.6530   56.4380   47.0700 P.3     1  UDP1        0.2231
     19  O1A       10.8280   56.7950   45.7340 O.2     1  UDP1       -0.5169
     20  O2A       10.8860   56.7330   48.3020 O.3     1  UDP1       -0.4370
     21  O3A       13.0380   57.2580   47.0020 O.3     1  UDP1       -0.2261
     22  PB        13.1340   58.7850   46.5000 P.3     1  UDP1        0.5373
     23  O1B       12.3400   59.6770   47.5790 O.3     1  UDP1       -0.1143
     24  O2B       14.6870   59.1790   46.6550 O.3     1  UDP1       -0.1143
     25  O3B       12.6640   59.0200   45.1160 O.2     1  UDP1       -0.2221
@<TRIPOS>BOND
     1    11    10    1
     2    15    12    1
     3    10    12    1
     4    10     9    1
     5    25    22    2
     6    13    12    1
     7    13    16    1
     8    13    14    1
     9    16    17    1
    10    19    18    2
    11    14     9    1
    12     9     1    1
    13    22    24    1
    14    22    21    1
    15    22    23    1
    16     7     2    2
    17    17    18    1
    18    21    18    1
    19    18    20    1
    20     1     2   am
    21     1     6    1
    22     2     3    2
    23     6     5    2
    24     3     4    2
    25     5     4    1
    26     4     8    2
