@<TRIPOS>MOLECULE
1zj2_DR3_A_1.pdb
 36 38 0 0 0
SMALL
GASTEIGER

@<TRIPOS>ATOM
      1  OAL       13.0410   61.9670   47.4150 O.3     2  DR32       -0.2149
      2  CBO       13.1290   62.5870   46.1300 C.3     2  DR32        0.2406
      3  CBN       12.7840   64.0750   46.2430 C.3     2  DR32        0.2197
      4  OAK       11.4260   64.2240   46.6650 O.3     2  DR32       -0.2174
      5  CBL       12.9820   64.7680   44.8930 C.3     2  DR32        0.2118
      6  OAI       12.0210   64.2760   43.9550 O.3     2  DR32       -0.2177
      7  CBH       14.4000   64.4960   44.3810 C.3     2  DR32        0.1508
      8  CAC       14.6000   65.1570   43.0160 C.3     2  DR32        0.0350
      9  OBB       14.6230   63.0790   44.2790 O.3     2  DR32       -0.3284
     10  CBQ       14.5320   62.4010   45.5450 C.3     2  DR32        0.2695
     11  O2'       15.5000   62.9230   46.4700 O.3     2  DR32       -0.3231
     12  C2'       16.8460   62.7490   46.0000 C.3     2  DR32        0.2066
     13  C3'       17.4430   61.4430   46.5320 C.3     2  DR32        0.2166
     14  O3'       16.7220   60.3330   45.9920 O.3     2  DR32       -0.2175
     15  C4'       18.9180   61.3280   46.1400 C.3     2  DR32        0.2143
     16  O4'       19.0290   61.2090   44.7200 O.3     2  DR32       -0.2176
     17  C5'       19.6770   62.5710   46.6150 C.3     2  DR32        0.1835
     18  C6'       21.1300   62.4960   46.1380 C.3     2  DR32        0.2142
     19  O6'       21.8380   63.6630   46.5640 O.3     2  DR32       -0.2176
     20  O5'       19.0530   63.7500   46.0790 O.3     2  DR32       -0.3257
     21  C1'       17.6960   63.8940   46.5330 C.3     2  DR32        0.2663
     22  O1'       17.1420   65.1240   46.0430 O.3     2  DR32       -0.3265
     23  CBV       17.6680   66.2460   46.7680 C.3     2  DR32        0.1755
     24  CBU       18.4530   67.1640   45.8280 C.3     2  DR32        0.2104
     25  OAE       19.6120   66.4710   45.3570 O.3     2  DR32       -0.2178
     26  CBK       18.8830   68.4410   46.5580 C.3     2  DR32        0.1834
     27  CAV       19.5840   69.3900   45.5830 C.3     2  DR32        0.2142
     28  OAG       18.6730   69.7780   44.5520 O.3     2  DR32       -0.2176
     29  OBA       17.7260   69.1080   47.0890 O.3     2  DR32       -0.3242
     30  CBI       17.0490   68.3100   48.0740 C.3     2  DR32        0.2916
     31  OAH       15.9470   69.0510   48.6040 O.3     2  DR32       -0.1879
     32  CBS       16.5270   67.0230   47.4300 C.3     2  DR32        0.1839
     33  NAX       15.8660   66.1860   48.4440 N.am    2  DR32       -0.1993
     34  CBF       14.5470   66.0270   48.5350 C.2     2  DR32        0.2420
     35  CAB       13.6850   67.1740   47.9990 C.3     2  DR32        0.0964
     36  OAD       14.0450   65.2260   49.5120 O.2     2  DR32       -0.2733
@<TRIPOS>BOND
     1     8     7    1
     2     6     5    1
     3     9     7    1
     4     9    10    1
     5     7     5    1
     6    28    27    1
     7    16    15    1
     8     5     3    1
     9    25    24    1
    10    10     2    1
    11    10    11    1
    12    27    26    1
    13    24    26    1
    14    24    23    1
    15    14    13    1
    16    12    11    1
    17    12    13    1
    18    12    21    1
    19    22    21    1
    20    22    23    1
    21    20    21    1
    22    20    17    1
    23     2     3    1
    24     2     1    1
    25    18    19    1
    26    18    17    1
    27    15    13    1
    28    15    17    1
    29     3     4    1
    30    26    29    1
    31    23    32    1
    32    29    30    1
    33    32    30    1
    34    32    33    1
    35    35    34    1
    36    30    31    1
    37    33    34   am
    38    34    36    2
