@<TRIPOS>MOLECULE
1zj3_DR2_A_1.pdb
 36 38 0 0 0
SMALL
GASTEIGER

@<TRIPOS>ATOM
      1  OAZ       20.1410   66.4920   46.1940 O.3     1  DR21       -0.2184
      2  CBV       18.9100   67.2120   46.3840 C.3     1  DR21        0.2063
      3  CBS       19.1310   68.5670   47.0640 C.3     1  DR21        0.1870
      4  NAX       19.8940   69.4350   46.1550 N.am    1  DR21       -0.1991
      5  CBF       21.2190   69.5480   46.1930 C.2     1  DR21        0.2420
      6  CAB       21.8210   70.3910   45.0670 C.3     1  DR21        0.0964
      7  OAD       21.9440   68.9450   46.9840 O.2     1  DR21       -0.2733
      8  CBI       17.7990   69.2520   47.3810 C.3     1  DR21        0.2917
      9  OAH       18.1070   70.3510   48.2420 O.3     1  DR21       -0.1879
     10  OBA       16.9270   68.3510   48.0830 O.3     1  DR21       -0.3243
     11  CBK       16.5570   67.2340   47.2590 C.3     1  DR21        0.1803
     12  CAV       15.4910   66.4000   47.9730 C.3     1  DR21        0.2141
     13  OAG       16.0120   65.9110   49.2110 O.3     1  DR21       -0.2176
     14  CBU       17.7760   66.3730   46.9580 C.3     1  DR21        0.1796
     15  O1'       17.4060   65.3160   46.0590 O.3     1  DR21       -0.3258
     16  C1'       17.8830   64.0500   46.5400 C.3     1  DR21        0.2663
     17  O5'       19.2280   63.8250   46.0810 O.3     1  DR21       -0.3257
     18  C5'       19.7800   62.6140   46.6240 C.3     1  DR21        0.1835
     19  C6'       21.2320   62.4570   46.1660 C.3     1  DR21        0.2142
     20  O6'       21.9990   63.5790   46.6090 O.3     1  DR21       -0.2176
     21  C4'       18.9510   61.4160   46.1530 C.3     1  DR21        0.2143
     22  O4'       19.0540   61.2860   44.7320 O.3     1  DR21       -0.2176
     23  C3'       17.4850   61.6250   46.5390 C.3     1  DR21        0.2166
     24  O3'       16.6950   60.5540   46.0150 O.3     1  DR21       -0.2175
     25  C2'       16.9750   62.9610   45.9890 C.3     1  DR21        0.2066
     26  O2'       15.6330   63.2120   46.4320 O.3     1  DR21       -0.3231
     27  CBQ       14.6680   62.7360   45.4810 C.3     1  DR21        0.2695
     28  OBB       14.8000   63.4430   44.2340 O.3     1  DR21       -0.3284
     29  CBH       14.6290   64.8640   44.3770 C.3     1  DR21        0.1508
     30  CAC       14.8750   65.5520   43.0330 C.3     1  DR21        0.0350
     31  CBL       13.2170   65.1740   44.8820 C.3     1  DR21        0.2118
     32  OAI       12.2480   64.7590   43.9150 O.3     1  DR21       -0.2177
     33  CBN       12.9690   64.4440   46.2040 C.3     1  DR21        0.2197
     34  OAK       11.6070   64.6250   46.6010 O.3     1  DR21       -0.2174
     35  CBO       13.2630   62.9500   46.0490 C.3     1  DR21        0.2406
     36  OAL       13.1370   62.2890   47.3110 O.3     1  DR21       -0.2149
@<TRIPOS>BOND
     1    30    29    1
     2    32    31    1
     3    28    29    1
     4    28    27    1
     5    29    31    1
     6    22    21    1
     7    31    33    1
     8     6     5    1
     9    27    35    1
    10    27    26    1
    11    25    26    1
    12    25    23    1
    13    25    16    1
    14    24    23    1
    15    35    33    1
    16    35    36    1
    17    15    16    1
    18    15    14    1
    19    17    16    1
    20    17    18    1
    21    21    23    1
    22    21    18    1
    23     4     5   am
    24     4     3    1
    25    19    20    1
    26    19    18    1
    27     5     7    2
    28     1     2    1
    29    33    34    1
    30     2    14    1
    31     2     3    1
    32    14    11    1
    33     3     8    1
    34    11    12    1
    35    11    10    1
    36     8    10    1
    37     8     9    1
    38    12    13    1
