@<TRIPOS>MOLECULE
1zj6_G3D_A_1.pdb
 32 34 0 0 0
SMALL
GASTEIGER

@<TRIPOS>ATOM
      1  PB         0.2760   26.2990   34.9000 P.3   190  G3D190      0.5373
      2  O1B        0.6360   27.7340   34.8350 O.3   190  G3D190     -0.1143
      3  O2B        0.0130   25.7270   36.1560 O.3   190  G3D190     -0.1143
      4  O3B       -0.9620   26.0370   33.8860 O.2   190  G3D190     -0.2221
      5  PA         2.3140   24.1710   34.8910 P.3   190  G3D190      0.2231
      6  O3A        1.4680   25.4720   34.3110 O.3   190  G3D190     -0.2261
      7  O1A        3.0100   24.4780   36.1750 O.3   190  G3D190     -0.4370
      8  O2A        1.2840   23.0650   34.9610 O.2   190  G3D190     -0.5169
      9  O5'        3.3420   23.9790   33.7490 O.3   190  G3D190     -0.3111
     10  C5'        2.9550   23.6590   32.3830 C.3   190  G3D190      0.1812
     11  C4'        3.9590   22.8810   31.6610 C.3   190  G3D190      0.1772
     12  O4'        5.2460   23.6690   31.5990 O.3   190  G3D190     -0.3327
     13  C3'        4.4500   21.5490   32.3380 C.3   190  G3D190      0.1902
     14  O3'        4.7280   20.6560   31.1990 O.3   190  G3D190     -0.2674
     15  C2'        5.7630   21.8730   33.0870 C.3   190  G3D190      0.2283
     16  O2'        6.6700   20.8160   33.4520 O.3   190  G3D190     -0.2159
     17  C1'        6.4130   22.9240   32.1520 C.3   190  G3D190      0.2292
     18  N9         7.3050   23.9280   32.7970 N.pl3 190  G3D190     -0.2354
     19  C8         6.8710   24.6710   34.0390 C.3   190  G3D190      0.2246
     20  N7         8.0730   25.4030   34.1340 N.2   190  G3D190     -0.2322
     21  C5         9.0580   25.2030   33.2490 C.2   190  G3D190      0.2182
     22  C6        10.3750   25.6060   32.8380 C.1   190  G3D190      0.2372
     23  O6        10.9830   26.5160   33.5920 O.2   190  G3D190     -0.2069
     24  N1        11.0390   25.0890   31.7520 N.2   190  G3D190     -0.2485
     25  C2        10.3370   24.0520   30.9180 C.1   190  G3D190      0.2531
     26  N2        11.1390   23.6950   29.9280 N.pl3 190  G3D190     -0.0226
     27  N3         9.1550   23.6810   31.2360 N.2   190  G3D190     -0.3074
     28  C4         8.5390   24.1990   32.3330 C.2   190  G3D190      0.2300
     29  P1         3.9440   19.2710   30.9890 P.3   190  G3D190      0.5327
     30  O4P        2.5170   19.6150   30.8980 O.3   190  G3D190     -0.1145
     31  O5P        4.3720   18.3240   32.0890 O.3   190  G3D190     -0.1145
     32  O6P        4.4810   18.7280   29.5850 O.2   190  G3D190     -0.2224
@<TRIPOS>BOND
     1    32    29    2
     2    26    25    1
     3    30    29    1
     4    25    27    2
     5    25    24    2
     6    29    14    1
     7    29    31    1
     8    14    13    1
     9    27    28    2
    10    12    11    1
    11    12    17    1
    12    11    13    1
    13    11    10    1
    14    24    22    2
    15    17    18    1
    16    17    15    1
    17    28    18    1
    18    28    21    1
    19    13    15    1
    20    10     9    1
    21    18    19    1
    22    22    21    1
    23    22    23    2
    24    15    16    1
    25    21    20    2
    26     9     5    1
    27     4     1    2
    28    19    20    1
    29     6     5    1
    30     6     1    1
    31     2     1    1
    32     5     8    2
    33     5     7    1
    34     1     3    1
