@<TRIPOS>MOLECULE
1zji_2PG_A_1.pdb
 11 10 0 0 0
SMALL
GASTEIGER

@<TRIPOS>ATOM
      1  C1        32.5280   51.3550   22.3930 C.2   1268  2PG1268     0.3946
      2  C2        33.3470   50.2420   21.6760 C.3   1268  2PG1268     0.2610
      3  C3        32.8830   48.8680   22.1680 C.3   1268  2PG1268     0.2237
      4  P         32.5350   49.4000   19.1770 P.3   1268  2PG1268     0.5331
      5  O1        33.3030   52.1930   23.0190 O.co2 1268  2PG1268    -0.2428
      6  O2        31.2360   51.3670   22.3290 O.co2 1268  2PG1268    -0.2428
      7  O3        32.9590   48.6070   23.5470 O.3   1268  2PG1268    -0.2170
      8  O1P       33.2380   50.4310   20.2140 O.3   1268  2PG1268    -0.2583
      9  O2P       33.2480   48.0840   19.2990 O.3   1268  2PG1268    -0.1145
     10  O3P       31.0940   49.2740   19.5460 O.3   1268  2PG1268    -0.1145
     11  O4P       32.6620   49.9230   17.8270 O.2   1268  2PG1268    -0.2224
@<TRIPOS>BOND
     1    11     4    2
     2     4     9    1
     3     4    10    1
     4     4     8    1
     5     8     2    1
     6     2     3    1
     7     2     1    1
     8     3     7    1
     9     6     1   ar
    10     1     5   ar
