@<TRIPOS>MOLECULE
1zji_R5P_A_1.pdb
 14 13 0 0 0
SMALL
GASTEIGER

@<TRIPOS>ATOM
      1  C1        35.8200   51.7180   18.7900 C.2   1269  R5P1269     0.2427
      2  O1        35.6690   50.5090   18.7870 O.2   1269  R5P1269    -0.2854
      3  C2        35.5570   52.5830   17.5560 C.3   1269  R5P1269     0.2486
      4  O2        35.6220   51.8990   16.2960 O.3   1269  R5P1269    -0.2118
      5  C3        36.2140   53.8850   18.0250 C.3   1269  R5P1269     0.2224
      6  O3        35.1900   54.8270   18.3560 O.3   1269  R5P1269    -0.2171
      7  C4        37.4890   53.9720   17.1810 C.3   1269  R5P1269     0.2151
      8  O4        38.6060   54.0550   18.0620 O.3   1269  R5P1269    -0.2176
      9  C5        37.3650   55.0920   16.1620 C.3   1269  R5P1269     0.1892
     10  O5        38.6240   55.2070   15.5000 O.3   1269  R5P1269    -0.2674
     11  P         39.7340   56.3530   15.5050 P.3   1269  R5P1269     0.5327
     12  O1P       40.9220   55.7640   16.1730 O.3   1269  R5P1269    -0.1145
     13  O2P       39.9790   56.6640   14.0700 O.2   1269  R5P1269    -0.2224
     14  O3P       39.1740   57.4950   16.2800 O.3   1269  R5P1269    -0.1145
@<TRIPOS>BOND
     1    13    11    2
     2    10    11    1
     3    10     9    1
     4    11    12    1
     5    11    14    1
     6     9     7    1
     7     4     3    1
     8     7     5    1
     9     7     8    1
    10     3     5    1
    11     3     1    1
    12     5     6    1
    13     2     1    2
