@<TRIPOS>MOLECULE
1zjn_DGT_A_1.pdb
 31 33 0 0 0
SMALL
GASTEIGER

@<TRIPOS>ATOM
      1  PG        20.3430    2.8450   43.7520 P.3   338  DGT338      0.5373
      2  O1G       19.5080    4.0490   44.3180 O.3   338  DGT338     -0.1143
      3  O2G       21.5380    2.5620   44.7740 O.3   338  DGT338     -0.1143
      4  O3G       19.3890    1.5850   43.5850 O.2   338  DGT338     -0.2221
      5  O3B       20.9930    3.1910   42.3320 O.3   338  DGT338     -0.2258
      6  PB        20.4050    4.4180   41.1680 P.3   338  DGT338      0.2277
      7  O1B       20.3230    4.0720   39.5210 O.2   338  DGT338     -0.5168
      8  O2B       18.9850    4.7860   41.7690 O.3   338  DGT338     -0.4368
      9  O3A       21.4550    5.3790   41.0560 O.3   338  DGT338     -0.2700
     10  PA        21.5990    6.6670   41.9290 P.3   338  DGT338      0.2189
     11  O1A       20.5930    6.7510   43.1480 O.3   338  DGT338     -0.4371
     12  O2A       23.0640    6.9150   42.4040 O.2   338  DGT338     -0.5170
     13  O5'       21.0770    7.6420   40.8240 O.3   338  DGT338     -0.3112
     14  C5'       20.7090    8.7740   40.7370 C.3   338  DGT338      0.1812
     15  C4'       20.2130    8.9380   39.3630 C.3   338  DGT338      0.1772
     16  O4'       21.3540   10.1110   38.5900 O.3   338  DGT338     -0.3347
     17  C3'       20.6510    7.6740   38.5190 C.3   338  DGT338      0.1857
     18  O3'       20.0090    6.4360   37.9890 O.3   338  DGT338     -0.2203
     19  C2'       21.0270    8.0900   37.0930 C.3   338  DGT338      0.0865
     20  C1'       21.6420    9.4780   37.3800 C.3   338  DGT338      0.1981
     21  N9        23.4030    9.4070   37.7670 N.pl3 338  DGT338     -0.2374
     22  C8        24.1350    9.0590   38.8550 C.3   338  DGT338      0.2245
     23  N7        25.4690    9.2290   38.6580 N.2   338  DGT338     -0.2322
     24  C5        25.5910    9.6980   37.4110 C.2   338  DGT338      0.2182
     25  C6        26.6180   10.1150   36.4550 C.1   338  DGT338      0.2372
     26  O6        27.7900   10.0620   36.7860 O.2   338  DGT338     -0.2069
     27  N1        26.3160   10.5540   35.2260 N.2   338  DGT338     -0.2485
     28  C2        25.0600   10.6470   34.7710 C.1   338  DGT338      0.2531
     29  N2        24.8470   11.1100   33.5210 N.pl3 338  DGT338     -0.0226
     30  N3        24.0010   10.2860   35.5430 N.2   338  DGT338     -0.3074
     31  C4        24.2610    9.8040   36.8810 C.2   338  DGT338      0.2299
@<TRIPOS>BOND
     1    29    28    1
     2    28    27    2
     3    28    30    2
     4    27    25    2
     5    30    31    2
     6    25    26    2
     7    25    24    1
     8    31    24    1
     9    31    21    1
    10    19    20    1
    11    19    17    1
    12    20    21    1
    13    20    16    1
    14    24    23    2
    15    21    22    1
    16    18    17    1
    17    17    15    1
    18    16    15    1
    19    23    22    1
    20    15    14    1
    21     7     6    2
    22    14    13    1
    23    13    10    1
    24     9     6    1
    25     9    10    1
    26     6     8    1
    27     6     5    1
    28    10    12    2
    29    10    11    1
    30     5     1    1
    31     4     1    2
    32     1     2    1
    33     1     3    1
