@<TRIPOS>MOLECULE
1zjo_DR4_A_1.pdb
 24 24 0 0 0
SMALL
GASTEIGER

@<TRIPOS>ATOM
      1  CAA       15.6990   61.8250   42.6250 C.3     1  DR41        0.2556
      2  OAP       15.4440   63.1340   43.1430 O.3     1  DR41       -0.4444
      3  CAS       14.4160   63.7440   42.4930 C.2     1  DR41        0.3171
      4  OAB       13.8260   63.1730   41.5760 O.2     1  DR41       -0.2501
      5  CAO       13.9930   65.1510   42.9200 C.3     1  DR41        0.1096
      6  CAL       15.1400   66.1540   42.7810 C.3     1  DR41        0.0116
      7  CAJ       14.6890   67.5470   43.2230 C.3     1  DR41        0.0006
      8  CAH       15.7920   68.6040   43.1030 C.3     1  DR41        0.0000
      9  CAG       16.9370   68.4040   44.1000 C.3     1  DR41        0.0001
     10  CAI       17.8380   67.2270   43.7210 C.3     1  DR41        0.0026
     11  CAK       18.9060   66.9590   44.7850 C.3     1  DR41        0.0322
     12  CAM       18.2810   66.4810   46.0980 C.3     1  DR41        0.1449
     13  O1        17.4770   65.3230   45.8290 O.3     1  DR41       -0.3286
     14  C1        18.0360   64.1480   46.4360 C.3     1  DR41        0.2695
     15  O5        19.3600   63.8930   45.9340 O.3     1  DR41       -0.3256
     16  C5        19.9530   62.7500   46.5740 C.3     1  DR41        0.1835
     17  C6        21.4120   62.5920   46.1400 C.3     1  DR41        0.2142
     18  O6        22.1520   63.7520   46.5310 O.3     1  DR41       -0.2176
     19  C4        19.1480   61.4930   46.2330 C.3     1  DR41        0.2144
     20  O4        19.1670   61.2720   44.8200 O.3     1  DR41       -0.2176
     21  C3        17.7020   61.6700   46.7040 C.3     1  DR41        0.2198
     22  O3        16.9150   60.5600   46.2650 O.3     1  DR41       -0.2174
     23  C2        17.1140   62.9640   46.1350 C.3     1  DR41        0.2406
     24  O2        15.8200   63.1950   46.6980 O.3     1  DR41       -0.2149
@<TRIPOS>BOND
     1     4     3    2
     2     3     5    1
     3     3     2    1
     4     1     2    1
     5     6     5    1
     6     6     7    1
     7     8     7    1
     8     8     9    1
     9    10     9    1
    10    10    11    1
    11    11    12    1
    12    20    19    1
    13    13    12    1
    14    13    14    1
    15    15    14    1
    16    15    16    1
    17    23    14    1
    18    23    24    1
    19    23    21    1
    20    17    18    1
    21    17    16    1
    22    19    16    1
    23    19    21    1
    24    22    21    1
