@<TRIPOS>MOLECULE
1zjo_UDP_A_1.pdb
 25 26 0 0 0
SMALL
GASTEIGER

@<TRIPOS>ATOM
      1  N1        10.1460   51.5330   47.0920 N.am    2  UDP2       -0.1766
      2  C2         9.1360   50.6750   47.5480 C.1     2  UDP2        0.2845
      3  N3         8.9000   50.5630   48.9250 N.2     2  UDP2       -0.2452
      4  C4         9.6650   51.3040   49.8370 C.1     2  UDP2        0.2182
      5  C5        10.6640   52.1580   49.3820 C.2     2  UDP2        0.1242
      6  C6        10.9010   52.2700   48.0160 C.2     2  UDP2        0.0929
      7  O2         8.4540   50.0310   46.7520 O.2     2  UDP2       -0.1918
      8  O4         9.4520   51.1980   51.0440 O.2     2  UDP2       -0.2085
      9  C1'       10.4400   51.6280   45.6430 C.3     2  UDP2        0.2401
     10  C2'        9.4480   52.5720   44.9590 C.3     2  UDP2        0.2319
     11  O2'        9.4390   52.3280   43.5500 O.3     2  UDP2       -0.2157
     12  C3'       10.1140   53.9150   45.2500 C.3     2  UDP2        0.2158
     13  C4'       11.5330   53.5180   44.8460 C.3     2  UDP2        0.1799
     14  O4'       11.7330   52.2400   45.4750 O.3     2  UDP2       -0.3320
     15  O3'        9.6170   54.8980   44.3380 O.3     2  UDP2       -0.2175
     16  C5'       12.6060   54.5450   45.2180 C.3     2  UDP2        0.1813
     17  O5'       12.6280   54.8150   46.6230 O.3     2  UDP2       -0.3111
     18  PA        11.7930   56.0440   47.2460 P.3     2  UDP2        0.2231
     19  O1A       10.7000   56.4790   46.1460 O.2     2  UDP2       -0.5169
     20  O2A       11.1660   55.7180   48.5460 O.3     2  UDP2       -0.4370
     21  O3A       12.8250   57.2750   47.3740 O.3     2  UDP2       -0.2261
     22  PB        13.0250   58.3370   46.1780 P.3     2  UDP2        0.5373
     23  O1B       13.8080   57.2970   45.2290 O.2     2  UDP2       -0.2221
     24  O2B       14.0290   59.2650   47.0280 O.3     2  UDP2       -0.1143
     25  O3B       11.6170   58.7230   45.9380 O.3     2  UDP2       -0.1143
@<TRIPOS>BOND
     1    11    10    1
     2    15    12    1
     3    13    16    1
     4    13    12    1
     5    13    14    1
     6    10    12    1
     7    10     9    1
     8    16    17    1
     9    23    22    2
    10    14     9    1
    11     9     1    1
    12    25    22    1
    13    19    18    2
    14    22    24    1
    15    22    21    1
    16    17    18    1
    17     7     2    2
    18     1     2   am
    19     1     6    1
    20    18    21    1
    21    18    20    1
    22     2     3    2
    23     6     5    2
    24     3     4    2
    25     5     4    1
    26     4     8    2
