@<TRIPOS>MOLECULE
1zjp_DR4_A_1.pdb
 24 24 0 0 0
SMALL
GASTEIGER

@<TRIPOS>ATOM
      1  CAA       11.1300   60.5550   42.7770 C.3     1  DR41        0.2556
      2  OAP       11.0310   61.8320   42.1400 O.3     1  DR41       -0.4444
      3  CAS       12.0400   62.0380   41.2500 C.2     1  DR41        0.3171
      4  OAB       12.8980   61.1770   41.0630 O.2     1  DR41       -0.2501
      5  CAO       12.0790   63.3600   40.4790 C.3     1  DR41        0.1096
      6  CAL       13.3610   64.1610   40.7240 C.3     1  DR41        0.0116
      7  CAJ       13.5530   64.5220   42.1990 C.3     1  DR41        0.0006
      8  CAH       14.7200   65.4960   42.3750 C.3     1  DR41        0.0000
      9  CAG       15.0270   65.7330   43.8560 C.3     1  DR41        0.0001
     10  CAI       16.0550   66.8560   44.0230 C.3     1  DR41        0.0026
     11  CAK       16.4800   67.0410   45.4810 C.3     1  DR41        0.0322
     12  CAM       17.4520   65.9530   45.9470 C.3     1  DR41        0.1449
     13  O1        16.8750   64.6520   45.7650 O.3     1  DR41       -0.3286
     14  C1        17.6700   63.6500   46.4170 C.3     1  DR41        0.2695
     15  O5        19.0070   63.6170   45.8840 O.3     1  DR41       -0.3256
     16  C5        19.8250   62.6300   46.5360 C.3     1  DR41        0.1835
     17  C6        21.2760   62.7090   46.0560 C.3     1  DR41        0.2142
     18  O6        21.8420   63.9640   46.4440 O.3     1  DR41       -0.2176
     19  C4        19.2470   61.2370   46.2710 C.3     1  DR41        0.2144
     20  O4        19.2040   61.0000   44.8610 O.3     1  DR41       -0.2176
     21  C3        17.8270   61.1720   46.8390 C.3     1  DR41        0.2198
     22  O3        17.2410   59.9070   46.5240 O.3     1  DR41       -0.2174
     23  C2        16.9750   62.2960   46.2460 C.3     1  DR41        0.2406
     24  O2        15.6950   62.3190   46.8830 O.3     1  DR41       -0.2149
@<TRIPOS>BOND
     1     5     6    1
     2     5     3    1
     3     6     7    1
     4     4     3    2
     5     3     2    1
     6     2     1    1
     7     7     8    1
     8     8     9    1
     9     9    10    1
    10    10    11    1
    11    20    19    1
    12    11    12    1
    13    13    12    1
    14    13    14    1
    15    15    14    1
    16    15    16    1
    17    17    18    1
    18    17    16    1
    19    23    14    1
    20    23    21    1
    21    23    24    1
    22    19    16    1
    23    19    21    1
    24    22    21    1
