@<TRIPOS>MOLECULE
1zjp_UDP_A_1.pdb
 25 26 0 0 0
SMALL
GASTEIGER

@<TRIPOS>ATOM
      1  N1         9.8170   51.7460   47.2320 N.am    2  UDP2       -0.1766
      2  C2         8.7940   50.8490   47.5740 C.1     2  UDP2        0.2845
      3  N3         8.4200   50.7160   48.9180 N.2     2  UDP2       -0.2452
      4  C4         9.0600   51.4720   49.9090 C.1     2  UDP2        0.2182
      5  C5        10.0720   52.3640   49.5670 C.2     2  UDP2        0.1242
      6  C6        10.4450   52.4980   48.2340 C.2     2  UDP2        0.0929
      7  O2         8.2210   50.1910   46.7070 O.2     2  UDP2       -0.1918
      8  O4         8.7240   51.3490   51.0860 O.2     2  UDP2       -0.2085
      9  C1'       10.2590   51.8590   45.8220 C.3     2  UDP2        0.2401
     10  C2'        9.3340   52.7910   45.0340 C.3     2  UDP2        0.2319
     11  O2'        9.3910   52.4650   43.6430 O.3     2  UDP2       -0.2157
     12  C3'       10.0080   54.1390   45.2810 C.3     2  UDP2        0.2158
     13  C4'       11.4440   53.6840   45.0230 C.3     2  UDP2        0.1799
     14  O4'       11.5590   52.4800   45.7980 O.3     2  UDP2       -0.3320
     15  O3'        9.6100   55.0610   44.2630 O.3     2  UDP2       -0.2175
     16  C5'       12.5050   54.7280   45.3760 C.3     2  UDP2        0.1813
     17  O5'       12.3970   55.1620   46.7350 O.3     2  UDP2       -0.3111
     18  PA        11.6340   56.5320   47.1030 P.3     2  UDP2        0.2231
     19  O1A       10.7430   56.9310   45.8230 O.2     2  UDP2       -0.5169
     20  O2A       10.8160   56.4300   48.3320 O.3     2  UDP2       -0.4370
     21  O3A       12.7760   57.6610   47.2360 O.3     2  UDP2       -0.2261
     22  PB        13.2100   58.5750   45.9820 P.3     2  UDP2        0.5373
     23  O1B       13.8460   57.3460   45.1570 O.2     2  UDP2       -0.2221
     24  O2B       14.3190   59.3860   46.8210 O.3     2  UDP2       -0.1143
     25  O3B       11.9000   59.1680   45.6350 O.3     2  UDP2       -0.1143
@<TRIPOS>BOND
     1    11    10    1
     2    15    12    1
     3    13    12    1
     4    13    16    1
     5    13    14    1
     6    10    12    1
     7    10     9    1
     8    23    22    2
     9    16    17    1
    10    25    22    1
    11    14     9    1
    12     9     1    1
    13    19    18    2
    14    22    24    1
    15    22    21    1
    16     7     2    2
    17    17    18    1
    18    18    21    1
    19    18    20    1
    20     1     2   am
    21     1     6    1
    22     2     3    2
    23     6     5    2
    24     3     4    2
    25     5     4    1
    26     4     8    2
