@<TRIPOS>MOLECULE
1zjw_AMP_A_1.pdb
 23 25 0 0 0
SMALL
GASTEIGER

@<TRIPOS>ATOM
      1  P         46.2040   27.6190   15.1240 P.3   998  AMP998      0.5327
      2  O1P       46.4090   27.6470   16.6300 O.3   998  AMP998     -0.1145
      3  O2P       46.8350   26.3930   14.4670 O.3   998  AMP998     -0.1145
      4  O3P       46.6290   28.9030   14.4340 O.2   998  AMP998     -0.2224
      5  O5'       44.5840   27.5090   14.9270 O.3   998  AMP998     -0.2675
      6  C5'       43.9330   28.0360   13.7540 C.3   998  AMP998      0.1860
      7  C4'       42.5020   28.3890   14.0760 C.3   998  AMP998      0.1823
      8  O4'       41.8410   27.2280   14.6280 O.3   998  AMP998     -0.3135
      9  C3'       42.3570   29.4480   15.1540 C.3   998  AMP998      0.2184
     10  O3'       42.3390   30.7370   14.5240 O.3   998  AMP998     -0.2174
     11  C2'       40.9860   29.1590   15.7440 C.3   998  AMP998      0.2570
     12  O2'       39.9860   29.7990   14.9790 O.3   998  AMP998     -0.2130
     13  C1'       40.8830   27.6370   15.5850 C.3   998  AMP998      0.3186
     14  N9        41.0680   26.8410   16.7990 N.pl3 998  AMP998     -0.1439
     15  C8        42.2330   26.5250   17.4480 C.3   998  AMP998      0.3377
     16  N7        42.0650   25.7400   18.4850 N.2   998  AMP998     -0.2095
     17  C5        40.6970   25.5370   18.5310 C.2   998  AMP998      0.2526
     18  C6        39.8750   24.7890   19.3980 C.2   998  AMP998      0.4393
     19  N6        40.3350   24.0570   20.4210 N.pl3 998  AMP998      0.2180
     20  N1        38.5440   24.8130   19.1710 N.2   998  AMP998      0.0021
     21  C2        38.0810   25.5270   18.1420 C.3   998  AMP998      0.5254
     22  N3        38.7470   26.2570   17.2570 N.2   998  AMP998     -0.0055
     23  C4        40.0670   26.2220   17.5100 C.2   998  AMP998      0.3518
@<TRIPOS>BOND
     1     6     7    1
     2     6     5    1
     3     7     8    1
     4     7     9    1
     5     4     1    2
     6     3     1    1
     7    10     9    1
     8     8    13    1
     9     5     1    1
    10    12    11    1
    11     1     2    1
    12     9    11    1
    13    13    11    1
    14    13    14    1
    15    14    15    1
    16    14    23    1
    17    22    23    2
    18    22    21    1
    19    15    16    1
    20    23    17    1
    21    21    20    1
    22    16    17    2
    23    17    18    1
    24    20    18    2
    25    18    19    1
