@<TRIPOS>MOLECULE
1zjw_GLN_A_1.pdb
 10 9 0 0 0
SMALL
GASTEIGER

@<TRIPOS>ATOM
      1  N         46.1270   31.4360   13.8970 N.3   996  GLN996     -0.1208
      2  CA        45.7280   31.8340   15.2860 C.3   996  GLN996      0.1948
      3  C         45.7890   30.6630   16.2800 C.2   996  GLN996      0.3819
      4  O         44.7080   30.2400   16.7640 O.co2 996  GLN996     -0.2441
      5  CB        44.3070   32.3920   15.2930 C.3   996  GLN996      0.0403
      6  CG        44.0460   33.5120   14.3260 C.3   996  GLN996      0.0906
      7  CD        42.6090   33.9800   14.4380 C.2   996  GLN996      0.2608
      8  OE1       41.6950   33.1460   14.5090 O.2   996  GLN996     -0.2717
      9  NE2       42.3910   35.3110   14.4530 N.am  996  GLN996     -0.0878
     10  OXT       46.9160   30.1800   16.5670 O.co2 996  GLN996     -0.2441
@<TRIPOS>BOND
     1     1     2    1
     2     6     7    1
     3     6     5    1
     4     7     9   am
     5     7     8    2
     6     2     5    1
     7     2     3    1
     8     3    10   ar
     9     3     4   ar
