@<TRIPOS>MOLECULE
1zjy_NAI_A_1.pdb
 44 48 0 0 0
SMALL
GASTEIGER

@<TRIPOS>ATOM
      1  PA        13.0860   16.1030   17.4390 P.3   1270  NAI1270     0.2189
      2  O1A       13.9150   14.8780   17.1530 O.3   1270  NAI1270    -0.4371
      3  O2A       13.7380   17.3190   16.8270 O.2   1270  NAI1270    -0.5170
      4  O5B       13.0020   16.2640   18.9320 O.3   1270  NAI1270    -0.3112
      5  C5B       12.1610   15.4000   19.6830 C.3   1270  NAI1270     0.1813
      6  C4B       10.8280   16.1110   19.8560 C.3   1270  NAI1270     0.1821
      7  O4B        9.8130   15.2640   20.3740 O.3   1270  NAI1270    -0.3135
      8  C3B       10.9430   17.2600   20.8380 C.3   1270  NAI1270     0.2184
      9  O3B       10.8000   18.4940   20.1580 O.3   1270  NAI1270    -0.2174
     10  C2B        9.8120   17.0830   21.8240 C.3   1270  NAI1270     0.2570
     11  O2B        9.0460   18.2740   21.8340 O.3   1270  NAI1270    -0.2130
     12  C1B        8.9960   15.8900   21.3470 C.3   1270  NAI1270     0.3186
     13  N9A        8.6730   14.9750   22.4670 N.pl3 1270  NAI1270    -0.1439
     14  C8A        9.3250   13.8380   22.7880 C.3   1270  NAI1270     0.3377
     15  N7A        8.7520   13.2540   23.8700 N.2   1270  NAI1270    -0.2095
     16  C5A        7.7270   14.0200   24.2460 C.2   1270  NAI1270     0.2526
     17  C6A        6.7060   13.9800   25.3080 C.2   1270  NAI1270     0.4393
     18  N6A        6.7120   12.9220   26.2090 N.pl3 1270  NAI1270     0.2180
     19  N1A        5.8020   14.9690   25.3660 N.2   1270  NAI1270     0.0021
     20  C2A        5.8060   15.9920   24.4870 C.3   1270  NAI1270     0.5254
     21  N3A        6.7150   16.0890   23.4950 N.2   1270  NAI1270    -0.0055
     22  C4A        7.6690   15.1600   23.3250 C.2   1270  NAI1270     0.3518
     23  O3        11.6890   15.8430   16.9230 O.3   1270  NAI1270    -0.2703
     24  PN        11.0900   16.4000   15.6580 P.3   1270  NAI1270     0.2189
     25  O1N       12.1730   16.8150   14.7090 O.2   1270  NAI1270    -0.5170
     26  O2N       10.1980   17.5620   16.0390 O.3   1270  NAI1270    -0.4371
     27  O5D       10.2700   15.2930   15.0270 O.3   1270  NAI1270    -0.3112
     28  C5D        8.8470   15.3220   15.0700 C.3   1270  NAI1270     0.1813
     29  C4D        8.2130   14.0120   14.6190 C.3   1270  NAI1270     0.1799
     30  O4D        8.7970   13.5250   13.4190 O.3   1270  NAI1270    -0.3327
     31  C3D        8.3730   12.8780   15.6230 C.3   1270  NAI1270     0.2158
     32  O3D        7.1000   12.3260   15.9350 O.3   1270  NAI1270    -0.2175
     33  C2D        9.2480   11.8330   14.9520 C.3   1270  NAI1270     0.2309
     34  O2D        8.7870   10.5390   15.3230 O.3   1270  NAI1270    -0.2158
     35  C1D        9.1060   12.1390   13.4610 C.3   1270  NAI1270     0.2263
     36  N1N       10.2820   11.8180   12.6340 N.pl3 1270  NAI1270    -0.2787
     37  C2N       11.4010   12.5610   12.7040 C.3   1270  NAI1270     0.1244
     38  C3N       12.5130   12.2530   11.9090 C.2   1270  NAI1270     0.0544
     39  C7N       13.7970   13.0470   11.9550 C.2   1270  NAI1270     0.2818
     40  O7N       14.7180   12.7000   11.2310 O.2   1270  NAI1270    -0.2670
     41  N7N       13.9550   14.1030   12.7550 N.am  1270  NAI1270    -0.0839
     42  C4N       12.4340   11.1630   11.0410 C.2   1270  NAI1270     0.0033
     43  C5N       11.2690   10.4150   10.9820 C.2   1270  NAI1270     0.0157
     44  C6N       10.1970   10.7690   11.7940 C.2   1270  NAI1270     0.0633
@<TRIPOS>BOND
     1    43    42    1
     2    43    44    2
     3    42    38    2
     4    40    39    2
     5    44    36    1
     6    38    39    1
     7    38    37    1
     8    39    41   am
     9    36    37    1
    10    36    35    1
    11    30    35    1
    12    30    29    1
    13    35    33    1
    14    29    28    1
    15    29    31    1
    16    25    24    2
    17    33    34    1
    18    33    31    1
    19    27    28    1
    20    27    24    1
    21    31    32    1
    22    24    26    1
    23    24    23    1
    24     3     1    2
    25    23     1    1
    26     2     1    1
    27     1     4    1
    28     4     5    1
    29     5     6    1
    30     6     7    1
    31     6     8    1
    32     9     8    1
    33     7    12    1
    34     8    10    1
    35    12    10    1
    36    12    13    1
    37    10    11    1
    38    13    14    1
    39    13    22    1
    40    14    15    1
    41    22    21    2
    42    22    16    1
    43    21    20    1
    44    15    16    2
    45    16    17    1
    46    20    19    1
    47    17    19    2
    48    17    18    1
