@<TRIPOS>MOLECULE
1zjz_NAD_A_1.pdb
 44 48 0 0 0
SMALL
GASTEIGER

@<TRIPOS>ATOM
      1  PA        13.1040   16.0090   17.3270 P.3   1270  NAD1270     0.2189
      2  O1A       14.0290   14.8430   17.1040 O.3   1270  NAD1270    -0.4371
      3  O2A       13.7310   17.2520   16.7420 O.2   1270  NAD1270    -0.5170
      4  O5B       12.9280   16.1980   18.8060 O.3   1270  NAD1270    -0.3112
      5  C5B       12.0350   15.3690   19.5310 C.3   1270  NAD1270     0.1813
      6  C4B       10.7110   16.1060   19.6230 C.3   1270  NAD1270     0.1821
      7  O4B        9.7010   15.2950   20.1980 O.3   1270  NAD1270    -0.3135
      8  C3B       10.8110   17.3330   20.5100 C.3   1270  NAD1270     0.2184
      9  O3B       10.5270   18.4930   19.7420 O.3   1270  NAD1270    -0.2174
     10  C2B        9.7850   17.1520   21.6110 C.3   1270  NAD1270     0.2570
     11  O2B        9.0110   18.3350   21.7130 O.3   1270  NAD1270    -0.2130
     12  C1B        8.9420   15.9520   21.1970 C.3   1270  NAD1270     0.3186
     13  N9A        8.6420   15.0230   22.3090 N.pl3 1270  NAD1270    -0.1439
     14  C8A        9.3050   13.8860   22.5970 C.3   1270  NAD1270     0.3377
     15  N7A        8.7480   13.2740   23.6730 N.2   1270  NAD1270    -0.2095
     16  C5A        7.7180   14.0200   24.0730 C.2   1270  NAD1270     0.2526
     17  C6A        6.7100   13.9440   25.1460 C.2   1270  NAD1270     0.4393
     18  N6A        6.7460   12.8630   26.0230 N.pl3 1270  NAD1270     0.2180
     19  N1A        5.7940   14.9210   25.2340 N.2   1270  NAD1270     0.0021
     20  C2A        5.7770   15.9630   24.3760 C.3   1270  NAD1270     0.5254
     21  N3A        6.6760   16.0950   23.3760 N.2   1270  NAD1270    -0.0055
     22  C4A        7.6380   15.1770   23.1740 C.2   1270  NAD1270     0.3518
     23  O3        11.7570   15.6540   16.7370 O.3   1270  NAD1270    -0.2703
     24  PN        11.0470   16.3660   15.6120 P.3   1270  NAD1270     0.2189
     25  O1N       12.0550   16.9530   14.6740 O.2   1270  NAD1270    -0.5170
     26  O2N       10.1400   17.4520   16.1680 O.3   1270  NAD1270    -0.4371
     27  O5D       10.2420   15.3080   14.8910 O.3   1270  NAD1270    -0.3112
     28  C5D        8.8210   15.3140   14.8850 C.3   1270  NAD1270     0.1813
     29  C4D        8.2160   13.9620   14.5080 C.3   1270  NAD1270     0.1799
     30  O4D        8.7830   13.4160   13.3220 O.3   1270  NAD1270    -0.3327
     31  C3D        8.4270   12.8890   15.5670 C.3   1270  NAD1270     0.2158
     32  O3D        7.1880   12.2510   15.8630 O.3   1270  NAD1270    -0.2175
     33  C2D        9.4130   11.9030   14.9650 C.3   1270  NAD1270     0.2309
     34  O2D        9.1330   10.6010   15.4580 O.3   1270  NAD1270    -0.2158
     35  C1D        9.1980   12.0640   13.4610 C.3   1270  NAD1270     0.2263
     36  N1N       10.3630   11.7790   12.6070 N.pl3 1270  NAD1270    -0.2787
     37  C2N       11.4700   12.5410   12.6760 C.3   1270  NAD1270     0.1244
     38  C3N       12.5790   12.2770   11.8580 C.2   1270  NAD1270     0.0544
     39  C7N       13.8490   13.0980   11.9040 C.2   1270  NAD1270     0.2818
     40  O7N       14.7660   12.7890   11.1590 O.2   1270  NAD1270    -0.2670
     41  N7N       14.0010   14.1360   12.7300 N.am  1270  NAD1270    -0.0839
     42  C4N       12.5050   11.2080   10.9620 C.2   1270  NAD1270     0.0033
     43  C5N       11.3510   10.4420   10.9040 C.2   1270  NAD1270     0.0157
     44  C6N       10.2840   10.7530   11.7420 C.2   1270  NAD1270     0.0633
@<TRIPOS>BOND
     1    43    42    1
     2    43    44    2
     3    42    38    2
     4    40    39    2
     5    44    36    1
     6    38    39    1
     7    38    37    1
     8    39    41   am
     9    36    37    1
    10    36    35    1
    11    30    35    1
    12    30    29    1
    13    35    33    1
    14    29    28    1
    15    29    31    1
    16    25    24    2
    17    28    27    1
    18    27    24    1
    19    33    34    1
    20    33    31    1
    21    31    32    1
    22    24    26    1
    23    24    23    1
    24    23     1    1
    25     3     1    2
    26     2     1    1
    27     1     4    1
    28     4     5    1
    29     5     6    1
    30     6     7    1
    31     6     8    1
    32     9     8    1
    33     7    12    1
    34     8    10    1
    35    12    10    1
    36    12    13    1
    37    10    11    1
    38    13    14    1
    39    13    22    1
    40    14    15    1
    41    22    21    2
    42    22    16    1
    43    21    20    1
    44    15    16    2
    45    16    17    1
    46    20    19    1
    47    17    19    2
    48    17    18    1
