@<TRIPOS>MOLECULE
1zk0_NAI_A_1.pdb
 44 48 0 0 0
SMALL
GASTEIGER

@<TRIPOS>ATOM
      1  PA        13.0040   16.3120   17.5020 P.3   1270  NAI1270     0.2189
      2  O1A       13.7280   14.9650   17.5000 O.3   1270  NAI1270    -0.4371
      3  O2A       13.8560   17.4340   16.8540 O.2   1270  NAI1270    -0.5170
      4  O5B       12.5820   16.5980   18.9400 O.3   1270  NAI1270    -0.3112
      5  C5B       11.5920   15.7350   19.5290 C.3   1270  NAI1270     0.1813
      6  C4B       10.2240   16.4360   19.5710 C.3   1270  NAI1270     0.1821
      7  O4B        9.1660   15.7400   20.2750 O.3   1270  NAI1270    -0.3135
      8  C3B       10.4420   17.7460   20.3020 C.3   1270  NAI1270     0.2184
      9  O3B        9.8930   18.7520   19.4770 O.3   1270  NAI1270    -0.2174
     10  C2B        9.7490   17.6520   21.6540 C.3   1270  NAI1270     0.2570
     11  O2B        9.2090   19.0070   21.8510 O.3   1270  NAI1270    -0.2130
     12  C1B        8.7850   16.4090   21.4820 C.3   1270  NAI1270     0.3186
     13  N9A        8.5350   15.3350   22.5220 N.pl3 1270  NAI1270    -0.1439
     14  C8A        9.1860   14.1560   22.7860 C.3   1270  NAI1270     0.3377
     15  N7A        8.5350   13.4660   23.8040 N.2   1270  NAI1270    -0.2095
     16  C5A        7.4430   14.1890   24.1760 C.2   1270  NAI1270     0.2526
     17  C6A        6.2930   14.0970   25.1260 C.2   1270  NAI1270     0.4393
     18  N6A        6.1870   13.0020   25.9760 N.pl3 1270  NAI1270     0.2180
     19  N1A        5.3660   15.1000   25.1730 N.2   1270  NAI1270     0.0021
     20  C2A        5.4200   16.1990   24.3860 C.3   1270  NAI1270     0.5254
     21  N3A        6.4520   16.3510   23.4930 N.2   1270  NAI1270    -0.0055
     22  C4A        7.4410   15.4160   23.3320 C.2   1270  NAI1270     0.3518
     23  O3        11.6360   16.0260   16.8510 O.3   1270  NAI1270    -0.2703
     24  PN        10.8610   16.6760   15.7030 P.3   1270  NAI1270     0.2189
     25  O1N       11.9180   17.1220   14.7220 O.2   1270  NAI1270    -0.5170
     26  O2N        9.8680   17.7980   16.3730 O.3   1270  NAI1270    -0.4371
     27  O5D       10.1190   15.4190   15.1010 O.3   1270  NAI1270    -0.3112
     28  C5D        8.6890   15.3920   14.8840 C.3   1270  NAI1270     0.1813
     29  C4D        7.9940   14.0880   14.4720 C.3   1270  NAI1270     0.1799
     30  O4D        8.4620   13.5080   13.2390 O.3   1270  NAI1270    -0.3327
     31  C3D        8.1210   12.9790   15.5230 C.3   1270  NAI1270     0.2158
     32  O3D        6.8260   12.3860   15.7710 O.3   1270  NAI1270    -0.2175
     33  C2D        9.2020   12.0240   14.9440 C.3   1270  NAI1270     0.2309
     34  O2D        9.0590   10.6940   15.5170 O.3   1270  NAI1270    -0.2158
     35  C1D        9.0720   12.2070   13.3870 C.3   1270  NAI1270     0.2263
     36  N1N       10.2930   11.9560   12.5070 N.pl3 1270  NAI1270    -0.2787
     37  C2N       11.4970   12.5940   12.5650 C.3   1270  NAI1270     0.1244
     38  C3N       12.5560   12.2280   11.6620 C.2   1270  NAI1270     0.0544
     39  C7N       13.9690   12.8540   11.6240 C.2   1270  NAI1270     0.2818
     40  O7N       14.7650   12.3940   10.7960 O.2   1270  NAI1270    -0.2670
     41  N7N       14.3770   13.8560   12.4450 N.am  1270  NAI1270    -0.0839
     42  C4N       12.3330   11.1930   10.7220 C.2   1270  NAI1270     0.0033
     43  C5N       11.1180   10.5610   10.6770 C.2   1270  NAI1270     0.0157
     44  C6N       10.1320   10.9720   11.5790 C.2   1270  NAI1270     0.0633
@<TRIPOS>BOND
     1    43    42    1
     2    43    44    2
     3    42    38    2
     4    40    39    2
     5    44    36    1
     6    39    38    1
     7    39    41   am
     8    38    37    1
     9    36    37    1
    10    36    35    1
    11    30    35    1
    12    30    29    1
    13    35    33    1
    14    29    28    1
    15    29    31    1
    16    25    24    2
    17    28    27    1
    18    33    34    1
    19    33    31    1
    20    27    24    1
    21    31    32    1
    22    24    26    1
    23    24    23    1
    24    23     1    1
    25     3     1    2
    26     2     1    1
    27     1     4    1
    28     4     5    1
    29     9     8    1
    30     5     6    1
    31     6     7    1
    32     6     8    1
    33     7    12    1
    34     8    10    1
    35    12    10    1
    36    12    13    1
    37    10    11    1
    38    13    14    1
    39    13    22    1
    40    14    15    1
    41    22    21    2
    42    22    16    1
    43    21    20    1
    44    15    16    2
    45    16    17    1
    46    20    19    1
    47    17    19    2
    48    17    18    1
