@<TRIPOS>MOLECULE
1zk1_NAD_A_1.pdb
 44 48 0 0 0
SMALL
GASTEIGER

@<TRIPOS>ATOM
      1  PA        13.0620   16.3210   17.4270 P.3   270  NAD270      0.2189
      2  O1A       13.8110   14.9990   17.2170 O.3   270  NAD270     -0.4371
      3  O2A       13.9310   17.4660   16.8550 O.2   270  NAD270     -0.5170
      4  O5B       12.6890   16.5070   18.9080 O.3   270  NAD270     -0.3112
      5  C5B       11.6830   15.6240   19.4300 C.3   270  NAD270      0.1813
      6  C4B       10.2960   16.2970   19.4550 C.3   270  NAD270      0.1821
      7  O4B        9.2900   15.5550   20.1770 O.3   270  NAD270     -0.3135
      8  C3B       10.4370   17.6420   20.1560 C.3   270  NAD270      0.2184
      9  O3B        9.8360   18.6330   19.3390 O.3   270  NAD270     -0.2174
     10  C2B        9.7800   17.4810   21.5370 C.3   270  NAD270      0.2570
     11  O2B        9.1600   18.7540   21.8460 O.3   270  NAD270     -0.2130
     12  C1B        8.8340   16.2620   21.3440 C.3   270  NAD270      0.3186
     13  N9A        8.5460   15.2390   22.3940 N.pl3 270  NAD270     -0.1439
     14  C8A        9.1610   14.0460   22.6690 C.3   270  NAD270      0.3377
     15  N7A        8.4910   13.4000   23.6910 N.2   270  NAD270     -0.2095
     16  C5A        7.4180   14.1630   24.0410 C.2   270  NAD270      0.2526
     17  C6A        6.2460   14.1070   24.9790 C.2   270  NAD270      0.4393
     18  N6A        6.0990   13.0340   25.8390 N.pl3 270  NAD270      0.2180
     19  N1A        5.3570   15.1230   24.9990 N.2   270  NAD270      0.0021
     20  C2A        5.4410   16.2270   24.1970 C.3   270  NAD270      0.5254
     21  N3A        6.4850   16.3550   23.3180 N.2   270  NAD270     -0.0055
     22  C4A        7.4460   15.3830   23.1790 C.2   270  NAD270      0.3518
     23  O3        11.6040   16.0750   16.8600 O.3   270  NAD270     -0.2703
     24  PN        10.6940   16.7700   15.8130 P.3   270  NAD270      0.2189
     25  O1N       11.8510   17.1070   14.8500 O.2   270  NAD270     -0.5170
     26  O2N        9.6290   17.9120   16.4140 O.3   270  NAD270     -0.4371
     27  O5D        9.9720   15.4980   15.1960 O.3   270  NAD270     -0.3112
     28  C5D        8.5660   15.3680   14.8660 C.3   270  NAD270      0.1813
     29  C4D        7.9540   13.9790   14.5050 C.3   270  NAD270      0.1799
     30  O4D        8.5350   13.4030   13.3230 O.3   270  NAD270     -0.3327
     31  C3D        8.0670   12.8560   15.5680 C.3   270  NAD270      0.2158
     32  O3D        6.8330   12.1380   15.7710 O.3   270  NAD270     -0.2175
     33  C2D        9.1720   11.8800   15.1010 C.3   270  NAD270      0.2309
     34  O2D        8.7450   10.5840   15.6670 O.3   270  NAD270     -0.2158
     35  C1D        9.2010   12.1340   13.5340 C.3   270  NAD270      0.2263
     36  N1N       10.4540   12.0600   12.6660 N.pl3 270  NAD270     -0.2787
     37  C2N       11.5660   12.7910   12.7790 C.3   270  NAD270      0.1244
     38  C3N       12.6370   12.6110   11.8410 C.2   270  NAD270      0.0544
     39  C7N       13.9630   13.3650   11.9110 C.2   270  NAD270      0.2818
     40  O7N       14.8510   13.1100   11.0750 O.2   270  NAD270     -0.2670
     41  N7N       14.1350   14.2810   12.8820 N.am  270  NAD270     -0.0839
     42  C4N       12.5370   11.6760   10.7970 C.2   270  NAD270      0.0033
     43  C5N       11.4010   10.9230   10.6910 C.2   270  NAD270      0.0157
     44  C6N       10.3840   11.1900   11.6230 C.2   270  NAD270      0.0633
@<TRIPOS>BOND
     1    43    42    1
     2    43    44    2
     3    42    38    2
     4    40    39    2
     5    44    36    1
     6    38    39    1
     7    38    37    1
     8    39    41   am
     9    36    37    1
    10    36    35    1
    11    30    35    1
    12    30    29    1
    13    35    33    1
    14    29    28    1
    15    29    31    1
    16    25    24    2
    17    28    27    1
    18    33    31    1
    19    33    34    1
    20    27    24    1
    21    31    32    1
    22    24    26    1
    23    24    23    1
    24     3     1    2
    25    23     1    1
    26     2     1    1
    27     1     4    1
    28     4     5    1
    29     9     8    1
    30     5     6    1
    31     6     8    1
    32     6     7    1
    33     8    10    1
    34     7    12    1
    35    12    10    1
    36    12    13    1
    37    10    11    1
    38    13    14    1
    39    13    22    1
    40    14    15    1
    41    22    21    2
    42    22    16    1
    43    21    20    1
    44    15    16    2
    45    16    17    1
    46    20    19    1
    47    17    19    2
    48    17    18    1
