@<TRIPOS>MOLECULE
1zk4_NAP_A_1.pdb
 48 52 0 0 0
SMALL
GASTEIGER

@<TRIPOS>ATOM
      1  PA        13.1780   15.8370   17.3380 P.3   1270  NAP1270     0.2189
      2  O1A       13.9960   14.6200   17.1310 O.3   1270  NAP1270    -0.4371
      3  O2A       13.8370   17.0820   16.7100 O.2   1270  NAP1270    -0.5170
      4  O5B       12.9560   16.0460   18.9160 O.3   1270  NAP1270    -0.3112
      5  C5B       12.1680   15.1300   19.6370 C.3   1270  NAP1270     0.1813
      6  C4B       10.7520   15.6780   19.7300 C.3   1270  NAP1270     0.1820
      7  O4B        9.8850   14.7350   20.3360 O.3   1270  NAP1270    -0.3136
      8  C3B       10.6970   16.9510   20.5540 C.3   1270  NAP1270     0.2157
      9  O3B       10.1870   18.0120   19.7770 O.3   1270  NAP1270    -0.2175
     10  C2B        9.7870   16.6170   21.7140 C.3   1270  NAP1270     0.2314
     11  O2B        8.8990   17.6550   22.0300 O.3   1270  NAP1270    -0.2630
     12  C1B        9.0260   15.3990   21.2410 C.3   1270  NAP1270     0.3158
     13  N9A        8.6680   14.5880   22.4110 N.pl3 1270  NAP1270    -0.1439
     14  C8A        9.2340   13.4060   22.8010 C.3   1270  NAP1270     0.3377
     15  N7A        8.6140   12.9980   23.9310 N.2   1270  NAP1270    -0.2095
     16  C5A        7.6780   13.9090   24.2660 C.2   1270  NAP1270     0.2526
     17  C6A        6.7770   13.9820   25.3150 C.2   1270  NAP1270     0.4393
     18  N6A        6.7460   13.0180   26.2280 N.pl3 1270  NAP1270     0.2180
     19  N1A        5.9250   15.0650   25.3960 N.2   1270  NAP1270     0.0021
     20  C2A        5.9560   16.0660   24.4440 C.3   1270  NAP1270     0.5254
     21  N3A        6.8590   15.9830   23.4030 N.2   1270  NAP1270    -0.0055
     22  C4A        7.7020   14.9210   23.3190 C.2   1270  NAP1270     0.3518
     23  O3        11.7020   15.5660   16.7520 O.3   1270  NAP1270    -0.2703
     24  PN        11.1560   16.2930   15.4240 P.3   1270  NAP1270     0.2189
     25  O1N       12.3100   16.5970   14.5480 O.2   1270  NAP1270    -0.5170
     26  O2N       10.2360   17.3750   15.8480 O.3   1270  NAP1270    -0.4371
     27  O5D       10.3150   15.1050   14.7310 O.3   1270  NAP1270    -0.3112
     28  C5D        8.9040   15.0850   14.7090 C.3   1270  NAP1270     0.1813
     29  C4D        8.3930   13.6580   14.5480 C.3   1270  NAP1270     0.1799
     30  O4D        8.8170   13.1100   13.3120 O.3   1270  NAP1270    -0.3327
     31  C3D        8.9070   12.7490   15.6560 C.3   1270  NAP1270     0.2158
     32  O3D        7.8270   12.2420   16.4140 O.3   1270  NAP1270    -0.2175
     33  C2D        9.6780   11.6470   14.9650 C.3   1270  NAP1270     0.2309
     34  O2D        9.2620   10.3970   15.4630 O.3   1270  NAP1270    -0.2158
     35  C1D        9.3690   11.8140   13.4810 C.3   1270  NAP1270     0.2263
     36  N1N       10.5550   11.6500   12.6080 N.pl3 1270  NAP1270    -0.2787
     37  C2N       11.6050   12.5280   12.6920 C.3   1270  NAP1270     0.1244
     38  C3N       12.7180   12.3780   11.8660 C.2   1270  NAP1270     0.0544
     39  C7N       13.8670   13.3410   11.9710 C.2   1270  NAP1270     0.2818
     40  O7N       15.1760   12.9190   11.6570 O.2   1270  NAP1270    -0.2670
     41  N7N       13.6590   14.5970   12.3620 N.am  1270  NAP1270    -0.0839
     42  C4N       12.7610   11.3300   10.9480 C.2   1270  NAP1270     0.0033
     43  C5N       11.6880   10.4480   10.8670 C.2   1270  NAP1270     0.0157
     44  C6N       10.5870   10.6190   11.7020 C.2   1270  NAP1270     0.0633
     45  P2B        9.4250   18.9580   22.8020 P.3   1270  NAP1270     0.5328
     46  O1X        8.4370   20.0330   22.5890 O.3   1270  NAP1270    -0.1145
     47  O2X       10.7560   19.4190   22.2040 O.2   1270  NAP1270    -0.2224
     48  O3X        9.6280   18.6490   24.2950 O.3   1270  NAP1270    -0.1145
@<TRIPOS>BOND
     1    43    42    1
     2    43    44    2
     3    42    38    2
     4    40    39    2
     5    44    36    1
     6    38    39    1
     7    38    37    1
     8    39    41   am
     9    36    37    1
    10    36    35    1
    11    30    35    1
    12    30    29    1
    13    35    33    1
    14    25    24    2
    15    29    28    1
    16    29    31    1
    17    28    27    1
    18    27    24    1
    19    33    34    1
    20    33    31    1
    21    24    26    1
    22    24    23    1
    23    31    32    1
    24     3     1    2
    25    23     1    1
    26     2     1    1
    27     1     4    1
    28     4     5    1
    29     5     6    1
    30     6     7    1
    31     6     8    1
    32     9     8    1
    33     7    12    1
    34     8    10    1
    35    12    10    1
    36    12    13    1
    37    10    11    1
    38    11    45    1
    39    47    45    2
    40    13    14    1
    41    13    22    1
    42    46    45    1
    43    14    15    1
    44    45    48    1
    45    22    21    2
    46    22    16    1
    47    21    20    1
    48    15    16    2
    49    16    17    1
    50    20    19    1
    51    17    19    2
    52    17    18    1
