@<TRIPOS>MOLECULE
1zk5_NAG_A_1.pdb
 15 15 0 0 0
SMALL
GASTEIGER

@<TRIPOS>ATOM
      1  C1        -6.5550    0.6770   -0.1470 C.3   301  NAG301      0.2917
      2  C2        -5.3760   -0.2040    0.1940 C.3   301  NAG301      0.1871
      3  C3        -5.5330   -0.3900    1.6930 C.3   301  NAG301      0.2095
      4  C4        -5.1920    0.9520    2.3060 C.3   301  NAG301      0.2136
      5  C5        -6.1620    2.0280    1.7740 C.3   301  NAG301      0.1835
      6  C6        -5.7260    3.4360    2.1390 C.3   301  NAG301      0.2142
      7  C7        -6.1070   -2.4430   -1.2140 C.2   301  NAG301      0.2421
      8  C8        -6.6390   -3.7970   -1.5710 C.3   301  NAG301      0.0964
      9  N2        -6.3670   -1.5820   -0.0280 N.am  301  NAG301     -0.1991
     10  O1        -6.7440    0.7490   -1.5150 O.3   301  NAG301     -0.1879
     11  O3        -4.6780   -1.4210    2.1580 O.3   301  NAG301     -0.2183
     12  O4        -5.2550    0.8980    3.7150 O.3   301  NAG301     -0.2176
     13  O5        -6.2550    1.9820    0.3270 O.3   301  NAG301     -0.3242
     14  O6        -4.4390    3.7270    1.6130 O.3   301  NAG301     -0.2176
     15  O7        -5.2210   -1.9620   -1.8940 O.2   301  NAG301     -0.2733
@<TRIPOS>BOND
     1    15     7    2
     2     8     7    1
     3    10     1    1
     4     7     9   am
     5     1     2    1
     6     1    13    1
     7     9     2    1
     8     2     3    1
     9    13     5    1
    10    14     6    1
    11     3    11    1
    12     3     4    1
    13     5     6    1
    14     5     4    1
    15     4    12    1
