@<TRIPOS>MOLECULE
1zkf_III_C_1.pdb
 44 46 0 0 0
SMALL
GASTEIGER

@<TRIPOS>ATOM
      1  C1        10.2370   55.6650   63.2380 C.2     1  SIN1        0.3654
      2  O1        10.8210   56.7510   63.4500 O.co2   1  SIN1       -0.2456
      3  O2        10.8230   54.6210   62.8770 O.co2   1  SIN1       -0.2456
      4  C2         8.7450   55.6150   63.4310 C.3     1  SIN1        0.1237
      5  C3         8.2640   56.6020   64.4890 C.3     1  SIN1        0.0986
      6  C4         6.7490   56.5950   64.5350 C.2     1  SIN1        0.2423
      7  O3         6.0840   56.5130   63.5010 O.2     1  SIN1       -0.2733
      8  N          6.2020   56.6680   65.7380 N.am    2  ALA2       -0.1978
      9  CA         4.7620   56.6800   65.8880 C.3     2  ALA2        0.1728
     10  C          4.2240   57.9710   65.2600 C.2     2  ALA2        0.2617
     11  O          4.8700   59.0170   65.3410 O.2     2  ALA2       -0.2715
     12  CB         4.4020   56.6080   67.3600 C.3     2  ALA2        0.0334
     13  N          3.0580   57.8800   64.6190 N.am    3  GLY3       -0.1941
     14  CA         2.4440   59.0410   64.0020 C.3     3  GLY3        0.1998
     15  C          2.1010   60.0200   65.1010 C.2     3  GLY3        0.2481
     16  O          2.6700   59.9230   66.1850 O.2     3  GLY3       -0.2729
     17  N          1.1600   60.9500   64.8920 N.am    4  PRO4       -0.2715
     18  CA         0.3340   61.2090   63.7110 C.3     4  PRO4        0.1536
     19  C          1.0650   61.6810   62.4570 C.2     4  PRO4        0.2599
     20  O          2.0570   62.4040   62.5320 O.2     4  PRO4       -0.2715
     21  CB        -0.6480   62.2550   64.2150 C.3     4  PRO4        0.0310
     22  CG         0.1960   63.0490   65.1570 C.3     4  PRO4        0.0237
     23  CD         0.9100   61.9680   65.9290 C.3     4  PRO4        0.0939
     24  N          0.5460   61.2590   61.3070 N.am    5  PHE5       -0.1960
     25  CA         1.0810   61.6250   60.0000 C.3     5  PHE5        0.1774
     26  C          0.7410   63.1070   59.8560 C.2     5  PHE5        0.2657
     27  O         -0.4050   63.4960   60.0830 O.2     5  PHE5       -0.2711
     28  CB         0.3750   60.7980   58.9200 C.3     5  PHE5        0.0574
     29  CG         1.0920   60.7620   57.5950 C.ar    5  PHE5       -0.0200
     30  CD1        0.4440   61.1700   56.4270 C.ar    5  PHE5       -0.0042
     31  CD2        2.3970   60.2840   57.5030 C.ar    5  PHE5       -0.0042
     32  CE1        1.0850   61.1000   55.1850 C.ar    5  PHE5       -0.0003
     33  CE2        3.0520   60.2100   56.2600 C.ar    5  PHE5       -0.0003
     34  CZ         2.3920   60.6180   55.1010 C.ar    5  PHE5       -0.0000
     35  N1         1.7340   63.9260   59.4850 N.am    6  NIT6       -0.1778
     36  C1         1.5740   65.3570   59.3420 C.ar    6  NIT6        0.0735
     37  C2         0.3630   66.0180   59.0120 C.ar    6  NIT6        0.0183
     38  C3         0.3420   67.4340   58.9190 C.ar    6  NIT6        0.0254
     39  C4         1.5340   68.1880   59.1560 C.ar    6  NIT6        0.1430
     40  N4         1.5590   69.5330   59.0850 N.pl3   6  NIT6        0.0577
     41  ON1        2.5820   70.1930   59.2890 O.2     6  NIT6       -0.1261
     42  ON2        0.5660   70.1870   58.8140 O.2     6  NIT6       -0.1261
     43  C5         2.7390   67.4800   59.4810 C.ar    6  NIT6        0.0254
     44  C6         2.7540   66.0890   59.5720 C.ar    6  NIT6        0.0183
@<TRIPOS>BOND
     1    34    32   ar
     2    34    33   ar
     3    32    30   ar
     4    33    31   ar
     5    30    29   ar
     6    31    29   ar
     7    29    28    1
     8    42    40    2
     9    38    37   ar
    10    38    39   ar
    11    28    25    1
    12    37    36   ar
    13    40    39    1
    14    40    41    2
    15    39    43   ar
    16    36    35    1
    17    36    44   ar
    18    43    44   ar
    19    35    26   am
    20    26    25    1
    21    26    27    2
    22    25    24    1
    23    24    19   am
    24    19    20    2
    25    19    18    1
    26     3     1   ar
    27     1     4    1
    28     1     2   ar
    29     4     5    1
    30     7     6    2
    31    18    21    1
    32    18    17    1
    33    14    13    1
    34    14    15    1
    35    21    22    1
    36     5     6    1
    37     6     8   am
    38    13    10   am
    39    17    15   am
    40    17    23    1
    41    15    16    2
    42    22    23    1
    43    10    11    2
    44    10     9    1
    45     8     9    1
    46     9    12    1
