@<TRIPOS>MOLECULE
1zkk_SAH_A_1.pdb
 26 28 0 0 0
SMALL
GASTEIGER

@<TRIPOS>ATOM
      1  N         -2.0300    4.3230  -20.5650 N.3   2800  SAH2800    -0.1208
      2  CA        -1.0960    5.3700  -20.0400 C.3   2800  SAH2800     0.1952
      3  CB         0.2280    4.7340  -19.6100 C.3   2800  SAH2800     0.0422
      4  CG         0.1350    4.0910  -18.2230 C.3   2800  SAH2800     0.0597
      5  SD         0.1160    5.3370  -16.9130 S.3   2800  SAH2800    -0.1375
      6  C         -0.8510    6.4720  -21.0560 C.2   2800  SAH2800     0.3819
      7  O         -0.1480    7.4370  -20.7220 O.co2 2800  SAH2800    -0.2441
      8  OXT       -1.3410    6.3970  -22.1970 O.co2 2800  SAH2800    -0.2441
      9  C5'       -1.3800    4.8590  -16.0000 C.3   2800  SAH2800     0.0899
     10  C4'       -2.6880    5.2100  -16.6810 C.3   2800  SAH2800     0.1630
     11  O4'       -2.9420    4.2730  -17.7220 O.3   2800  SAH2800    -0.3153
     12  C3'       -3.9010    5.0690  -15.7770 C.3   2800  SAH2800     0.2168
     13  O3'       -4.1000    6.1730  -14.9260 O.3   2800  SAH2800    -0.2175
     14  C2'       -5.0250    4.8570  -16.7800 C.3   2800  SAH2800     0.2569
     15  O2'       -5.3470    6.0670  -17.4500 O.3   2800  SAH2800    -0.2130
     16  C1'       -4.3280    3.9670  -17.7810 C.3   2800  SAH2800     0.3185
     17  N9        -4.4640    2.5200  -17.4990 N.pl3 2800  SAH2800    -0.1439
     18  C8        -3.4950    1.6690  -17.0160 C.3   2800  SAH2800     0.3377
     19  N7        -4.0010    0.4190  -16.9140 N.2   2800  SAH2800    -0.2095
     20  C5        -5.2910    0.4480  -17.3560 C.2   2800  SAH2800     0.2526
     21  C6        -6.2770   -0.5300  -17.4780 C.2   2800  SAH2800     0.4393
     22  N6        -6.0620   -1.8020  -17.1560 N.pl3 2800  SAH2800     0.2180
     23  N1        -7.5060   -0.1510  -17.9500 N.2   2800  SAH2800     0.0021
     24  C2        -7.7730    1.1510  -18.2880 C.3   2800  SAH2800     0.5254
     25  N3        -6.8150    2.1230  -18.1760 N.2   2800  SAH2800    -0.0055
     26  C4        -5.5860    1.7670  -17.7140 C.2   2800  SAH2800     0.3518
@<TRIPOS>BOND
     1     8     6   ar
     2     6     7   ar
     3     6     2    1
     4     1     2    1
     5     2     3    1
     6     3     4    1
     7    24    25    1
     8    24    23    1
     9     4     5    1
    10    25    26    2
    11    23    21    2
    12    16    11    1
    13    16    17    1
    14    16    14    1
    15    11    10    1
    16    26    17    1
    17    26    20    1
    18    17    18    1
    19    21    20    1
    20    21    22    1
    21    15    14    1
    22    20    19    2
    23    18    19    1
    24     5     9    1
    25    14    12    1
    26    10     9    1
    27    10    12    1
    28    12    13    1
