@<TRIPOS>MOLECULE
1zkl_IBM_A_1.pdb
 16 17 0 0 0
SMALL
GASTEIGER

@<TRIPOS>ATOM
      1  N9        -1.6860   49.7990   22.7020 N.2   503  IBM503     -0.2256
      2  C8        -1.1130   48.7300   22.0570 C.3   503  IBM503      0.2523
      3  N7         0.0490   49.0030   21.5150 N.2   503  IBM503     -0.2364
      4  C5         0.2530   50.3400   21.8250 C.ar  503  IBM503      0.1681
      5  C4        -0.8030   50.8420   22.5540 C.ar  503  IBM503      0.1667
      6  N3        -0.9480   52.1000   23.0310 N.ar  503  IBM503     -0.2651
      7  C2         0.0880   52.9400   22.7390 C.ar  503  IBM503      0.3350
      8  N1         1.2000   52.5190   22.0070 N.ar  503  IBM503     -0.2454
      9  C6         1.2860   51.2260   21.5500 C.ar  503  IBM503      0.2846
     10  O6         2.2630   50.8540   20.9150 O.2   503  IBM503     -0.2651
     11  O2         0.0450   54.0970   23.1420 O.2   503  IBM503     -0.2461
     12  C10        2.2750   53.4590   21.7170 C.3   503  IBM503      0.1383
     13  C11       -2.1040   52.5110   23.8150 C.3   503  IBM503      0.1119
     14  C12       -3.2030   53.0680   22.8920 C.3   503  IBM503      0.0228
     15  C13       -2.8950   54.4580   22.3710 C.3   503  IBM503      0.0020
     16  C14       -3.6230   52.1270   21.7670 C.3   503  IBM503      0.0020
@<TRIPOS>BOND
     1    10     9    2
     2     3     4    2
     3     3     2    1
     4     9     4   ar
     5     9     8   ar
     6    12     8    1
     7    16    14    1
     8     4     5   ar
     9     8     7   ar
    10     2     1    1
    11    15    14    1
    12     5     1    2
    13     5     6   ar
    14     7     6   ar
    15     7    11    2
    16    14    13    1
    17     6    13    1
