@<TRIPOS>MOLECULE
1zkn_IBM_A_1.pdb
 16 17 0 0 0
SMALL
GASTEIGER

@<TRIPOS>ATOM
      1  N9        20.9370   -3.8190   29.4810 N.2   603  IBM603     -0.2256
      2  C8        20.8000   -2.8970   30.4910 C.3   603  IBM603      0.2523
      3  N7        21.2030   -3.3330   31.6600 N.2   603  IBM603     -0.2364
      4  C5        21.6310   -4.6270   31.4000 C.ar  603  IBM603      0.1681
      5  C4        21.4730   -4.9420   30.0670 C.ar  603  IBM603      0.1667
      6  N3        21.7850   -6.1050   29.4550 N.ar  603  IBM603     -0.2651
      7  C2        22.3130   -7.0600   30.2830 C.ar  603  IBM603      0.3350
      8  N1        22.5070   -6.8280   31.6480 N.ar  603  IBM603     -0.2454
      9  C6        22.1690   -5.6200   32.2060 C.ar  603  IBM603      0.2846
     10  O6        22.3430   -5.4160   33.3980 O.2   603  IBM603     -0.2651
     11  O2        22.6330   -8.1460   29.8140 O.2   603  IBM603     -0.2461
     12  C10       23.0740   -7.8740   32.4850 C.3   603  IBM603      0.1383
     13  C11       21.6030   -6.3100   28.0200 C.3   603  IBM603      0.1119
     14  C12       20.2130   -6.8980   27.7350 C.3   603  IBM603      0.0228
     15  C13       20.0740   -8.3630   28.1360 C.3   603  IBM603      0.0020
     16  C14       19.0590   -6.0470   28.2480 C.3   603  IBM603      0.0020
@<TRIPOS>BOND
     1    14    13    1
     2    14    15    1
     3    14    16    1
     4    13     6    1
     5     6     5   ar
     6     6     7   ar
     7     1     5    2
     8     1     2    1
     9    11     7    2
    10     5     4   ar
    11     7     8   ar
    12     2     3    1
    13     4     3    2
    14     4     9   ar
    15     8     9   ar
    16     8    12    1
    17     9    10    2
