@<TRIPOS>MOLECULE
1zky_689_A_1.pdb
 21 23 0 0 0
SMALL
GASTEIGER

@<TRIPOS>ATOM
      1  CAN      -26.0470    4.0070   -3.4670 C.3   700  689700      0.0006
      2  CAK      -25.9500    3.7330   -4.9630 C.3   700  689700      0.0115
      3  CAJ      -24.5310    3.3860   -5.4420 C.3   700  689700      0.0496
      4  CAO      -24.7690    2.5870   -6.6580 C.2   700  689700     -0.0458
      5  CAR      -24.0250    1.2960   -6.8980 C.3   700  689700      0.0261
      6  CAQ      -25.6340    3.1660   -7.5610 C.2   700  689700     -0.0347
      7  CAP      -26.3610    4.4990   -7.2660 C.3   700  689700      0.0262
      8  CAS      -27.7940    4.3370   -7.6850 C.3   700  689700      0.0048
      9  CAL      -26.3770    4.9160   -5.8000 C.3   700  689700      0.0621
     10  CAT      -27.7620    5.4200   -5.4320 C.3   700  689700      0.1847
     11  OAU      -27.7170    6.2800   -4.3080 O.3   700  689700     -0.2203
     12  CAM      -25.4120    6.0800   -5.5940 C.3   700  689700      0.1452
     13  OAH      -24.0830    5.7310   -5.2640 O.3   700  689700     -0.3514
     14  CAI      -23.8110    4.6270   -6.0400 C.3   700  689700      0.1410
     15  CAD      -22.3590    4.3690   -6.4810 C.ar  700  689700      0.0050
     16  CAC      -22.0420    4.2720   -7.8330 C.ar  700  689700      0.0013
     17  CAB      -20.7420    4.0300   -8.2250 C.ar  700  689700      0.0418
     18  CAA      -19.7490    3.8700   -7.2730 C.ar  700  689700      0.1957
     19  OAG      -18.4820    3.6280   -7.6360 O.3   700  689700     -0.2866
     20  CAF      -20.0620    3.9720   -5.9330 C.ar  700  689700      0.0418
     21  CAE      -21.3570    4.2110   -5.5410 C.ar  700  689700      0.0013
@<TRIPOS>BOND
     1    17    16   ar
     2    17    18   ar
     3    16    15   ar
     4     8     7    1
     5    19    18    1
     6     6     7    1
     7     6     4    2
     8    18    20   ar
     9     7     9    1
    10     5     4    1
    11     4     3    1
    12    15    14    1
    13    15    21   ar
    14    14     3    1
    15    14    13    1
    16    20    21   ar
    17     9    12    1
    18     9    10    1
    19     9     2    1
    20    12    13    1
    21     3     2    1
    22    10    11    1
    23     2     1    1
