@<TRIPOS>MOLECULE
1zl1_III_C_1.pdb
 38 42 0 0 0
SMALL
GASTEIGER

@<TRIPOS>ATOM
      1  N          4.1410   -8.6500   36.6230 N.3     1  TRP1       -0.1227
      2  CA         4.3960   -9.3520   35.3430 C.3     1  TRP1        0.1734
      3  C          5.9350   -9.3210   34.9050 C.2     1  TRP1        0.2595
      4  O          6.5110   -8.2320   34.7910 O.2     1  TRP1       -0.2718
      5  CB         3.5790   -8.6970   34.1870 C.3     1  TRP1        0.0527
      6  CG         2.0400   -8.3890   34.0850 C.2     1  TRP1       -0.0139
      7  CD1        1.4640   -7.9790   32.9160 C.2     1  TRP1        0.0907
      8  CD2        0.9550   -8.3920   35.0600 C.3     1  TRP1        0.0819
      9  NE1        0.1220   -7.7420   33.0680 N.2     1  TRP1       -0.2482
     10  CE2       -0.2300   -7.9900   34.3670 C.2     1  TRP1        0.0665
     11  CE3        0.8370   -8.7020   36.4250 C.2     1  TRP1       -0.0164
     12  CZ2       -1.4890   -7.9060   34.9740 C.2     1  TRP1        0.0153
     13  CZ3       -0.4270   -8.5960   37.0320 C.2     1  TRP1       -0.0038
     14  CH2       -1.5660   -8.2040   36.3000 C.2     1  TRP1        0.0009
     15  N          6.5760  -10.5040   34.7180 N.am    2  HIS2       -0.1962
     16  CA         7.9780  -10.7640   34.2060 C.3     2  HIS2        0.1784
     17  C          7.9960  -12.2650   33.8290 C.2     2  HIS2        0.2620
     18  O          7.0480  -12.9940   34.1690 O.2     2  HIS2       -0.2715
     19  CB         9.0400  -10.4130   35.3020 C.3     2  HIS2        0.0745
     20  CG        10.5200  -10.6910   35.0110 C.2     2  HIS2        0.0653
     21  ND1       11.4070  -10.8810   36.0530 N.2     2  HIS2       -0.2310
     22  CD2       11.2800  -10.7240   33.8810 C.3     2  HIS2        0.1683
     23  CE1       12.6310  -11.0590   35.5810 C.2     2  HIS2        0.1939
     24  NE2       12.5830  -10.9650   34.2660 N.2     2  HIS2       -0.2440
     25  N          9.0430  -12.7370   33.1370 N.am    3  TRP3       -0.1974
     26  CA         9.1430  -14.1720   32.7580 C.3     3  TRP3        0.1637
     27  C         10.3740  -14.8360   33.3790 C.2     3  TRP3        0.2290
     28  O         10.6930  -15.9920   33.0730 O.2     3  TRP3       -0.2864
     29  CB         9.1890  -14.3440   31.2310 C.3     3  TRP3        0.0539
     30  CG        10.1610  -13.3890   30.5850 C.2     3  TRP3       -0.0137
     31  CD1        9.9640  -12.0600   30.3970 C.2     3  TRP3        0.0907
     32  CD2       11.4780  -13.6750   30.0750 C.3     3  TRP3        0.0819
     33  NE1       11.0560  -11.4900   29.7960 N.2     3  TRP3       -0.2482
     34  CE2       12.0000  -12.4540   29.5810 C.2     3  TRP3        0.0665
     35  CE3       12.2780  -14.8380   29.9750 C.2     3  TRP3       -0.0164
     36  CZ2       13.2690  -12.3560   28.9930 C.2     3  TRP3        0.0153
     37  CZ3       13.5480  -14.7370   29.3910 C.2     3  TRP3       -0.0038
     38  CH2       14.0270  -13.5070   28.9060 C.2     3  TRP3        0.0009
@<TRIPOS>BOND
     1    38    36    2
     2    38    37    1
     3    36    34    1
     4    37    35    2
     5    34    33    2
     6    34    32    1
     7    33    31    1
     8    35    32    1
     9    32    30    1
    10    31    30    2
    11    30    29    1
    12    29    26    1
    13    26    25    1
    14    26    27    1
    15     7     9    1
    16     7     6    2
    17     9    10    2
    18    28    27    2
    19    25    17   am
    20    17    18    2
    21    17    16    1
    22    22    24    1
    23    22    20    1
    24     6     5    1
    25     6     8    1
    26     5     2    1
    27    16    15    1
    28    16    19    1
    29    24    23    2
    30    10    12    1
    31    10     8    1
    32    15     3   am
    33     4     3    2
    34     3     2    1
    35    12    14    2
    36    20    19    1
    37    20    21    2
    38     8    11    1
    39     2     1    1
    40    23    21    1
    41    14    13    1
    42    11    13    2
