@<TRIPOS>MOLECULE
1zl2_ANU_B_1.pdb
 16 18 0 0 0
SMALL
GASTEIGER

@<TRIPOS>ATOM
      1  O3'        8.0310   -0.9310   93.2300 O.3   7016  ANU7016    -0.2164
      2  C3'        9.2080   -1.0100   92.4220 C.3   7016  ANU7016     0.2255
      3  C2'        9.7110    0.3980   92.0920 C.3   7016  ANU7016     0.2492
      4  O2        10.5010    0.3270   90.8960 O.2   7016  ANU7016    -0.4366
      5  C2        11.7540    0.7870   91.1640 C.2   7016  ANU7016     0.3591
      6  N3        12.8350    0.9970   90.3000 N.2   7016  ANU7016    -0.2807
      7  C4        14.0860    1.3820   90.7990 C.1   7016  ANU7016     0.2105
      8  O4        15.0350    1.5100   90.0210 O.2   7016  ANU7016    -0.2091
      9  C5        14.2690    1.5730   92.1610 C.2   7016  ANU7016     0.1230
     10  C6        13.1970    1.3730   93.0290 C.2   7016  ANU7016     0.0859
     11  N1        11.9440    0.9820   92.5410 N.pl3 7016  ANU7016    -0.2037
     12  C1'       10.6560    0.7440   93.2290 C.3   7016  ANU7016     0.2442
     13  O4'       10.7260   -0.4170   94.0760 O.3   7016  ANU7016    -0.3314
     14  C4'       10.3420   -1.5580   93.2880 C.3   7016  ANU7016     0.1840
     15  C5'       11.5180   -2.0420   92.4320 C.3   7016  ANU7016     0.2142
     16  O5'       12.5670   -2.4990   93.2880 O.3   7016  ANU7016    -0.2176
@<TRIPOS>BOND
     1     8     7    2
     2     6     7    2
     3     6     5    2
     4     7     9    1
     5     4     5    1
     6     4     3    1
     7     5    11    1
     8     3     2    1
     9     3    12    1
    10     9    10    2
    11     2     1    1
    12     2    14    1
    13    15    14    1
    14    15    16    1
    15    11    10    1
    16    11    12    1
    17    12    13    1
    18    14    13    1
