@<TRIPOS>MOLECULE
1zl9_GSH_A_1.pdb
 20 19 0 0 0
SMALL
GASTEIGER

@<TRIPOS>ATOM
      1  N1         9.8210   13.3520   17.1240 N.3   501  GSH501     -0.1208
      2  CA1        9.5140   13.0570   15.7650 C.3   501  GSH501      0.1948
      3  C1        10.5340   13.5460   14.8190 C.2   501  GSH501      0.3819
      4  O11       10.9950   12.8190   13.7940 O.co2 501  GSH501     -0.2441
      5  O12       10.8970   14.7770   14.9430 O.co2 501  GSH501     -0.2441
      6  CB1        8.1330   12.7350   15.2880 C.3   501  GSH501      0.0402
      7  CG1        8.0310   11.7940   14.0770 C.3   501  GSH501      0.0889
      8  CD1        6.5960   11.7520   13.5900 C.2   501  GSH501      0.2418
      9  OE1        5.6450   12.2730   14.4080 O.2   501  GSH501     -0.2733
     10  N2         6.2820   11.1760   12.4280 N.am  501  GSH501     -0.1968
     11  CA2        4.9660   11.2580   11.8670 C.3   501  GSH501      0.1843
     12  C2         4.5890    9.8700   11.4400 C.2   501  GSH501      0.2627
     13  O2         5.6000    9.1350   10.8810 O.2   501  GSH501     -0.2714
     14  CB2        5.1360   12.2250   10.7010 C.3   501  GSH501      0.0997
     15  SG2        3.5680   12.3830    9.8240 S.3   501  GSH501     -0.0797
     16  N3         3.3640    9.4090   11.5270 N.am  501  GSH501     -0.1917
     17  CA3        2.8970    8.1470   10.9500 C.3   501  GSH501      0.2285
     18  C3         2.7540    7.0900   12.0160 C.2   501  GSH501      0.3865
     19  O31        3.0730    7.4220   13.3390 O.co2 501  GSH501     -0.2437
     20  O32        2.3830    5.8560   11.7580 O.co2 501  GSH501     -0.2437
@<TRIPOS>BOND
     1    15    14    1
     2    14    11    1
     3    13    12    2
     4    17    16    1
     5    17    18    1
     6    12    16   am
     7    12    11    1
     8    20    18   ar
     9    11    10    1
    10    18    19   ar
    11    10     8   am
    12     8     7    1
    13     8     9    2
    14     4     3   ar
    15     7     6    1
    16     3     5   ar
    17     3     2    1
    18     6     2    1
    19     2     1    1
