@<TRIPOS>MOLECULE
1zlq_EDT_A_1.pdb
 20 19 0 0 0
SMALL
GASTEIGER

@<TRIPOS>ATOM
      1  O20       -0.9770   -5.1640  -35.4940 O.co2 1513  EDT1513    -0.2441
      2  C5        -0.8990   -6.3850  -35.1670 C.2   1513  EDT1513     0.3809
      3  O19       -0.1220   -7.2090  -35.7080 O.co2 1513  EDT1513    -0.2441
      4  C4        -1.7640   -6.9100  -34.0410 C.3   1513  EDT1513     0.1882
      5  N3        -1.9780   -5.8560  -33.0320 N.3   1513  EDT1513    -0.2524
      6  C2        -0.7350   -5.5680  -32.2740 C.3   1513  EDT1513     0.1882
      7  C1        -0.1040   -6.7300  -31.5300 C.2   1513  EDT1513     0.3809
      8  O18        0.6690   -6.4420  -30.5910 O.co2 1513  EDT1513    -0.2441
      9  O17       -0.3510   -7.9120  -31.8650 O.co2 1513  EDT1513    -0.2441
     10  C6        -3.0920   -6.2330  -32.1430 C.3   1513  EDT1513     0.0905
     11  C7        -4.0630   -5.0930  -31.8120 C.3   1513  EDT1513     0.0905
     12  N8        -4.3530   -4.1550  -32.9060 N.3   1513  EDT1513    -0.2524
     13  C9        -4.7520   -2.8590  -32.3240 C.3   1513  EDT1513     0.1882
     14  C10       -4.2850   -1.7280  -33.2010 C.2   1513  EDT1513     0.3809
     15  O16       -4.6870   -0.5650  -32.9710 O.co2 1513  EDT1513    -0.2441
     16  O15       -3.5120   -1.9950  -34.1490 O.co2 1513  EDT1513    -0.2441
     17  C11       -5.4790   -4.6970  -33.6920 C.3   1513  EDT1513     0.1882
     18  C12       -5.0620   -5.2790  -35.0410 C.2   1513  EDT1513     0.3809
     19  O13       -3.9340   -5.0370  -35.5190 O.co2 1513  EDT1513    -0.2441
     20  O14       -5.8920   -5.9720  -35.6540 O.co2 1513  EDT1513    -0.2441
@<TRIPOS>BOND
     1     3     2   ar
     2    20    18   ar
     3    19    18   ar
     4     1     2   ar
     5     2     4    1
     6    18    17    1
     7    16    14   ar
     8     4     5    1
     9    17    12    1
    10    14    15   ar
    11    14    13    1
    12     5     6    1
    13     5    10    1
    14    12    13    1
    15    12    11    1
    16     6     7    1
    17    10    11    1
    18     9     7   ar
    19     7     8   ar
