@<TRIPOS>MOLECULE
1zlr_368_A_1.pdb
 28 30 0 0 0
SMALL
GASTEIGER

@<TRIPOS>ATOM
      1  C01        8.9110   72.0300   84.7700 C.ar  901  368901      0.0000
      2  C02        9.9000   71.3000   84.0300 C.ar  901  368901      0.0000
      3  C03        9.8690   71.2600   82.6100 C.ar  901  368901      0.0000
      4  C04        8.8550   71.9440   81.8780 C.ar  901  368901      0.0000
      5  C05        7.8630   72.6850   82.6160 C.ar  901  368901      0.0000
      6  C06        7.8930   72.7250   84.0400 C.ar  901  368901      0.0000
      7  B07        8.9720   72.0490   86.2920 B     901  368901      0.0000
      8  O08        8.7460   70.7360   86.8280 O.3   901  368901      0.0000
      9  C09        7.8060   70.8410   87.8860 C.3   901  368901      0.0000
     10  C10        6.9970   72.0870   87.5050 C.3   901  368901      0.0000
     11  O11        7.9770   72.9040   86.8960 O.3   901  368901      0.0000
     12  C12        8.8710   71.8480   80.3490 C.3   901  368901      0.0000
     13  C13        9.9680   72.6570   79.6450 C.3   901  368901      0.0000
     14  NP4       11.1980   71.8520   79.6270 N.pl3 901  368901      0.3300
     15  C15       12.1490   71.8520   78.6880 C.cat 901  368901      0.0000
     16  NP6       13.4400   71.8000   79.0320 N.pl3 901  368901      0.3300
     17  NP7       11.7990   71.8980   77.3970 N.pl3 901  368901      0.3300
     18  O18        7.5450   72.1680   79.8070 O.3   901  368901      0.0000
     19  C19        6.5460   71.2310   79.8030 C.2   901  368901      0.0000
     20  O20        6.6620   70.1000   80.2340 O.2   901  368901      0.0000
     21  C21        5.2850   71.7870   79.1990 C.ar  901  368901      0.0000
     22  C22        5.1400   73.1700   78.7960 C.ar  901  368901      0.0000
     23  C23        3.9110   73.6260   78.2270 C.ar  901  368901      0.0000
     24  C24        2.8620   72.6950   78.0760 C.ar  901  368901      0.0000
     25  NP5        2.9820   71.3870   78.4530 N.ar  901  368901      0.0000
     26  C26        4.1580   70.9500   78.9970 C.ar  901  368901      0.0000
     27  C27        6.4000   72.7510   88.7520 C.3   901  368901      0.0000
     28  O28        6.0920   74.0950   88.4810 O.3   901  368901      0.0000
@<TRIPOS>BOND
     1    17    15    1
     2    24    23   ar
     3    24    25   ar
     4    23    22   ar
     5    25    26   ar
     6    15    16    1
     7    15    14    2
     8    22    21   ar
     9    26    21   ar
    10    21    19    1
    11    14    13    1
    12    13    12    1
    13    19    18    1
    14    19    20    2
    15    18    12    1
    16    12     4    1
    17     4     3   ar
    18     4     5   ar
    19     3     2   ar
    20     5     6   ar
    21     2     1   ar
    22     6     1   ar
    23     1     7    1
    24     7     8    1
    25     7    11    1
    26     8     9    1
    27    11    10    1
    28    10     9    1
    29    10    27    1
    30    28    27    1
