@<TRIPOS>MOLECULE
1zls_MAN_H_1.pdb
 11 11 0 0 0
SMALL
GASTEIGER

@<TRIPOS>ATOM
      1  C1        -3.9820  -11.3140   15.9500 C.3   229  MAN229      0.1777
      2  C2        -4.8690  -12.5440   15.9280 C.3   229  MAN229      0.2141
      3  C3        -4.8420  -13.2040   14.5470 C.3   229  MAN229      0.2173
      4  C4        -5.1890  -12.2270   13.4450 C.3   229  MAN229      0.2142
      5  C5        -4.3240  -10.9700   13.5970 C.3   229  MAN229      0.1810
      6  C6        -4.7040   -9.9050   12.5830 C.3   229  MAN229      0.2141
      7  O2        -6.1820  -12.1430   16.1790 O.3   229  MAN229     -0.2176
      8  O3        -5.6840  -14.3350   14.5600 O.3   229  MAN229     -0.2175
      9  O4        -4.9300  -12.8150   12.1470 O.3   229  MAN229     -0.2176
     10  O5        -4.3260  -10.4070   14.9360 O.3   229  MAN229     -0.3481
     11  O6        -5.9450   -9.2740   12.8720 O.3   229  MAN229     -0.2176
@<TRIPOS>BOND
     1     9     4    1
     2     6    11    1
     3     6     5    1
     4     4     5    1
     5     4     3    1
     6     5    10    1
     7     3     8    1
     8     3     2    1
     9    10     1    1
    10     2     1    1
    11     2     7    1
