@<TRIPOS>MOLECULE
1zlt_HYM_A_1.pdb
 20 22 0 0 0
SMALL
GASTEIGER

@<TRIPOS>ATOM
      1  CAI       12.9950   -0.9880   10.2990 C.3   400  HYM400      0.0396
      2  CAH       13.2860    0.5090   10.4170 C.3   400  HYM400      0.1387
      3  NAG       14.4100    0.9320    9.5660 N.2   400  HYM400     -0.2004
      4  CAF       15.6040    0.3660    9.3840 C.1   400  HYM400      0.1802
      5  OAK       16.4390    0.8830    8.6430 O.2   400  HYM400     -0.2196
      6  CAD       16.0090   -0.9280   10.1000 C.2   400  HYM400      0.2114
      7  NAC       17.2620   -1.3820   10.0490 N.2   400  HYM400     -0.3782
      8  CAA       17.4510   -2.5380   10.6790 C.2   400  HYM400      0.1999
      9 CLA        18.9970   -3.3880   10.9160 Cl    400  HYM400     -0.0471
     10  CAB       16.2000   -2.8790   11.1740 C.2   400  HYM400      0.0978
     11 CLB        15.8500   -4.4710   11.8900 Cl    400  HYM400     -0.0789
     12  CAE       15.3020   -1.8710   10.8440 C.2   400  HYM400      0.0399
     13  CAJ       13.9570   -1.7670   11.1970 C.3   400  HYM400      0.0944
     14  CAL       13.4690   -2.3090   12.3870 C.2   400  HYM400      0.2204
     15  NAP       14.2840   -2.8490   13.2900 N.2   400  HYM400     -0.3165
     16  CAM       12.1730   -2.3510   12.8990 C.1   400  HYM400      0.2428
     17  OAR       11.1430   -1.9190   12.3820 O.2   400  HYM400     -0.2062
     18  NAN       12.2580   -2.9210   14.0980 N.2   400  HYM400     -0.2479
     19  CAO       13.5340   -3.2140   14.3260 C.1   400  HYM400      0.2523
     20  NAQ       13.9810   -3.7870   15.4400 N.pl3 400  HYM400     -0.0226
@<TRIPOS>BOND
     1     5     4    2
     2     4     3    2
     3     4     6    1
     4     3     2    1
     5     7     6    2
     6     7     8    2
     7     6    12    1
     8     1     2    1
     9     1    13    1
    10     8     9    1
    11     8    10    1
    12    12    10    2
    13    12    13    1
    14    10    11    1
    15    13    14    1
    16    17    16    2
    17    14    16    1
    18    14    15    2
    19    16    18    2
    20    15    19    2
    21    18    19    2
    22    19    20    1
