@<TRIPOS>MOLECULE
1zlu_MAN_H_1.pdb
 11 11 0 0 0
SMALL
GASTEIGER

@<TRIPOS>ATOM
      1  C1        13.0590  -10.8650  -58.7330 C.3   229  MAN229      0.1777
      2  C2        11.8520   -9.9680  -58.7140 C.3   229  MAN229      0.2141
      3  C3        12.0390   -8.8030  -59.6540 C.3   229  MAN229      0.2173
      4  C4        13.4100   -8.1670  -59.5790 C.3   229  MAN229      0.2142
      5  C5        14.4530   -9.2470  -59.6630 C.3   229  MAN229      0.1810
      6  C6        15.8700   -8.6750  -59.6330 C.3   229  MAN229      0.2141
      7  O2        11.7190   -9.3490  -57.4780 O.3   229  MAN229     -0.2176
      8  O3        11.1170   -7.8010  -59.3230 O.3   229  MAN229     -0.2175
      9  O4        13.5360   -7.2730  -60.6630 O.3   229  MAN229     -0.2176
     10  O5        14.2070  -10.0690  -58.5420 O.3   229  MAN229     -0.3481
     11  O6        16.4260   -8.6600  -58.3350 O.3   229  MAN229     -0.2176
@<TRIPOS>BOND
     1     9     4    1
     2     5     6    1
     3     5     4    1
     4     5    10    1
     5     3     4    1
     6     3     8    1
     7     3     2    1
     8     6    11    1
     9     1     2    1
    10     1    10    1
    11     2     7    1
