@<TRIPOS>MOLECULE
1zlv_MAN_H_1.pdb
 11 11 0 0 0
SMALL
GASTEIGER

@<TRIPOS>ATOM
      1  C1        13.0190  -10.5560  -58.6150 C.3   229  MAN229      0.1777
      2  C2        11.9200   -9.5340  -58.4700 C.3   229  MAN229      0.2141
      3  C3        12.0770   -8.5150  -59.6060 C.3   229  MAN229      0.2173
      4  C4        13.5030   -7.9260  -59.7150 C.3   229  MAN229      0.2142
      5  C5        14.5140   -9.0550  -59.8120 C.3   229  MAN229      0.1810
      6  C6        15.9320   -8.5400  -59.6760 C.3   229  MAN229      0.2141
      7  O2        12.1600   -8.9790  -57.2020 O.3   229  MAN229     -0.2176
      8  O3        11.0880   -7.5360  -59.4790 O.3   229  MAN229     -0.2175
      9  O4        13.6270   -7.0860  -60.8370 O.3   229  MAN229     -0.2176
     10  O5        14.3100   -9.9590  -58.7460 O.3   229  MAN229     -0.3481
     11  O6        16.3790   -8.6200  -58.3240 O.3   229  MAN229     -0.2176
@<TRIPOS>BOND
     1     9     4    1
     2     5     4    1
     3     5     6    1
     4     5    10    1
     5     4     3    1
     6     6    11    1
     7     3     8    1
     8     3     2    1
     9    10     1    1
    10     1     2    1
    11     2     7    1
