@<TRIPOS>MOLECULE
1zlw_MAN_M_1.pdb
 11 11 0 0 0
SMALL
GASTEIGER

@<TRIPOS>ATOM
      1  C1        -7.9890  -38.3920  -10.7110 C.3   231  MAN231      0.1777
      2  C2        -9.3090  -37.6210  -10.6920 C.3   231  MAN231      0.2141
      3  C3       -10.3780  -38.6100  -11.0700 C.3   231  MAN231      0.2173
      4  C4       -10.0160  -39.2110  -12.4240 C.3   231  MAN231      0.2142
      5  C5        -8.6400  -39.8440  -12.3230 C.3   231  MAN231      0.1810
      6  C6        -8.0350  -40.5890  -13.5280 C.3   231  MAN231      0.2141
      7  O2        -9.2950  -36.6440  -11.7300 O.3   231  MAN231     -0.2176
      8  O3       -11.6070  -37.9270  -11.0930 O.3   231  MAN231     -0.2175
      9  O4       -10.9200  -40.2330  -12.6160 O.3   231  MAN231     -0.2176
     10  O5        -7.7710  -38.7840  -12.0330 O.3   231  MAN231     -0.3481
     11  O6        -8.8220  -40.3380  -14.6510 O.3   231  MAN231     -0.2176
@<TRIPOS>BOND
     1    11     6    1
     2     6     5    1
     3     9     4    1
     4     4     5    1
     5     4     3    1
     6     5    10    1
     7    10     1    1
     8     7     2    1
     9     8     3    1
    10     3     2    1
    11     1     2    1
