@<TRIPOS>MOLECULE
1zly_GRF_A_1.pdb
 14 14 0 0 0
SMALL
GASTEIGER

@<TRIPOS>ATOM
      1  C1        40.6320   27.1870   31.5450 C.3   1300  GRF1300     0.2156
      2  O6        41.6440   26.8600   30.6200 O.3   1300  GRF1300    -0.2176
      3  C2        40.9630   28.4240   32.4180 C.3   1300  GRF1300     0.2298
      4  O8        41.6970   29.3620   31.7030 O.3   1300  GRF1300    -0.2160
      5  C3        39.5710   28.9090   32.9120 C.3   1300  GRF1300     0.2397
      6  O4        38.6500   28.3160   32.0090 O.3   1300  GRF1300    -0.3336
      7  C5        39.2860   27.4890   30.9620 C.3   1300  GRF1300     0.1799
      8  C10       38.4430   26.3050   30.6270 C.3   1300  GRF1300     0.1859
      9  O12       38.5760   25.2800   31.6190 O.3   1300  GRF1300    -0.2675
     10  N19       39.1690   28.4910   34.2960 N.3   1300  GRF1300    -0.0972
     11  P15       37.8620   23.8750   31.6450 P.3   1300  GRF1300     0.5327
     12  O16       38.4720   23.0320   32.6580 O.3   1300  GRF1300    -0.1145
     13  O17       37.8860   23.2350   30.3340 O.2   1300  GRF1300    -0.2224
     14  O18       36.3910   24.2370   32.1990 O.3   1300  GRF1300    -0.1145
@<TRIPOS>BOND
     1    13    11    2
     2     2     1    1
     3     8     7    1
     4     8     9    1
     5     7     1    1
     6     7     6    1
     7     1     3    1
     8     9    11    1
     9    11    14    1
    10    11    12    1
    11     4     3    1
    12     6     5    1
    13     3     5    1
    14     5    10    1
