@<TRIPOS>MOLECULE
1zly_DQB_A_1.pdb
 29 31 0 0 0
SMALL
GASTEIGER

@<TRIPOS>ATOM
      1  C11       36.4000   35.3980   34.9280 C.ar  1301  DQB1301     0.0657
      2  C12       35.2790   34.8100   34.1600 C.ar  1301  DQB1301     0.0162
      3  C13       34.5090   35.6270   33.2400 C.ar  1301  DQB1301     0.0059
      4  C14       34.8260   37.0590   33.0530 C.ar  1301  DQB1301     0.0551
      5  C15       35.9420   37.6280   33.8220 C.ar  1301  DQB1301     0.0059
      6  C16       36.7090   36.8110   34.7410 C.ar  1301  DQB1301     0.0162
      7  C         34.0460   37.8990   32.1130 C.2   1301  DQB1301     0.2648
      8  O         34.3330   39.1190   31.9630 O.2   1301  DQB1301    -0.2684
      9  N         33.0230   37.2790   31.4410 N.am  1301  DQB1301    -0.2017
     10  CA        32.2090   37.7770   30.3150 C.3   1301  DQB1301     0.1160
     11  CB        31.1990   38.8480   30.7730 C.3   1301  DQB1301     0.0352
     12  CG        30.2000   38.4200   31.8610 C.3   1301  DQB1301     0.1159
     13  CD        30.3530   39.1910   33.1730 C.2   1301  DQB1301     0.3649
     14  OE1       30.4910   38.5430   34.2290 O.co2 1301  DQB1301    -0.2457
     15  OE2       30.3270   40.4520   33.1530 O.co2 1301  DQB1301    -0.2457
     16  N10       37.2210   34.7220   35.8460 N.pl3 1301  DQB1301    -0.2328
     17  N1        34.2870   37.5560   40.6950 N.2   1301  DQB1301    -0.3283
     18  C2        35.1120   38.4030   41.4220 C.1   1301  DQB1301     0.2512
     19  N3        36.5310   38.3870   41.2740 N.2   1301  DQB1301    -0.2537
     20  C4        37.2830   37.5120   40.3720 C.1   1301  DQB1301     0.2018
     21  C5        36.9780   35.6510   38.6220 C.2   1301  DQB1301    -0.0043
     22  C6        36.0520   34.7800   37.8760 C.2   1301  DQB1301    -0.0034
     23  C7        34.6100   34.8870   38.1190 C.2   1301  DQB1301    -0.0005
     24  C8        34.0710   35.8300   39.0750 C.2   1301  DQB1301     0.0298
     25  C4A       36.4310   36.6040   39.5870 C.3   1301  DQB1301     0.1935
     26  C8A       34.9670   36.6930   39.8120 C.2   1301  DQB1301     0.1431
     27  OA4       38.5170   37.6070   40.3480 O.2   1301  DQB1301    -0.2127
     28  NA2       34.6070   39.2720   42.2920 N.pl3 1301  DQB1301    -0.0226
     29  C9        36.5170   33.8910   36.9690 C.3   1301  DQB1301     0.1382
@<TRIPOS>BOND
     1    10    11    1
     2    10     9    1
     3    11    12    1
     4     9     7   am
     5    12    13    1
     6     8     7    2
     7     7     4    1
     8     4     3   ar
     9     4     5   ar
    10    15    13   ar
    11    13    14   ar
    12     3     2   ar
    13     5     6   ar
    14     2     1   ar
    15     6     1   ar
    16     1    16    1
    17    16    29    1
    18    29    22    1
    19    22    23    1
    20    22    21    2
    21    23    24    2
    22    21    25    1
    23    24    26    1
    24    25    26    1
    25    25    20    1
    26    26    17    2
    27    27    20    2
    28    20    19    2
    29    17    18    2
    30    19    18    2
    31    18    28    1
