@<TRIPOS>MOLECULE
1zm1_BGC_A_1.pdb
 11 11 0 0 0
SMALL
GASTEIGER

@<TRIPOS>ATOM
      1  C2         8.6310   24.1740   50.1060 C.3   300  BGC300      0.2141
      2  C3         9.8570   25.0850   50.0470 C.3   300  BGC300      0.2173
      3  C4        10.4780   25.2090   51.4400 C.3   300  BGC300      0.2142
      4  C5        10.7850   23.8170   51.9890 C.3   300  BGC300      0.1810
      5  C6        11.3280   23.8620   53.4040 C.3   300  BGC300      0.2141
      6  C1         9.0280   22.8180   50.7060 C.3   300  BGC300      0.1777
      7  O2         8.1000   23.9930   48.7980 O.3   300  BGC300     -0.2176
      8  O3         9.4780   26.3680   49.5630 O.3   300  BGC300     -0.2175
      9  O4        11.6760   25.9720   51.3730 O.3   300  BGC300     -0.2176
     10  O5         9.5870   23.0110   52.0130 O.3   300  BGC300     -0.3481
     11  O6        11.2710   22.5770   54.0060 O.3   300  BGC300     -0.2176
@<TRIPOS>BOND
     1     7     1    1
     2     8     2    1
     3     2     1    1
     4     2     3    1
     5     1     6    1
     6     6    10    1
     7     9     3    1
     8     3     4    1
     9     4    10    1
    10     4     5    1
    11     5    11    1
