@<TRIPOS>MOLECULE
1zm2_APR_E_1.pdb
 35 38 0 0 0
SMALL
GASTEIGER

@<TRIPOS>ATOM
      1  N1       -50.9930  -44.9470   94.6060 N.2   843  APR843      0.0021
      2  C2       -51.3970  -44.9330   95.9590 C.3   843  APR843      0.5254
      3  N3       -51.6000  -43.9300   96.7810 N.2   843  APR843     -0.0055
      4  C4       -51.3510  -42.7150   96.1680 C.2   843  APR843      0.3518
      5  C5       -50.9260  -42.5500   94.8050 C.2   843  APR843      0.2526
      6  C6       -50.7300  -43.7400   93.9920 C.2   843  APR843      0.4393
      7  N6       -50.3500  -43.7250   92.7220 N.pl3 843  APR843      0.2180
      8  N7       -50.7560  -41.2100   94.5100 N.2   843  APR843     -0.2095
      9  C8       -51.0920  -40.5420   95.6440 C.3   843  APR843      0.3377
     10  N9       -51.4700  -41.3970   96.6850 N.pl3 843  APR843     -0.1439
     11  C1'      -51.9250  -41.0670   98.1030 C.3   843  APR843      0.3186
     12  C2'      -53.0320  -39.9820   98.1800 C.3   843  APR843      0.2570
     13  O2'      -52.4840  -38.5970   98.2030 O.3   843  APR843     -0.2130
     14  C3'      -53.8170  -40.3130   99.4820 C.3   843  APR843      0.2184
     15  O3'      -53.6240  -39.4150  100.5880 O.3   843  APR843     -0.2174
     16  O4'      -52.3800  -42.1970   98.8220 O.3   843  APR843     -0.3135
     17  C4'      -53.4330  -41.8450   99.7370 C.3   843  APR843      0.1821
     18  C5'      -54.5060  -42.8360   99.5290 C.3   843  APR843      0.1813
     19  O5'      -54.9310  -43.1790  100.8030 O.3   843  APR843     -0.3112
     20  PA       -55.4650  -44.6320  101.0190 P.3   843  APR843      0.2189
     21  O1A      -55.8650  -44.7500  102.5050 O.3   843  APR843     -0.4371
     22  O2A      -54.3520  -45.6020  100.5260 O.2   843  APR843     -0.5170
     23  O3A      -56.7990  -44.5990  100.0870 O.3   843  APR843     -0.2703
     24  PB       -58.1650  -45.5280  100.5650 P.3   843  APR843      0.2189
     25  O1B      -57.9300  -46.7950  101.3680 O.2   843  APR843     -0.5170
     26  O2B      -59.0740  -44.6560  101.4200 O.3   843  APR843     -0.4371
     27  O5D      -58.8930  -45.7810   99.2440 O.3   843  APR843     -0.3112
     28  C5D      -59.7070  -44.8620   98.5970 C.3   843  APR843      0.1812
     29  O4D      -59.6230  -45.8440   96.5060 O.3   843  APR843     -0.3482
     30  C1D      -59.5690  -47.2580   96.0710 C.3   843  APR843      0.1777
     31  O2D      -61.2770  -48.9310   96.8900 O.3   843  APR843     -0.2176
     32  C2D      -60.2790  -47.9430   97.2430 C.3   843  APR843      0.2140
     33  O3D      -62.5370  -46.9610   97.6390 O.3   843  APR843     -0.2176
     34  C3D      -61.1260  -46.8770   97.9520 C.3   843  APR843      0.2140
     35  C4D      -60.5610  -45.5480   97.6070 C.3   843  APR843      0.1780
@<TRIPOS>BOND
     1     7     6    1
     2     6     1    2
     3     6     5    1
     4     8     5    2
     5     8     9    1
     6     1     2    1
     7     5     4    1
     8     9    10    1
     9     2     3    1
    10    30    29    1
    11    30    32    1
    12     4    10    1
    13     4     3    2
    14    29    35    1
    15    10    11    1
    16    31    32    1
    17    32    34    1
    18    35    34    1
    19    35    28    1
    20    33    34    1
    21    11    12    1
    22    11    16    1
    23    12    13    1
    24    12    14    1
    25    28    27    1
    26    16    17    1
    27    27    24    1
    28    14    17    1
    29    14    15    1
    30    18    17    1
    31    18    19    1
    32    23    24    1
    33    23    20    1
    34    22    20    2
    35    24    25    2
    36    24    26    1
    37    19    20    1
    38    20    21    1
