@<TRIPOS>MOLECULE
1zm4_TAD_B_1.pdb
 43 47 0 0 0
SMALL
GASTEIGER

@<TRIPOS>ATOM
      1  PA         3.1130   -4.0770   94.4370 P.3   700  TAD700      0.3820
      2  O1A        1.6680   -4.0630   94.7650 O.2   700  TAD700     -0.2548
      3  O2A        4.0120   -3.1180   95.1150 O.3   700  TAD700     -0.1392
      4  O5B        3.2360   -3.9260   92.8450 O.3   700  TAD700     -0.2896
      5  C5B        3.6160   -2.6420   92.3650 C.3   700  TAD700      0.1836
      6  C4B        3.7630   -2.6340   90.8470 C.3   700  TAD700      0.1822
      7  O4B        4.1840   -1.2840   90.6020 O.3   700  TAD700     -0.3135
      8  C3B        4.8680   -3.5610   90.3300 C.3   700  TAD700      0.2184
      9  O3B        4.5500   -4.0920   89.0400 O.3   700  TAD700     -0.2174
     10  C2B        6.0200   -2.5830   90.1330 C.3   700  TAD700      0.2570
     11  O2B        6.8390   -3.1250   89.0940 O.3   700  TAD700     -0.2130
     12  C1B        5.1930   -1.4140   89.5960 C.3   700  TAD700      0.3186
     13  N9A        5.9300   -0.1370   89.4850 N.pl3 700  TAD700     -0.1439
     14  C8A        5.7000    0.7980   88.5640 C.3   700  TAD700      0.3377
     15  N7A        6.5410    1.8120   88.7440 N.2   700  TAD700     -0.2095
     16  C5A        7.3090    1.5270   89.7920 C.2   700  TAD700      0.2526
     17  C6A        8.3540    2.1890   90.4270 C.2   700  TAD700      0.4393
     18  N6A        8.8330    3.3240   89.9190 N.pl3 700  TAD700      0.2180
     19  N1A        8.9290    1.5900   91.4840 N.2   700  TAD700      0.0021
     20  C2A        8.5470    0.4030   91.9260 C.3   700  TAD700      0.5254
     21  N3A        7.5650   -0.2460   91.3230 N.2   700  TAD700     -0.0055
     22  C4A        6.9240    0.2800   90.2670 C.2   700  TAD700      0.3518
     23  C3         3.7290   -5.7530   94.7030 C.3   700  TAD700      0.2353
     24  PN         2.2080   -6.7220   94.6800 P.3   700  TAD700      0.3820
     25  O1N        1.4550   -6.3050   93.4740 O.2   700  TAD700     -0.2548
     26  O2N        1.5570   -6.5680   95.9980 O.3   700  TAD700     -0.1392
     27  O5D        2.7090   -8.2370   94.4760 O.3   700  TAD700     -0.2896
     28  C5D        3.2650   -9.0050   95.5440 C.3   700  TAD700      0.1835
     29  C4D        3.7520  -10.3690   95.0520 C.3   700  TAD700      0.1786
     30  O4D        4.6620  -10.2570   93.9500 O.3   700  TAD700     -0.3431
     31  C3D        4.5860  -11.0790   96.1190 C.3   700  TAD700      0.2144
     32  O3D        3.7570  -11.7820   97.0530 O.3   700  TAD700     -0.2176
     33  C2D        5.4110  -12.0640   95.2910 C.3   700  TAD700      0.2189
     34  O2D        4.8930  -13.3870   95.4630 O.3   700  TAD700     -0.2172
     35  C1D        5.1980  -11.5830   93.8520 C.3   700  TAD700      0.2057
     36  C2N        6.4680  -11.4480   93.0160 C.2   700  TAD700      0.1642
     37  N3N        6.6620  -10.5290   92.0740 N.2   700  TAD700     -0.3963
     38  C4N        7.8510  -10.6130   91.4740 C.2   700  TAD700      0.1768
     39  C5N        8.6910  -11.5640   91.8810 C.3   700  TAD700      0.1280
     40  S1N        7.8670  -12.4230   93.1010 S.3   700  TAD700     -0.0765
     41  C6N        8.2040   -9.6940   90.3050 C.2   700  TAD700      0.3106
     42  O6N        9.2560   -9.8260   89.6790 O.2   700  TAD700     -0.2642
     43  N6N        7.2710   -8.8020   89.9920 N.am  700  TAD700     -0.0817
@<TRIPOS>BOND
     1    14    15    1
     2    14    13    1
     3    15    16    2
     4     9     8    1
     5    11    10    1
     6    13    12    1
     7    13    22    1
     8    12    10    1
     9    12     7    1
    10    42    41    2
    11    16    22    1
    12    16    17    1
    13    18    17    1
    14    43    41   am
    15    10     8    1
    16    22    21    2
    17    41    38    1
    18     8     6    1
    19    17    19    2
    20     7     6    1
    21     6     5    1
    22    21    20    1
    23    38    39    1
    24    38    37    2
    25    19    20    1
    26    39    40    1
    27    37    36    2
    28     5     4    1
    29     4     1    1
    30    36    40    1
    31    36    35    1
    32    25    24    2
    33    35    30    1
    34    35    33    1
    35    30    29    1
    36     1    23    1
    37     1     2    2
    38     1     3    1
    39    27    24    1
    40    27    28    1
    41    24    23    1
    42    24    26    1
    43    29    28    1
    44    29    31    1
    45    33    34    1
    46    33    31    1
    47    31    32    1
