@<TRIPOS>MOLECULE
1zm6_III_P_1.pdb
 40 40 0 0 0
SMALL
GASTEIGER

@<TRIPOS>ATOM
      1  N         29.9450   27.4240  -11.1580 N.3     1  LEU1       -0.1231
      2  CA        29.4400   28.7610  -11.5000 C.3     1  LEU1        0.1693
      3  C         30.2690   29.8710  -10.8500 C.2     1  LEU1        0.2592
      4  O         30.6940   30.8050  -11.5210 O.2     1  LEU1       -0.2718
      5  CB        27.9570   28.9040  -11.0790 C.3     1  LEU1        0.0284
      6  CG        27.1180   30.0170  -11.7300 C.3     1  LEU1        0.0019
      7  CD1       25.8290   29.4510  -12.3000 C.3     1  LEU1        0.0001
      8  CD2       26.8390   31.1240  -10.7160 C.3     1  LEU1        0.0001
      9  N         30.5170   29.7940   -9.5110 N.am    2  ALA2       -0.1966
     10  CA        31.2770   30.9010   -8.8520 C.3     2  ALA2        0.1728
     11  C         32.0290   30.6960   -7.4810 C.2     2  ALA2        0.2616
     12  O         32.0140   29.6380   -6.8540 O.2     2  ALA2       -0.2715
     13  CB        30.3170   32.0740   -8.7060 C.3     2  ALA2        0.0334
     14  N         32.6800   31.8690   -7.1010 N.am    3  ILE3       -0.1963
     15  CA        33.6350   32.3190   -6.0350 C.3     3  ILE3        0.1727
     16  C         33.5480   32.0900   -4.5360 C.2     3  ILE3        0.2616
     17  O         32.6060   32.5150   -3.8470 O.2     3  ILE3       -0.2715
     18  CB        33.7640   33.8690   -6.1060 C.3     3  ILE3        0.0290
     19  CG1       33.8050   34.3330   -7.5480 C.3     3  ILE3        0.0022
     20  CG2       35.0140   34.3360   -5.3710 C.3     3  ILE3        0.0023
     21  CD1       32.4620   34.3030   -8.2280 C.3     3  ILE3        0.0001
     22  N         34.5980   31.3880   -4.0730 N.am    4  TYR4       -0.1960
     23  CA        34.8200   31.2340   -2.6400 C.3     4  TYR4        0.1771
     24  C         35.4930   32.5160   -2.2970 C.2     4  TYR4        0.2621
     25  O         34.9430   33.5850   -2.5240 O.2     4  TYR4       -0.2715
     26  CB        35.7150   30.0470   -2.2750 C.3     4  TYR4        0.0574
     27  CG        35.5710   29.0170   -3.3240 C.ar    4  TYR4       -0.0198
     28  CD1       35.9850   29.3430   -4.5950 C.ar    4  TYR4       -0.0009
     29  CD2       35.0010   27.7790   -3.0540 C.ar    4  TYR4       -0.0009
     30  CE1       35.8260   28.4590   -5.6230 C.ar    4  TYR4        0.0417
     31  CE2       34.8220   26.9020   -4.0980 C.ar    4  TYR4        0.0417
     32  CZ        35.2320   27.2430   -5.3770 C.ar    4  TYR4        0.1957
     33  OH        35.0340   26.3530   -6.4030 O.3     4  TYR4       -0.2866
     34  N         36.6560   32.4210   -1.7700 N.am    5  SER5       -0.1914
     35  CA        37.3280   33.6160   -1.4510 C.3     5  SER5        0.2304
     36  C         38.4330   33.9240   -2.4540 C.2     5  SER5        0.3869
     37  O         38.1760   34.3810   -3.5720 O.co2   5  SER5       -0.2437
     38  CB        37.8640   33.5050   -0.0330 C.3     5  SER5        0.2152
     39  OG        38.6670   34.6270    0.3020 O.3     5  SER5       -0.2179
     40  OXT       39.5930   33.6670   -2.1250 O.co2   5  SER5       -0.2437
@<TRIPOS>BOND
     1     7     6    1
     2     6     5    1
     3     6     8    1
     4     4     3    2
     5     2     1    1
     6     2     5    1
     7     2     3    1
     8     3     9   am
     9     9    10    1
    10    10    13    1
    11    10    11    1
    12    21    19    1
    13    19    18    1
    14    11    14   am
    15    11    12    2
    16    14    15    1
    17    33    32    1
    18    18    15    1
    19    18    20    1
    20    15    16    1
    21    30    32   ar
    22    30    28   ar
    23    32    31   ar
    24    28    27   ar
    25    16    22   am
    26    16    17    2
    27    31    29   ar
    28    22    23    1
    29    37    36   ar
    30    27    29   ar
    31    27    26    1
    32    23    24    1
    33    23    26    1
    34    25    24    2
    35    36    40   ar
    36    36    35    1
    37    24    34   am
    38    34    35    1
    39    35    38    1
    40    38    39    1
