@<TRIPOS>MOLECULE
1zm7_TTP_A_1.pdb
 29 30 0 0 0
SMALL
GASTEIGER

@<TRIPOS>ATOM
      1  PA        36.0040   18.4750   11.8320 P.3   300  TTP300      0.2189
      2  O1A       35.7320   17.3920   12.7860 O.3   300  TTP300     -0.4371
      3  O2A       34.9970   19.5550   11.7800 O.2   300  TTP300     -0.5170
      4  O3A       37.4240   19.0920   12.2170 O.3   300  TTP300     -0.2700
      5  PB        38.1170   20.3990   11.5540 P.3   300  TTP300      0.2277
      6  O1B       39.4720   20.3220   12.1240 O.3   300  TTP300     -0.4368
      7  O2B       37.9480   20.3850   10.0860 O.2   300  TTP300     -0.5168
      8  O3B       37.2980   21.6030   12.2380 O.3   300  TTP300     -0.2258
      9  PG        37.8480   23.1320   12.5070 P.3   300  TTP300      0.5373
     10  O1G       38.3450   23.6980   11.2530 O.2   300  TTP300     -0.2221
     11  O2G       36.6190   23.8010   13.0190 O.3   300  TTP300     -0.1143
     12  O3G       38.8970   23.0560   13.5290 O.3   300  TTP300     -0.1143
     13  O5'       36.1560   17.9420   10.3280 O.3   300  TTP300     -0.3112
     14  C5'       37.1600   16.9600   10.0970 C.3   300  TTP300      0.1812
     15  C4'       36.9950   16.1600    8.9440 C.3   300  TTP300      0.1773
     16  O4'       36.4270   14.8860    9.2770 O.3   300  TTP300     -0.3339
     17  C3'       36.1040   16.7280    8.0180 C.3   300  TTP300      0.1857
     18  O3'       36.6070   16.4130    6.7100 O.3   300  TTP300     -0.2203
     19  C2'       34.8360   16.1180    8.2820 C.3   300  TTP300      0.0874
     20  C1'       35.1310   14.7920    8.6860 C.3   300  TTP300      0.2090
     21  N1        34.2670   14.1780    9.5780 N.am  300  TTP300     -0.1794
     22  C2        33.4350   13.1550    9.1810 C.1   300  TTP300      0.2844
     23  O2        33.4210   12.7730    8.0130 O.2   300  TTP300     -0.1918
     24  N3        32.6120   12.5110   10.1100 N.2   300  TTP300     -0.2455
     25  C4        32.5840   12.9090   11.4420 C.1   300  TTP300      0.2134
     26  O4        31.9980   12.1910   12.2790 O.2   300  TTP300     -0.2088
     27  C5        33.4090   13.9710   11.8560 C.2   300  TTP300      0.0891
     28  C5M       33.4120   14.4550   13.3190 C.3   300  TTP300      0.0462
     29  C6        34.2430   14.5690   10.9090 C.2   300  TTP300      0.0877
@<TRIPOS>BOND
     1    18    17    1
     2    23    22    2
     3    17    19    1
     4    17    15    1
     5    19    20    1
     6    20    16    1
     7    20    21    1
     8    15    16    1
     9    15    14    1
    10    22    21   am
    11    22    24    2
    12    21    29    1
    13     7     5    2
    14    14    13    1
    15    24    25    2
    16    13     1    1
    17    29    27    2
    18    10     9    2
    19    25    27    1
    20    25    26    2
    21     5     6    1
    22     5     4    1
    23     5     8    1
    24     3     1    2
    25     1     4    1
    26     1     2    1
    27    27    28    1
    28     8     9    1
    29     9    11    1
    30     9    12    1
