@<TRIPOS>MOLECULE
1zm9_P34_B_1.pdb
 22 24 0 0 0
SMALL
GASTEIGER

@<TRIPOS>ATOM
      1  CAA        1.6840   -4.1990   93.7220 C.3   700  P34700      0.0900
      2  N          1.1620   -5.5550   93.5220 N.3   700  P34700     -0.2625
      3  CAB        0.2370   -5.9520   94.6060 C.3   700  P34700      0.0900
      4  CA         2.3320   -6.4920   93.3500 C.3   700  P34700      0.1606
      5  C          2.7700   -7.6040   94.3620 C.2   700  P34700      0.2619
      6  O          2.1550   -7.7920   95.4110 O.2   700  P34700     -0.2715
      7  NAM        3.8360   -8.4200   94.1400 N.am  700  P34700     -0.1783
      8  CAP        4.7760   -8.6120   93.1790 C.2   700  P34700      0.0699
      9  CAK        5.6340   -9.6930   93.5240 C.2   700  P34700      0.0016
     10  CAU        6.7100  -10.1150   92.6560 C.3   700  P34700      0.0994
     11  CAT        7.5850  -11.2090   92.9730 C.ar  700  P34700      0.0002
     12  CAI        7.4130  -11.9910   94.1630 C.ar  700  P34700     -0.0028
     13  CAF        8.2770  -13.0790   94.4430 C.ar  700  P34700     -0.0003
     14  CAE        9.3370  -13.3940   93.5530 C.ar  700  P34700      0.0007
     15  CAH        9.5430  -12.6470   92.3570 C.ar  700  P34700      0.0124
     16  CAS        8.6750  -11.5450   92.0650 C.ar  700  P34700      0.0914
     17  CAQ        8.8550  -10.7940   90.8770 C.1   700  P34700      0.2040
     18  OAD        9.7520  -11.0200   90.0690 O.2   700  P34700     -0.2093
     19  NAN        7.9910   -9.7130   90.5760 N.2   700  P34700     -0.3367
     20  CAR        6.9370   -9.3410   91.4450 C.2   700  P34700      0.1298
     21  CAJ        6.0910   -8.2460   91.0550 C.2   700  P34700      0.0305
     22  CAG        5.0270   -7.8830   91.9450 C.2   700  P34700      0.0186
@<TRIPOS>BOND
     1    18    17    2
     2    19    17    2
     3    19    20    2
     4    17    16    1
     5    21    20    1
     6    21    22    2
     7    20    10    1
     8    22     8    1
     9    16    15   ar
    10    16    11   ar
    11    15    14   ar
    12    10    11    1
    13    10     9    1
    14    11    12   ar
    15     8     9    2
    16     8     7    1
    17     4     2    1
    18     4     5    1
    19     2     1    1
    20     2     3    1
    21    14    13   ar
    22     7     5   am
    23    12    13   ar
    24     5     6    2
