@<TRIPOS>MOLECULE
1zmc_NAD_A_1.pdb
 44 48 0 0 0
SMALL
GASTEIGER

@<TRIPOS>ATOM
      1  PA        73.6730  146.7360  -96.3970 P.3   481  NAD481      0.2189
      2  O1A       72.3140  146.2240  -96.6820 O.3   481  NAD481     -0.4371
      3  O2A       74.8240  146.0170  -96.9870 O.2   481  NAD481     -0.5170
      4  O5B       73.7700  148.2890  -96.7960 O.3   481  NAD481     -0.3112
      5  C5B       72.5690  149.0340  -96.9810 C.3   481  NAD481      0.1813
      6  C4B       72.9080  150.4910  -97.2900 C.3   481  NAD481      0.1821
      7  O4B       71.6850  151.2250  -97.4340 O.3   481  NAD481     -0.3135
      8  C3B       73.6640  151.1460  -96.1300 C.3   481  NAD481      0.2184
      9  O3B       74.9610  151.5500  -96.5760 O.3   481  NAD481     -0.2174
     10  C2B       72.8200  152.3780  -95.7990 C.3   481  NAD481      0.2570
     11  O2B       73.6850  153.4960  -95.5790 O.3   481  NAD481     -0.2130
     12  C1B       72.0710  152.5690  -97.1180 C.3   481  NAD481      0.3186
     13  N9A       70.8430  153.3890  -97.0080 N.pl3 481  NAD481     -0.1439
     14  C8A       69.8530  153.2230  -96.1320 C.3   481  NAD481      0.3377
     15  N7A       68.8650  154.0720  -96.4030 N.2   481  NAD481     -0.2095
     16  C5A       69.2320  154.7890  -97.4600 C.2   481  NAD481      0.2526
     17  C6A       68.6360  155.7970  -98.2070 C.2   481  NAD481      0.4393
     18  N6A       67.4130  156.2190  -97.9030 N.pl3 481  NAD481      0.2180
     19  N1A       69.3020  156.3170  -99.2500 N.2   481  NAD481      0.0021
     20  C2A       70.5080  155.8900  -99.5860 C.3   481  NAD481      0.5254
     21  N3A       71.1020  154.9280  -98.9000 N.2   481  NAD481     -0.0055
     22  C4A       70.4960  154.3630  -97.8440 C.2   481  NAD481      0.3518
     23  O3        73.8870  146.8060  -94.8060 O.3   481  NAD481     -0.2703
     24  PN        75.3680  147.0410  -94.2180 P.3   481  NAD481      0.2189
     25  O1N       75.4980  148.4650  -93.8380 O.3   481  NAD481     -0.4371
     26  O2N       76.3820  146.4670  -95.1300 O.2   481  NAD481     -0.5170
     27  O5D       75.3310  146.1780  -92.8600 O.3   481  NAD481     -0.3112
     28  C5D       75.3970  144.7500  -92.8720 C.3   481  NAD481      0.1813
     29  C4D       74.1870  144.1450  -92.1550 C.3   481  NAD481      0.1799
     30  O4D       74.0600  144.7740  -90.8650 O.3   481  NAD481     -0.3327
     31  C3D       72.8990  144.4360  -92.9310 C.3   481  NAD481      0.2158
     32  O3D       72.0530  143.2840  -92.9830 O.3   481  NAD481     -0.2175
     33  C2D       72.2560  145.5500  -92.1060 C.3   481  NAD481      0.2309
     34  O2D       70.8300  145.5200  -92.2180 O.3   481  NAD481     -0.2158
     35  C1D       72.6710  145.0990  -90.7060 C.3   481  NAD481      0.2263
     36  N1N       72.4000  146.1170  -89.6660 N.pl3 481  NAD481     -0.2787
     37  C2N       71.1190  146.1640  -89.0990 C.3   481  NAD481      0.1244
     38  C3N       70.7910  147.1390  -88.1620 C.2   481  NAD481      0.0544
     39  C7N       69.3660  147.1780  -87.5970 C.2   481  NAD481      0.2818
     40  O7N       68.5490  146.3060  -87.8910 O.2   481  NAD481     -0.2670
     41  N7N       69.0780  148.2010  -86.7960 N.am  481  NAD481     -0.0839
     42  C4N       71.7660  148.0640  -87.7920 C.2   481  NAD481      0.0033
     43  C5N       73.0440  148.0250  -88.3440 C.2   481  NAD481      0.0157
     44  C6N       73.3740  147.0520  -89.2850 C.2   481  NAD481      0.0633
@<TRIPOS>BOND
     1    20    19    1
     2    20    21    1
     3    19    17    2
     4    21    22    2
     5    17    18    1
     6    17    16    1
     7    22    16    1
     8    22    13    1
     9    16    15    2
    10     7     6    1
    11     7    12    1
    12     6     5    1
    13     6     8    1
    14    12    13    1
    15    12    10    1
    16    13    14    1
    17     3     1    2
    18     5     4    1
    19     4     1    1
    20     2     1    1
    21     9     8    1
    22    15    14    1
    23     1    23    1
    24     8    10    1
    25    10    11    1
    26    26    24    2
    27    23    24    1
    28    24    25    1
    29    24    27    1
    30    32    31    1
    31    31    29    1
    32    31    33    1
    33    28    27    1
    34    28    29    1
    35    34    33    1
    36    29    30    1
    37    33    35    1
    38    30    35    1
    39    35    36    1
    40    36    44    1
    41    36    37    1
    42    44    43    2
    43    37    38    1
    44    43    42    1
    45    38    42    2
    46    38    39    1
    47    40    39    2
    48    39    41   am
