@<TRIPOS>MOLECULE
1zmd_NAI_A_1.pdb
 44 48 0 0 0
SMALL
GASTEIGER

@<TRIPOS>ATOM
      1  PA        74.0750  146.3880  -96.1830 P.3   481  NAI481      0.2189
      2  O1A       75.2030  145.6540  -96.8020 O.2   481  NAI481     -0.5170
      3  O2A       74.1910  146.7730  -94.7560 O.3   481  NAI481     -0.4371
      4  O5B       73.7980  147.7180  -97.0490 O.3   481  NAI481     -0.3112
      5  C5B       72.5910  148.4660  -96.8830 C.3   481  NAI481      0.1813
      6  C4B       72.8370  149.9050  -97.3280 C.3   481  NAI481      0.1821
      7  O4B       71.6360  150.6880  -97.2530 O.3   481  NAI481     -0.3135
      8  C3B       73.8400  150.5730  -96.3830 C.3   481  NAI481      0.2184
      9  O3B       74.9420  151.0720  -97.1450 O.3   481  NAI481     -0.2174
     10  C2B       73.0400  151.7320  -95.7870 C.3   481  NAI481      0.2570
     11  O2B       73.9260  152.8360  -95.5910 O.3   481  NAI481     -0.2130
     12  C1B       72.1010  152.0190  -96.9590 C.3   481  NAI481      0.3186
     13  N9A       70.9200  152.8460  -96.6260 N.pl3 481  NAI481     -0.1439
     14  C8A       70.1400  152.7080  -95.5550 C.3   481  NAI481      0.3377
     15  N7A       69.0860  153.5170  -95.6620 N.2   481  NAI481     -0.2095
     16  C5A       69.1980  154.1830  -96.8060 C.2   481  NAI481      0.2526
     17  C6A       68.4230  155.1240  -97.4720 C.2   481  NAI481      0.4393
     18  N6A       67.2580  155.5240  -96.9660 N.pl3 481  NAI481      0.2180
     19  N1A       68.8350  155.5970  -98.6600 N.2   481  NAI481      0.0021
     20  C2A       69.9620  155.1780  -99.2110 C.3   481  NAI481      0.5254
     21  N3A       70.7200  154.2780  -98.6070 N.2   481  NAI481     -0.0055
     22  C4A       70.3710  153.7620  -97.4180 C.2   481  NAI481      0.3518
     23  O3        72.7120  145.5480  -96.3460 O.3   481  NAI481     -0.2703
     24  PN        72.3940  144.5690  -97.5870 P.3   481  NAI481      0.2189
     25  O1N       73.2550  144.9190  -98.7400 O.2   481  NAI481     -0.5170
     26  O2N       70.9290  144.5310  -97.7940 O.3   481  NAI481     -0.4371
     27  O5D       72.8790  143.1300  -97.0370 O.3   481  NAI481     -0.3112
     28  C5D       72.1980  142.5270  -95.9320 C.3   481  NAI481      0.1813
     29  C4D       73.0220  141.4420  -95.2320 C.3   481  NAI481      0.1799
     30  O4D       73.2870  140.3840  -96.1730 O.3   481  NAI481     -0.3327
     31  C3D       74.3840  141.9680  -94.7690 C.3   481  NAI481      0.2158
     32  O3D       74.8510  141.2810  -93.6080 O.3   481  NAI481     -0.2175
     33  C2D       75.2680  141.6360  -95.9640 C.3   481  NAI481      0.2309
     34  O2D       76.6430  141.5300  -95.5860 O.3   481  NAI481     -0.2158
     35  C1D       74.7110  140.2560  -96.3130 C.3   481  NAI481      0.2263
     36  N1N       75.1140  139.8470  -97.6800 N.pl3 481  NAI481     -0.2787
     37  C2N       76.3870  139.2960  -97.8720 C.3   481  NAI481      0.1244
     38  C3N       76.8470  139.0690  -99.1630 C.2   481  NAI481      0.0544
     39  C7N       78.2630  138.5200  -99.3400 C.2   481  NAI481      0.2818
     40  O7N       78.8600  138.0470  -98.3750 O.2   481  NAI481     -0.2670
     41  N7N       78.7580  138.5780 -100.5720 N.am  481  NAI481     -0.0839
     42  C4N       76.0430  139.3800 -100.2540 C.2   481  NAI481      0.0033
     43  C5N       74.7720  139.9180 -100.0690 C.2   481  NAI481      0.0157
     44  C6N       74.2990  140.1530  -98.7820 C.2   481  NAI481      0.0633
@<TRIPOS>BOND
     1    41    39   am
     2    42    43    1
     3    42    38    2
     4    43    44    2
     5    39    38    1
     6    39    40    2
     7    20    19    1
     8    20    21    1
     9    38    37    1
    10    44    36    1
    11    25    24    2
    12    19    17    2
    13    21    22    2
    14    37    36    1
    15    26    24    1
    16    36    35    1
    17    24    27    1
    18    24    23    1
    19    17    18    1
    20    17    16    1
    21    22    16    1
    22    22    13    1
    23     6     7    1
    24     6     5    1
    25     6     8    1
    26     7    12    1
    27     9     8    1
    28     4     5    1
    29     4     1    1
    30    27    28    1
    31    12    13    1
    32    12    10    1
    33    16    15    2
    34     2     1    2
    35    13    14    1
    36     8    10    1
    37    23     1    1
    38    35    30    1
    39    35    33    1
    40     1     3    1
    41    30    29    1
    42    33    34    1
    43    33    31    1
    44    28    29    1
    45    10    11    1
    46    15    14    1
    47    29    31    1
    48    31    32    1
