@<TRIPOS>MOLECULE
1zmj_HDB_A_1.pdb
 18 19 0 0 0
SMALL
GASTEIGER

@<TRIPOS>ATOM
      1  C01        9.7010   71.9770   81.7500 C.ar  1001  HDB1001     0.0000
      2  C02        8.6190   72.9090   82.3490 C.ar  1001  HDB1001     0.0000
      3  C03        8.3990   72.8860   83.7530 C.ar  1001  HDB1001     0.0000
      4  C04        9.1580   72.0190   84.6030 C.ar  1001  HDB1001     0.0000
      5  C05       10.1510   71.1650   84.0250 C.ar  1001  HDB1001     0.0000
      6  C06       10.4110   71.1480   82.6410 C.ar  1001  HDB1001     0.0000
      7  C07       10.0020   71.9540   80.2690 C.3   1001  HDB1001     0.0000
      8  B          8.9560   71.9850   86.1020 B     1001  HDB1001     0.0000
      9  N09       11.4470   72.1210   80.1170 N.pl3 1001  HDB1001     0.3300
     10  C10       12.1310   71.8520   78.9000 C.cat 1001  HDB1001     0.0000
     11  N11       13.4070   72.0030   78.8140 N.pl3 1001  HDB1001     0.3300
     12  N12       11.4300   71.4110   77.7700 N.pl3 1001  HDB1001     0.3300
     13  O13        7.9050   72.8120   86.6130 O.3   1001  HDB1001     0.0000
     14  O14        8.7200   70.6480   86.5700 O.3   1001  HDB1001     0.0000
     15  C15        7.0590   71.9750   87.3660 C.3   1001  HDB1001     0.0000
     16  C16        7.9360   70.7890   87.7370 C.3   1001  HDB1001     0.0000
     17  C17        6.4990   72.6980   88.6150 C.3   1001  HDB1001     0.0000
     18  O18        6.3580   74.0820   88.3950 O.3   1001  HDB1001     0.0000
@<TRIPOS>BOND
     1    12    10    1
     2    11    10    1
     3    10     9    2
     4     9     7    1
     5     7     1    1
     6     1     2   ar
     7     1     6   ar
     8     2     3   ar
     9     6     5   ar
    10     3     4   ar
    11     5     4   ar
    12     4     8    1
    13     8    14    1
    14     8    13    1
    15    14    16    1
    16    13    15    1
    17    15    16    1
    18    15    17    1
    19    18    17    1
