@<TRIPOS>MOLECULE
1zml_412_A_1.pdb
 19 20 0 0 0
SMALL
GASTEIGER

@<TRIPOS>ATOM
      1  C01        8.8980   72.0390   81.7360 C.ar  1001  4121001     0.0000
      2  C02        7.7720   72.5420   82.4880 C.ar  1001  4121001     0.0000
      3  C03        7.7980   72.5640   83.9380 C.ar  1001  4121001     0.0000
      4  C04        8.9520   72.0890   84.6650 C.ar  1001  4121001     0.0000
      5  C05       10.0620   71.5910   83.8990 C.ar  1001  4121001     0.0000
      6  C06       10.0350   71.5690   82.4620 C.ar  1001  4121001     0.0000
      7  C07        8.8740   72.0280   80.2120 C.3   1001  4121001     0.0000
      8  C08        9.6360   73.1780   79.5620 C.3   1001  4121001     0.0000
      9  B          9.0300   72.1070   86.2120 B     1001  4121001     0.0000
     10  O10        8.0320   72.9130   86.8680 O.3   1001  4121001     0.0000
     11  C11        7.3570   72.0900   87.7650 C.3   1001  4121001     0.0000
     12  C12        8.2650   70.9010   87.9710 C.3   1001  4121001     0.0000
     13  O13        8.9630   70.7880   86.7460 O.3   1001  4121001     0.0000
     14  C14        7.0360   72.7900   89.0900 C.3   1001  4121001     0.0000
     15  O15        6.2060   73.9040   88.8570 O.3   1001  4121001     0.0000
     16  N16       11.0720   73.0320   79.8260 N.pl3 1001  4121001     0.3300
     17  C17       11.9300   72.2430   79.0110 C.cat 1001  4121001     0.0000
     18  N18       13.1820   72.1460   79.2780 N.pl3 1001  4121001     0.3300
     19  N19       11.4160   71.5530   77.8950 N.pl3 1001  4121001     0.3300
@<TRIPOS>BOND
     1    19    17    1
     2    17    18    1
     3    17    16    2
     4     8    16    1
     5     8     7    1
     6     7     1    1
     7     1     6   ar
     8     1     2   ar
     9     6     5   ar
    10     2     3   ar
    11     5     4   ar
    12     3     4   ar
    13     4     9    1
    14     9    13    1
    15     9    10    1
    16    13    12    1
    17    10    11    1
    18    11    12    1
    19    11    14    1
    20    15    14    1
