@<TRIPOS>MOLECULE
1zmn_427_A_1.pdb
 17 18 0 0 0
SMALL
GASTEIGER

@<TRIPOS>ATOM
      1  C01       11.7170   49.7900   21.3380 C.ar  1001  4271001     0.0000
      2  C02       11.3480   51.1480   21.6500 C.ar  1001  4271001     0.0000
      3  C03       11.4040   51.6400   22.9880 C.ar  1001  4271001     0.0000
      4  C04       11.8290   50.7890   24.0550 C.ar  1001  4271001     0.0000
      5  C05       12.2000   49.4390   23.7460 C.ar  1001  4271001     0.0000
      6  C06       12.1450   48.9460   22.4120 C.ar  1001  4271001     0.0000
      7  N07       11.6450   49.3250   20.0080 N.pl3 1001  4271001     0.3300
      8  C08       11.6840   50.1620   18.8460 C.cat 1001  4271001     0.0000
      9  B         11.8950   51.2920   25.4940 B     1001  4271001     0.0000
     10  O10       12.7500   52.4280   25.6180 O.3   1001  4271001     0.0000
     11  C11       12.1140   53.3940   26.4270 C.3   1001  4271001     0.0000
     12  C12       10.8840   52.6880   26.9850 C.3   1001  4271001     0.0000
     13  O13       10.6090   51.6980   26.0010 O.3   1001  4271001     0.0000
     14  C14       13.1060   53.8780   27.5140 C.3   1001  4271001     0.0000
     15  O15       12.4510   54.3590   28.6720 O.3   1001  4271001     0.0000
     16  N16       12.2050   51.3480   18.7890 N.pl3 1001  4271001     0.3300
     17  N17       11.1100   49.6330   17.6680 N.pl3 1001  4271001     0.3300
@<TRIPOS>BOND
     1    17     8    1
     2    16     8    1
     3     8     7    2
     4     7     1    1
     5     1     2   ar
     6     1     6   ar
     7     2     3   ar
     8     6     5   ar
     9     3     4   ar
    10     5     4   ar
    11     4     9    1
    12     9    10    1
    13     9    13    1
    14    10    11    1
    15    13    12    1
    16    11    12    1
    17    11    14    1
    18    14    15    1
