@<TRIPOS>MOLECULE
1zmt_RNO_A_1.pdb
 12 13 0 0 0
SMALL
GASTEIGER

@<TRIPOS>ATOM
      1  C1        26.0740    1.3120   37.2890 C.ar  1002  RNO1002     0.1429
      2  C2        25.4930    0.9400   36.0840 C.ar  1002  RNO1002     0.0238
      3  C3        24.9320    1.9360   35.2670 C.ar  1002  RNO1002    -0.0002
      4  C4        24.9490    3.2940   35.6360 C.ar  1002  RNO1002     0.0071
      5  C5        25.5420    3.6450   36.8580 C.ar  1002  RNO1002    -0.0002
      6  C6        26.1090    2.6560   37.6920 C.ar  1002  RNO1002     0.0238
      7  C7        24.3610    4.3580   34.7620 C.3   1002  RNO1002     0.1670
      8  C8        23.0950    4.2050   34.0690 C.3   1002  RNO1002     0.1765
      9  N1        26.6730    0.2600   38.1670 N.pl3 1002  RNO1002     0.0577
     10  O1        26.6310   -0.9080   37.7940 O.2   1002  RNO1002    -0.1261
     11  O2        27.1830    0.6020   39.2280 O.2   1002  RNO1002    -0.1261
     12  O3        24.3300    4.0710   33.3520 O.3   1002  RNO1002    -0.3463
@<TRIPOS>BOND
     1    12     8    1
     2    12     7    1
     3     8     7    1
     4     7     4    1
     5     3     4   ar
     6     3     2   ar
     7     4     5   ar
     8     2     1   ar
     9     5     6   ar
    10     1     6   ar
    11     1     9    1
    12    10     9    2
    13     9    11    2
