@<TRIPOS>MOLECULE
1zmx_THM_A_1.pdb
 17 18 0 0 0
SMALL
GASTEIGER

@<TRIPOS>ATOM
      1  O5'       14.5200   -8.5570    3.9660 O.3   1400  THM1400    -0.2176
      2  C5'       13.5120   -9.3790    4.5070 C.3   1400  THM1400     0.2141
      3  C4'       12.4250   -8.4380    4.9710 C.3   1400  THM1400     0.1802
      4  O4'       12.8010   -7.7030    6.1390 O.3   1400  THM1400    -0.3338
      5  C3'       12.0450   -7.4100    3.9240 C.3   1400  THM1400     0.1858
      6  O3'       10.6570   -7.6160    3.7560 O.3   1400  THM1400    -0.2203
      7  C2'       12.2060   -6.0240    4.5170 C.3   1400  THM1400     0.0874
      8  C1'       12.5910   -6.2960    5.9610 C.3   1400  THM1400     0.2090
      9  N1        13.5020   -5.3670    6.6470 N.am  1400  THM1400    -0.1794
     10  C2        12.8840   -4.3300    7.3990 C.1   1400  THM1400     0.2844
     11  O2        11.6420   -4.2290    7.4280 O.2   1400  THM1400    -0.1918
     12  N3        13.5920   -3.4330    8.0810 N.2   1400  THM1400    -0.2455
     13  C4        14.9260   -3.4740    8.0860 C.1   1400  THM1400     0.2134
     14  O4        15.5720   -2.6060    8.7280 O.2   1400  THM1400    -0.2088
     15  C5        15.6020   -4.5490    7.3240 C.2   1400  THM1400     0.0891
     16  C5M       17.1000   -4.5840    7.2980 C.3   1400  THM1400     0.0462
     17  C6        14.8380   -5.4870    6.6170 C.2   1400  THM1400     0.0877
@<TRIPOS>BOND
     1     6     5    1
     2     5     7    1
     3     5     3    1
     4     1     2    1
     5     2     3    1
     6     7     8    1
     7     3     4    1
     8     8     4    1
     9     8     9    1
    10    17     9    1
    11    17    15    2
    12     9    10   am
    13    16    15    1
    14    15    13    1
    15    10    11    2
    16    10    12    2
    17    12    13    2
    18    13    14    2
