@<TRIPOS>MOLECULE
1zn0_NUC_C_1.pdb
 40 0 0 0 0
SMALL
GASTEIGER

@<TRIPOS>ATOM
      1  P        -39.7970   22.3690   13.2230 P.3   1405  RG1405      0.0000
      2  P        -35.0860   20.2600    9.9870 P.3   1406  RU1406      0.0000
      3  P        -31.8600   17.3660    6.1460 P.3   1407  RC1407      0.0000
      4  P        -31.9280   15.2530    0.8390 P.3   1408  RA1408      0.0000
      5  P        -33.3160   15.5190   -4.5480 P.3   1409  RC1409      0.0000
      6  P        -34.5200   19.3980   -8.3350 P.3   1410  RA1410      0.0000
      7  P        -34.6940   24.9810   -9.9920 P.3   1411  RC1411      0.0000
      8  P        -33.2800   30.7010   -9.3080 P.3   1412  RC1412      0.0000
      9  P        -30.3740   34.9120   -6.0810 P.3   1413  RA1413      0.0000
     10  P        -26.4280   37.4370   -2.1470 P.3   1414  RU1414      0.0000
     11  P        -22.1570   36.5300    2.1070 P.3   1415  RG1415      0.0000
     12  P        -17.7530   35.3620    5.5000 P.3   1416  RG1416      0.0000
     13  P        -12.6190   33.1280    5.7720 P.3   1417  RG1417      0.0000
     14  P         -8.4730   31.5070    1.9180 P.3   1418  RA1418      0.0000
     15  P         -2.4050   32.2350   -0.8860 P.3   1419  RG1419      0.0000
     16  P         -1.0000   33.9010   -6.4610 P.3   1420  RU1420      0.0000
     17  P         -1.6970   38.0260  -10.4530 P.3   1421  RG1421      0.0000
     18  P         -2.7100   43.5010  -11.6490 P.3   1422  RG1422      0.0000
     19  P         -2.8490   49.1830  -10.3050 P.3   1423  RG1423      0.0000
     20  P         -2.4140   54.0500   -6.6100 P.3   1424  RU1424      0.0000
     21  P          2.2250   43.2570    7.5210 P.3   1476  RA1476      0.0000
     22  P         -3.4740   44.9440    8.1080 P.3   1477  RU1477      0.0000
     23  P         -8.7110   46.1340    5.6250 P.3   1478  RU1478      0.0000
     24  P        -12.8970   46.3840    1.6970 P.3   1479  RC1479      0.0000
     25  P        -15.5670   44.8310   -3.2830 P.3   1480  RA1480      0.0000
     26  P        -17.1400   40.9960   -7.5150 P.3   1481  RU1481      0.0000
     27  P        -17.2500   33.3070   -9.8250 P.3   1482  RG1482      0.0000
     28  P        -16.4380   27.6960   -7.7170 P.3   1483  RA1483      0.0000
     29  P        -16.5530   22.1180   -6.8790 P.3   1484  RC1484      0.0000
     30  P        -17.7270   19.6270   -1.8410 P.3   1485  RU1485      0.0000
     31  P        -20.8370   20.7440    3.5200 P.3   1486  RG1486      0.0000
     32  P        -24.6880   21.5630    7.0590 P.3   1487  RG1487      0.0000
     33  P        -30.8440   24.7000    8.5210 P.3   1488  RG1488      0.0000
     34  P        -35.1760   28.3970    8.1050 P.3   1489  RG1489      0.0000
     35  P        -40.0640   30.8260    5.9300 P.3   1490  RU1490      0.0000
     36  P        -44.1420   29.2940    2.0140 P.3   1491  RG1491      0.0000
     37  P        -47.3920   26.4170   -0.9960 P.3   1492  RA1492      0.0000
     38  P        -47.6660   20.3410   -1.1080 P.3   1493  RA1493      0.0000
     39  P        -47.5810   15.3970   -0.2130 P.3   1494  RG1494      0.0000
     40  P        -45.8970    9.9540    1.0550 P.3   1495  RU1495      0.0000
@<TRIPOS>BOND
