@<TRIPOS>MOLECULE
1zn7_PRP_A_1.pdb
 22 22 0 0 0
SMALL
GASTEIGER

@<TRIPOS>ATOM
      1  C1        31.3550    9.7590   -1.1130 C.3   502  PRP502      0.2742
      2  C2        31.1420    9.0480    0.2120 C.3   502  PRP502      0.2408
      3  C3        30.3980   10.1050    0.9860 C.3   502  PRP502      0.2167
      4  C4        30.9590   11.4120    0.4370 C.3   502  PRP502      0.1808
      5  C5        31.9550   12.0750    1.3660 C.3   502  PRP502      0.1859
      6  O1        30.1900    9.7340   -1.9480 O.3   502  PRP502     -0.2857
      7  O2        30.4300    7.7950    0.1370 O.3   502  PRP502     -0.2149
      8  O3        28.9690   10.0400    0.7640 O.3   502  PRP502     -0.2175
      9  O4        31.6130   11.1190   -0.8030 O.3   502  PRP502     -0.3255
     10  O5        32.5430   13.2290    0.7360 O.3   502  PRP502     -0.2675
     11  P         32.3580   14.6920    1.3950 P.3   502  PRP502      0.5327
     12  O1P       32.4550   14.4840    2.8820 O.3   502  PRP502     -0.1145
     13  O2P       31.0130   15.2030    0.9260 O.3   502  PRP502     -0.1145
     14  O3P       33.5200   15.4700    0.8010 O.2   502  PRP502     -0.2224
     15  PA        30.2180   10.0720   -3.5390 P.3   502  PRP502      0.2249
     16  O1A       29.6700   11.4740   -3.7800 O.3   502  PRP502     -0.4370
     17  O2A       31.6400    9.8260   -3.9980 O.2   502  PRP502     -0.5169
     18  O3A       29.1710    8.9950   -4.1180 O.3   502  PRP502     -0.2260
     19  PB        29.0600    7.4050   -3.8030 P.3   502  PRP502      0.5373
     20  O1B       30.4880    6.9060   -3.7980 O.3   502  PRP502     -0.1143
     21  O2B       28.2450    6.9140   -4.9760 O.2   502  PRP502     -0.2221
     22  O3B       28.3490    7.2900   -2.4660 O.3   502  PRP502     -0.1143
@<TRIPOS>BOND
     1    21    19    2
     2    18    19    1
     3    18    15    1
     4    17    15    2
     5    19    20    1
     6    19    22    1
     7    16    15    1
     8    15     6    1
     9     6     1    1
    10     1     9    1
    11     1     2    1
    12     9     4    1
    13     7     2    1
    14     2     3    1
    15     4     3    1
    16     4     5    1
    17    10     5    1
    18    10    11    1
    19     8     3    1
    20    14    11    2
    21    13    11    1
    22    11    12    1
