@<TRIPOS>MOLECULE
1zn7_HSX_A_1.pdb
 14 14 0 0 0
SMALL
GASTEIGER

@<TRIPOS>ATOM
      1  C1'       32.4540    9.9940   -1.0930 C.3   506  HSX506      0.3023
      2  O1'       32.5210   11.3960   -0.7880 O.3   506  HSX506     -0.3237
      3  C2'       32.2670    9.2790    0.2460 C.3   506  HSX506      0.2433
      4  O2'       31.6660    7.9910    0.0460 O.3   506  HSX506     -0.2148
      5  C3'       31.2670   10.2110    0.9110 C.3   506  HSX506      0.2168
      6  O3'       29.9410    9.9080    0.4820 O.3   506  HSX506     -0.2175
      7  C4'       31.6680   11.5800    0.3690 C.3   506  HSX506      0.1809
      8  C5'       32.4320   12.3100    1.4600 C.3   506  HSX506      0.1859
      9  O5'       32.7870   13.6130    0.9980 O.3   506  HSX506     -0.2675
     10  P'        32.3880   14.9160    1.8570 P.3   506  HSX506      0.5327
     11  O1X       33.4230   15.9210    1.5540 O.3   506  HSX506     -0.1145
     12  O2X       32.3710   14.4720    3.4010 O.3   506  HSX506     -0.1145
     13  O3X       30.9260   15.3350    1.3490 O.2   506  HSX506     -0.2224
     14  O1        31.3160    9.7520   -1.9250 O.3   506  HSX506     -0.1869
@<TRIPOS>BOND
     1    14     1    1
     2     1     2    1
     3     1     3    1
     4     2     7    1
     5     4     3    1
     6     3     5    1
     7     7     5    1
     8     7     8    1
     9     6     5    1
    10     9     8    1
    11     9    10    1
    12    13    10    2
    13    11    10    1
    14    10    12    1
