@<TRIPOS>MOLECULE
1zn7_ADE_A_1.pdb
 10 11 0 0 0
SMALL
GASTEIGER

@<TRIPOS>ATOM
      1  N9        34.9230   10.5900   -0.4450 N.2   655  ADE655     -0.1914
      2  C8        35.6790   11.7040   -0.2380 C.3   655  ADE655      0.2618
      3  N7        36.9740   11.4870   -0.0970 N.2   655  ADE655     -0.2267
      4  C5        37.0790   10.0980   -0.2120 C.2   655  ADE655      0.2303
      5  C6        38.1700    9.2100   -0.1380 C.2   655  ADE655      0.4393
      6  N6        39.4380    9.6080    0.0580 N.pl3 655  ADE655      0.2185
      7  N1        37.9230    7.8940   -0.2970 N.2   655  ADE655     -0.0265
      8  C2        36.6580    7.5030   -0.5000 C.3   655  ADE655      0.4008
      9  N3        35.5410    8.2500   -0.5850 N.2   655  ADE655     -0.1640
     10  C4        35.8200    9.5360   -0.4340 C.1   655  ADE655      0.0579
@<TRIPOS>BOND
     1     9     8    1
     2     9    10    2
     3     8     7    1
     4     1    10    2
     5     1     2    1
     6    10     4    1
     7     7     5    2
     8     2     3    1
     9     4     5    1
    10     4     3    2
    11     5     6    1
