@<TRIPOS>MOLECULE
1zn8_AMP_A_1.pdb
 23 25 0 0 0
SMALL
GASTEIGER

@<TRIPOS>ATOM
      1  P         32.5730   14.8320    1.8000 P.3   1031  AMP1031     0.5327
      2  O1P       31.1660   15.2450    1.3310 O.2   1031  AMP1031    -0.2224
      3  O2P       32.6200   14.3590    3.2130 O.3   1031  AMP1031    -0.1145
      4  O3P       33.7420   15.6580    1.3450 O.3   1031  AMP1031    -0.1145
      5  O5'       32.7850   13.5450    0.8980 O.3   1031  AMP1031    -0.2675
      6  C5'       32.3210   12.3000    1.4100 C.3   1031  AMP1031     0.1860
      7  C4'       31.7330   11.4960    0.2670 C.3   1031  AMP1031     0.1823
      8  O4'       32.7060   11.3310   -0.7670 O.3   1031  AMP1031    -0.3135
      9  C3'       31.4170   10.1960    0.9140 C.3   1031  AMP1031     0.2184
     10  O3'       30.2060    9.7350    0.2960 O.3   1031  AMP1031    -0.2174
     11  C2'       32.6340    9.3420    0.6460 C.3   1031  AMP1031     0.2570
     12  O2'       32.1670    8.0200    0.2950 O.3   1031  AMP1031    -0.2130
     13  C1'       33.3080   10.0610   -0.5510 C.3   1031  AMP1031     0.3186
     14  N9        34.7410   10.2840   -0.3210 N.pl3 1031  AMP1031    -0.1439
     15  C8        35.3410   11.4730   -0.1630 C.3   1031  AMP1031     0.3377
     16  N7        36.6830   11.3350   -0.0080 N.2   1031  AMP1031    -0.2095
     17  C5        36.9420   10.0070   -0.0940 C.2   1031  AMP1031     0.2526
     18  C6        38.1430    9.1960   -0.0230 C.2   1031  AMP1031     0.4393
     19  N6        39.3300    9.7590    0.1660 N.pl3 1031  AMP1031     0.2180
     20  N1        37.9760    7.8720   -0.1680 N.2   1031  AMP1031     0.0021
     21  C2        36.7400    7.2820   -0.3490 C.3   1031  AMP1031     0.5254
     22  N3        35.5690    7.9550   -0.4430 N.2   1031  AMP1031    -0.0055
     23  C4        35.6400    9.3140   -0.3310 C.2   1031  AMP1031     0.3518
@<TRIPOS>BOND
     1     8    13    1
     2     8     7    1
     3    13    14    1
     4    13    11    1
     5    22    21    1
     6    22    23    2
     7    21    20    1
     8    23    14    1
     9    23    17    1
    10    14    15    1
    11    20    18    2
    12    15    16    1
    13    17    18    1
    14    17    16    2
    15    18    19    1
    16     7     9    1
    17     7     6    1
    18    12    11    1
    19    10     9    1
    20    11     9    1
    21     5     6    1
    22     5     1    1
    23     2     1    2
    24     4     1    1
    25     1     3    1
