@<TRIPOS>MOLECULE
1zn9_AMP_B_1.pdb
 23 25 0 0 0
SMALL
GASTEIGER

@<TRIPOS>ATOM
      1  P          6.3480   16.9580   64.3530 P.3   1031  AMP1031     0.5327
      2  O1P        7.2040   17.9000   63.5170 O.2   1031  AMP1031    -0.2224
      3  O2P        5.0360   16.6070   63.7200 O.3   1031  AMP1031    -0.1145
      4  O3P        6.3790   17.2850   65.8260 O.3   1031  AMP1031    -0.1145
      5  O5'        7.2740   15.6940   64.3740 O.3   1031  AMP1031    -0.2675
      6  C5'        6.9650   14.7500   63.4160 C.3   1031  AMP1031     0.1860
      7  C4'        8.2540   14.0850   63.0480 C.3   1031  AMP1031     0.1823
      8  O4'        8.7670   13.3840   64.1780 O.3   1031  AMP1031    -0.3135
      9  C3'        7.7910   13.1170   62.0070 C.3   1031  AMP1031     0.2184
     10  O3'        8.9000   12.7770   61.1780 O.3   1031  AMP1031    -0.2174
     11  C2'        7.3200   11.9540   62.8360 C.3   1031  AMP1031     0.2570
     12  O2'        7.4740   10.8000   61.9890 O.3   1031  AMP1031    -0.2130
     13  C1'        8.2760   12.0360   64.0600 C.3   1031  AMP1031     0.3186
     14  N9         7.5900   11.6460   65.3160 N.pl3 1031  AMP1031    -0.1439
     15  C8         7.1810   12.4530   66.3310 C.3   1031  AMP1031     0.3377
     16  N7         6.5970   11.7340   67.3310 N.2   1031  AMP1031    -0.2095
     17  C5         6.6270   10.4440   66.9270 C.2   1031  AMP1031     0.2526
     18  C6         6.1840    9.1570   67.4750 C.2   1031  AMP1031     0.4393
     19  N6         5.5740    9.1250   68.6760 N.pl3 1031  AMP1031     0.2180
     20  N1         6.4080    8.0390   66.7470 N.2   1031  AMP1031     0.0021
     21  C2         7.0350    8.0510   65.5750 C.3   1031  AMP1031     0.5254
     22  N3         7.4600    9.1930   64.9890 N.2   1031  AMP1031    -0.0055
     23  C4         7.2960   10.3870   65.6160 C.2   1031  AMP1031     0.3518
@<TRIPOS>BOND
     1    10     9    1
     2    12    11    1
     3     9    11    1
     4     9     7    1
     5    11    13    1
     6     7     6    1
     7     7     8    1
     8     6     5    1
     9     2     1    2
    10     3     1    1
    11    13     8    1
    12    13    14    1
    13     1     5    1
    14     1     4    1
    15    22    21    1
    16    22    23    2
    17    14    23    1
    18    14    15    1
    19    21    20    1
    20    23    17    1
    21    15    16    1
    22    20    18    2
    23    17    16    2
    24    17    18    1
    25    18    19    1
