@<TRIPOS>MOLECULE
1znk_F09_A_1.pdb
 10 9 0 0 0
SMALL
GASTEIGER

@<TRIPOS>ATOM
      1  C1        45.1310   28.0450   41.2970 C.3   202  F09202      0.0000
      2  C2        46.6610   27.9860   41.3390 C.3   202  F09202      0.0000
      3  C3        47.1670   26.5720   41.6300 C.3   202  F09202      0.0000
      4  C4        47.2250   25.7310   40.3520 C.3   202  F09202      0.0000
      5  C5        47.8000   24.3400   40.6260 C.3   202  F09202      0.0000
      6  C6        49.3310   24.3720   40.6300 C.3   202  F09202      0.0001
      7  C7        49.9090   22.9800   40.8990 C.3   202  F09202      0.0027
      8  C8        51.4370   23.0430   40.9860 C.3   202  F09202      0.0355
      9  C9        52.0460   21.6460   41.1230 C.3   202  F09202      0.1821
     10  OXT       51.8820   21.1860   42.4680 O.3   202  F09202     -0.2204
@<TRIPOS>BOND
     1     4     5    1
     2     4     3    1
     3     5     6    1
     4     6     7    1
     5     7     8    1
     6     8     9    1
     7     9    10    1
     8     1     2    1
     9     2     3    1
