@<TRIPOS>MOLECULE
1znl_DE1_A_1.pdb
 11 10 0 0 0
SMALL
GASTEIGER

@<TRIPOS>ATOM
      1  CAA       44.8690   28.5550   41.1070 C.3   400  DE1400      0.0000
      2  CAC       46.2850   28.4970   41.6820 C.3   400  DE1400      0.0000
      3  CAE       46.5640   27.1250   42.2990 C.3   400  DE1400      0.0000
      4  CAG       47.8550   26.5210   41.7440 C.3   400  DE1400      0.0000
      5  CAI       47.5960   25.7310   40.4590 C.3   400  DE1400      0.0000
      6  CAK       48.1330   24.3020   40.5630 C.3   400  DE1400      0.0000
      7  CAJ       49.6460   24.2390   40.3400 C.3   400  DE1400      0.0001
      8  CAH       50.2070   22.9100   40.8490 C.3   400  DE1400      0.0027
      9  CAF       51.6580   23.0520   41.3130 C.3   400  DE1400      0.0355
     10  CAD       52.3390   21.6880   41.4600 C.3   400  DE1400      0.1821
     11  OAB       51.8910   21.0430   42.6560 O.3   400  DE1400     -0.2204
@<TRIPOS>BOND
     1     7     6    1
     2     7     8    1
     3     5     6    1
     4     5     4    1
     5     8     9    1
     6     1     2    1
     7     9    10    1
     8    10    11    1
     9     2     3    1
    10     4     3    1
