@<TRIPOS>MOLECULE
1znq_NAD_O_1.pdb
 44 48 0 0 0
SMALL
GASTEIGER

@<TRIPOS>ATOM
      1  PA        45.1010   22.2180   16.0070 P.3   1001  NAD1001     0.2189
      2  O1A       43.7960   22.3250   15.2340 O.2   1001  NAD1001    -0.5170
      3  O2A       45.4290   23.3170   17.0430 O.3   1001  NAD1001    -0.4371
      4  O5B       46.3250   22.1510   14.9260 O.3   1001  NAD1001    -0.3112
      5  C5B       46.1750   21.3490   13.7080 C.3   1001  NAD1001     0.1813
      6  C4B       46.6630   22.1540   12.4760 C.3   1001  NAD1001     0.1821
      7  O4B       46.5170   21.2540   11.3380 O.3   1001  NAD1001    -0.3135
      8  C3B       45.7940   23.3890   12.1110 C.3   1001  NAD1001     0.2184
      9  O3B       46.6430   24.5690   12.0850 O.3   1001  NAD1001    -0.2174
     10  C2B       45.1990   22.9890   10.7500 C.3   1001  NAD1001     0.2570
     11  O2B       44.9300   24.1480    9.8960 O.3   1001  NAD1001    -0.2130
     12  C1B       46.2940   22.0670   10.2160 C.3   1001  NAD1001     0.3186
     13  N9A       45.8980   21.1620    9.1010 N.pl3 1001  NAD1001    -0.1439
     14  C8A       44.6420   20.6460    8.8200 C.3   1001  NAD1001     0.3377
     15  N7A       44.6240   19.8450    7.7190 N.2   1001  NAD1001    -0.2095
     16  C5A       45.9490   19.8470    7.2770 C.2   1001  NAD1001     0.2526
     17  C6A       46.5650   19.2050    6.1680 C.2   1001  NAD1001     0.4393
     18  N6A       45.9710   18.4050    5.2890 N.pl3 1001  NAD1001     0.2180
     19  N1A       47.9260   19.4100    5.9800 N.2   1001  NAD1001     0.0021
     20  C2A       48.5760   20.2380    6.8780 C.3   1001  NAD1001     0.5254
     21  N3A       48.0970   20.8860    7.9450 N.2   1001  NAD1001    -0.0055
     22  C4A       46.7530   20.6570    8.0870 C.2   1001  NAD1001     0.3518
     23  O3        45.1980   20.8050   16.7510 O.3   1001  NAD1001    -0.2703
     24  PN        46.4220   20.2830   17.7460 P.3   1001  NAD1001     0.2189
     25  O1N       45.9240   20.5170   19.1800 O.3   1001  NAD1001    -0.4371
     26  O2N       47.6610   21.0880   17.4130 O.2   1001  NAD1001    -0.5170
     27  O5D       46.4580   18.6690   17.4710 O.3   1001  NAD1001    -0.3112
     28  C5D       47.6560   18.1050   16.9460 C.3   1001  NAD1001     0.1813
     29  C4D       47.5100   16.5760   16.8830 C.3   1001  NAD1001     0.1799
     30  O4D       48.2320   16.1990   18.0970 O.3   1001  NAD1001    -0.3327
     31  C3D       46.1350   15.9580   17.1020 C.3   1001  NAD1001     0.2158
     32  O3D       46.1920   14.6180   16.5610 O.3   1001  NAD1001    -0.2175
     33  C2D       46.0210   15.8800   18.6030 C.3   1001  NAD1001     0.2309
     34  O2D       45.0520   14.8740   18.9800 O.3   1001  NAD1001    -0.2158
     35  C1D       47.4200   15.4950   19.0080 C.3   1001  NAD1001     0.2263
     36  N1N       47.7700   15.9640   20.3870 N.pl3 1001  NAD1001    -0.2787
     37  C2N       47.3430   17.2250   20.8640 C.3   1001  NAD1001     0.1244
     38  C3N       47.6480   17.7020   22.2350 C.2   1001  NAD1001     0.0544
     39  C7N       47.1010   19.0510   22.6020 C.2   1001  NAD1001     0.2818
     40  O7N       47.3320   19.4860   23.7620 O.2   1001  NAD1001    -0.2670
     41  N7N       46.3780   19.8030   21.7360 N.am  1001  NAD1001    -0.0839
     42  C4N       48.5120   16.8290   23.1330 C.2   1001  NAD1001     0.0033
     43  C5N       48.8880   15.5280   22.4870 C.2   1001  NAD1001     0.0157
     44  C6N       48.5570   15.1370   21.2570 C.2   1001  NAD1001     0.0633
@<TRIPOS>BOND
     1    18    17    1
     2    19    17    2
     3    19    20    1
     4    17    16    1
     5    20    21    1
     6    16    15    2
     7    16    22    1
     8    15    14    1
     9    21    22    2
    10    22    13    1
    11    14    13    1
    12    13    12    1
    13    11    10    1
    14    12    10    1
    15    12     7    1
    16    10     8    1
    17     7     6    1
    18     9     8    1
    19     8     6    1
    20     6     5    1
    21     5     4    1
    22     4     1    1
    23     2     1    2
    24     1    23    1
    25     1     3    1
    26    32    31    1
    27    23    24    1
    28    29    28    1
    29    29    31    1
    30    29    30    1
    31    28    27    1
    32    31    33    1
    33    26    24    2
    34    27    24    1
    35    24    25    1
    36    30    35    1
    37    33    34    1
    38    33    35    1
    39    35    36    1
    40    36    37    1
    41    36    44    1
    42    37    38    1
    43    44    43    2
    44    41    39   am
    45    38    39    1
    46    38    42    2
    47    43    42    1
    48    39    40    2
