@<TRIPOS>MOLECULE
1znx_5GP_A_1.pdb
 24 26 0 0 0
SMALL
GASTEIGER

@<TRIPOS>ATOM
      1  P         29.9670    9.3540   31.0210 P.3   300  5GP300      0.5327
      2  O1P       30.0860    8.0960   31.8720 O.3   300  5GP300     -0.1145
      3  O2P       29.9630    9.1000   29.5210 O.2   300  5GP300     -0.2224
      4  O3P       30.8330   10.5290   31.4740 O.3   300  5GP300     -0.1145
      5  O5'       28.5220    9.9340   31.4570 O.3   300  5GP300     -0.2675
      6  C5'       27.5710   10.4920   30.5400 C.3   300  5GP300      0.1859
      7  C4'       26.3470    9.6890   30.9330 C.3   300  5GP300      0.1801
      8  O4'       25.4990    9.2820   29.8630 O.3   300  5GP300     -0.3326
      9  C3'       25.4640   10.3270   32.0030 C.3   300  5GP300      0.2158
     10  O3'       24.9840   11.5970   31.5660 O.3   300  5GP300     -0.2175
     11  C2'       24.3180    9.3540   31.9740 C.3   300  5GP300      0.2310
     12  O2'       23.0920    9.9620   32.3940 O.3   300  5GP300     -0.2158
     13  C1'       24.3070    8.8400   30.5250 C.3   300  5GP300      0.2293
     14  N9        24.2730    7.3760   30.6790 N.pl3 300  5GP300     -0.2354
     15  C8        25.2350    6.5870   31.2100 C.3   300  5GP300      0.2246
     16  N7        24.8140    5.3050   31.1840 N.2   300  5GP300     -0.2322
     17  C5        23.5690    5.3090   30.6540 C.2   300  5GP300      0.2182
     18  C6        22.6410    4.3170   30.3980 C.1   300  5GP300      0.2372
     19  O6        22.9300    3.1390   30.6870 O.2   300  5GP300     -0.2069
     20  N1        21.4600    4.6360   29.8370 N.2   300  5GP300     -0.2485
     21  C2        21.1580    5.9070   29.5340 C.1   300  5GP300      0.2531
     22  N2        19.9640    6.2100   28.9950 N.pl3 300  5GP300     -0.0226
     23  N3        22.0310    6.9000   29.7660 N.2   300  5GP300     -0.3074
     24  C4        23.2350    6.6170   30.3330 C.2   300  5GP300      0.2300
@<TRIPOS>BOND
     1    22    21    1
     2     3     1    2
     3    21    23    2
     4    21    20    2
     5    23    24    2
     6    20    18    2
     7     8    13    1
     8     8     7    1
     9    24    17    1
    10    24    14    1
    11    18    17    1
    12    18    19    2
    13    13    14    1
    14    13    11    1
    15     6     7    1
    16     6     5    1
    17    17    16    2
    18    14    15    1
    19     7     9    1
    20     1     5    1
    21     1     4    1
    22     1     2    1
    23    16    15    1
    24    10     9    1
    25    11     9    1
    26    11    12    1
