@<TRIPOS>MOLECULE
1zny_GDP_A_1.pdb
 28 30 0 0 0
SMALL
GASTEIGER

@<TRIPOS>ATOM
      1  PB        28.1470    9.2470   34.4000 P.3   300  GDP300      0.5373
      2  O1B       27.5380   10.5600   34.1030 O.3   300  GDP300     -0.1143
      3  O2B       27.4440    8.0760   33.6900 O.2   300  GDP300     -0.2221
      4  O3B       28.0390    8.9720   35.9190 O.3   300  GDP300     -0.1143
      5  O3A       29.7010    9.3270   33.9640 O.3   300  GDP300     -0.2261
      6  PA        30.1750    9.5350   32.4270 P.3   300  GDP300      0.2231
      7  O1A       31.1490    8.4160   32.2830 O.2   300  GDP300     -0.5169
      8  O2A       30.7970   10.9560   32.3040 O.3   300  GDP300     -0.4370
      9  O5'       28.8040    9.3910   31.5020 O.3   300  GDP300     -0.3111
     10  C5'       28.0450   10.5400   31.0800 C.3   300  GDP300      0.1813
     11  C4'       26.5150   10.4340   30.7540 C.3   300  GDP300      0.1799
     12  O4'       26.0500    9.2050   30.1840 O.3   300  GDP300     -0.3326
     13  C3'       25.5710   10.7240   31.9350 C.3   300  GDP300      0.2158
     14  O3'       24.7610   11.8320   31.6660 O.3   300  GDP300     -0.2175
     15  C2'       24.6800    9.5040   32.0920 C.3   300  GDP300      0.2310
     16  O2'       23.3450    9.8130   32.4410 O.3   300  GDP300     -0.2158
     17  C1'       24.7820    8.8490   30.7260 C.3   300  GDP300      0.2293
     18  N9        24.6570    7.4000   30.9250 N.pl3 300  GDP300     -0.2354
     19  C8        25.5870    6.5570   31.5090 C.3   300  GDP300      0.2246
     20  N7        25.0850    5.3110   31.4840 N.2   300  GDP300     -0.2322
     21  C5        23.8500    5.3430   30.9370 C.2   300  GDP300      0.2182
     22  C6        22.9080    4.3560   30.6830 C.1   300  GDP300      0.2372
     23  O6        23.1110    3.1890   31.0180 O.2   300  GDP300     -0.2069
     24  N1        21.7190    4.7080   30.0740 N.2   300  GDP300     -0.2485
     25  C2        21.4510    6.0180   29.7030 C.1   300  GDP300      0.2531
     26  N2        20.1970    6.3670   29.4770 N.pl3 300  GDP300     -0.0226
     27  N3        22.3860    6.9980   29.9610 N.2   300  GDP300     -0.3074
     28  C4        23.5660    6.6590   30.5650 C.2   300  GDP300      0.2300
@<TRIPOS>BOND
     1    26    25    1
     2    25    27    2
     3    25    24    2
     4    27    28    2
     5    24    22    2
     6    12    17    1
     7    12    11    1
     8    28    18    1
     9    28    21    1
    10    22    21    1
    11    22    23    2
    12    17    18    1
    13    17    15    1
    14    11    10    1
    15    11    13    1
    16    18    19    1
    17    21    20    2
    18    10     9    1
    19    20    19    1
    20     9     6    1
    21    14    13    1
    22    13    15    1
    23    15    16    1
    24     7     6    2
    25     8     6    1
    26     6     5    1
    27     3     1    2
    28     5     1    1
    29     2     1    1
    30     1     4    1
