@<TRIPOS>MOLECULE
1znz_GDP_A_1.pdb
 28 30 0 0 0
SMALL
GASTEIGER

@<TRIPOS>ATOM
      1  PB        27.8460    9.3610   34.2250 P.3   300  GDP300      0.5373
      2  O1B       27.1940   10.7040   34.3070 O.3   300  GDP300     -0.1143
      3  O2B       27.1100    8.5050   33.1770 O.2   300  GDP300     -0.2221
      4  O3B       27.7550    8.5500   35.5560 O.3   300  GDP300     -0.1143
      5  O3A       29.4320    9.5670   33.8730 O.3   300  GDP300     -0.2261
      6  PA        29.9760    9.8160   32.3440 P.3   300  GDP300      0.2231
      7  O1A       30.9760    8.7070   32.1310 O.2   300  GDP300     -0.5169
      8  O2A       30.5390   11.2890   32.2670 O.3   300  GDP300     -0.4370
      9  O5'       28.5790    9.6710   31.4030 O.3   300  GDP300     -0.3111
     10  C5'       27.7170   10.7940   31.0600 C.3   300  GDP300      0.1813
     11  C4'       26.1820   10.5830   30.8500 C.3   300  GDP300      0.1799
     12  O4'       25.8370    9.3620   30.1810 O.3   300  GDP300     -0.3326
     13  C3'       25.3080   10.6220   32.1390 C.3   300  GDP300      0.2158
     14  O3'       24.7320   11.8670   32.4520 O.3   300  GDP300     -0.2175
     15  C2'       24.2080    9.5890   31.9810 C.3   300  GDP300      0.2310
     16  O2'       22.8980   10.1230   32.0700 O.3   300  GDP300     -0.2158
     17  C1'       24.5280    8.9640   30.6210 C.3   300  GDP300      0.2293
     18  N9        24.4590    7.5090   30.8150 N.pl3 300  GDP300     -0.2354
     19  C8        25.4240    6.6930   31.3960 C.3   300  GDP300      0.2246
     20  N7        24.9510    5.4240   31.3800 N.2   300  GDP300     -0.2322
     21  C5        23.7050    5.4260   30.7880 C.2   300  GDP300      0.2182
     22  C6        22.7570    4.4190   30.5050 C.1   300  GDP300      0.2372
     23  O6        22.9620    3.2290   30.7650 O.2   300  GDP300     -0.2069
     24  N1        21.5620    4.7560   29.8780 N.2   300  GDP300     -0.2485
     25  C2        21.2810    6.0610   29.5490 C.1   300  GDP300      0.2531
     26  N2        20.2310    6.2650   28.8100 N.pl3 300  GDP300     -0.0226
     27  N3        22.1850    7.0660   29.8270 N.2   300  GDP300     -0.3074
     28  C4        23.3870    6.7440   30.4260 C.2   300  GDP300      0.2300
@<TRIPOS>BOND
     1    26    25    1
     2    25    27    2
     3    25    24    2
     4    27    28    2
     5    24    22    2
     6    12    17    1
     7    12    11    1
     8    28    21    1
     9    28    18    1
    10    22    23    2
    11    22    21    1
    12    17    18    1
    13    17    15    1
    14    21    20    2
    15    18    19    1
    16    11    10    1
    17    11    13    1
    18    10     9    1
    19    20    19    1
    20     9     6    1
    21    15    16    1
    22    15    13    1
    23     7     6    2
    24    13    14    1
    25     8     6    1
    26     6     5    1
    27     3     1    2
    28     5     1    1
    29     1     2    1
    30     1     4    1
