@<TRIPOS>MOLECULE
1zo4_HEM_A_1.pdb
 43 50 0 0 0
SMALL
GASTEIGER

@<TRIPOS>ATOM
      1  CHA       55.4500   65.3750   43.7210 C.2   471  HEM471      0.0000
      2  CHB       50.6340   65.4430   44.1710 C.2   471  HEM471      0.0000
      3  CHC       50.9150   69.4790   46.8250 C.2   471  HEM471      0.0000
      4  CHD       55.6990   69.5590   46.1700 C.2   471  HEM471      0.0000
      5  C1A       54.1090   65.0060   43.6250 C.ar  471  HEM471      0.0000
      6  C2A       53.6070   63.8330   42.9230 C.ar  471  HEM471      0.0000
      7  C3A       52.2410   63.8860   43.0210 C.ar  471  HEM471      0.0000
      8  C4A       51.9310   65.0580   43.8160 C.ar  471  HEM471      0.0000
      9  CMA       51.2200   62.9370   42.4300 C.3   471  HEM471      0.0000
     10  CAA       54.4350   62.7790   42.1900 C.3   471  HEM471      0.0000
     11  CBA       54.6980   63.1820   40.7150 C.3   471  HEM471      0.0000
     12  CGA       55.3290   62.2290   39.8500 C.2   471  HEM471      0.0000
     13  O1A       55.4340   61.0120   40.2470 O.co2 471  HEM471      0.0000
     14  O2A       55.7930   62.5710   38.7370 O.co2 471  HEM471      0.0000
     15  C1B       50.2940   66.5400   44.9370 C.2   471  HEM471      0.0000
     16  C2B       48.9260   66.8700   45.3200 C.2   471  HEM471      0.0000
     17  C3B       49.0060   68.0080   46.0870 C.2   471  HEM471      0.0000
     18  C4B       50.4120   68.3710   46.1530 C.2   471  HEM471      0.0000
     19  CMB       47.7260   66.0420   44.9120 C.3   471  HEM471      0.0000
     20  CAB       47.9250   68.8230   46.7780 C.3   471  HEM471      0.0000
     21  CBB       46.7940   68.0510   47.4600 C.3   471  HEM471      0.0000
     22  C1C       52.2550   69.8590   46.9070 C.ar  471  HEM471      0.0000
     23  C2C       52.7390   71.0180   47.6150 C.ar  471  HEM471      0.0000
     24  C3C       54.1000   71.0480   47.4200 C.ar  471  HEM471      0.0000
     25  C4C       54.4220   69.8980   46.6060 C.ar  471  HEM471      0.0000
     26  CMC       51.8460   71.9570   48.3940 C.3   471  HEM471      0.0000
     27  CAC       55.1500   72.0490   47.9330 C.3   471  HEM471      0.0000
     28  CBC       54.9450   72.5690   49.3900 C.3   471  HEM471      0.0000
     29  C1D       56.0480   68.4260   45.4220 C.2   471  HEM471      0.0000
     30  C2D       57.4020   68.1090   45.0180 C.2   471  HEM471      0.0000
     31  C3D       57.3350   66.9300   44.3910 C.2   471  HEM471      0.0000
     32  C4D       55.9240   66.5310   44.3430 C.2   471  HEM471      0.0000
     33  CMD       58.5990   68.9800   45.3230 C.3   471  HEM471      0.0000
     34  CAD       58.4540   66.0950   43.8310 C.3   471  HEM471      0.0000
     35  CBD       59.1190   65.1990   44.9960 C.3   471  HEM471      0.0000
     36  CGD       60.2390   64.4160   44.5270 C.2   471  HEM471      0.0000
     37  O1D       61.3270   64.3890   45.1840 O.co2 471  HEM471      0.0000
     38  O2D       60.1690   63.7400   43.4810 O.co2 471  HEM471      0.0000
     39  NA        53.0710   65.7320   44.1860 N.ar  471  HEM471      0.0000
     40  NB        51.1960   67.4500   45.4650 N.2   471  HEM471      0.0000
     41  NC        53.3040   69.1560   46.3260 N.ar  471  HEM471      0.0000
     42  ND        55.1610   67.4610   45.0090 N.2   471  HEM471      0.0000
     43 FE         53.1820   67.4050   45.3410 Fe    471  HEM471      0.0000
@<TRIPOS>BOND
     1    14    12   ar
     2    12    13   ar
     3    12    11    1
     4    11    10    1
     5    10     6    1
     6     9     7    1
     7     6     7   ar
     8     6     5   ar
     9     7     8   ar
    10    38    36   ar
    11     5     1    2
    12     5    39   ar
    13     1    32    1
    14     8     2    2
    15     8    39   ar
    16    34    31    1
    17    34    35    1
    18     2    15    1
    19    39    43    1
    20    32    31    1
    21    32    42    2
    22    31    30    2
    23    36    35    1
    24    36    37   ar
    25    19    16    1
    26    15    16    1
    27    15    40    2
    28    42    43    1
    29    42    29    1
    30    30    33    1
    31    30    29    1
    32    16    17    2
    33    43    40    1
    34    43    41    1
    35    29     4    2
    36    40    18    1
    37    17    18    1
    38    17    20    1
    39    18     3    2
    40     4    25    1
    41    41    25   ar
    42    41    22   ar
    43    25    24   ar
    44    20    21    1
    45     3    22    1
    46    22    23   ar
    47    24    23   ar
    48    24    27    1
    49    23    26    1
    50    27    28    1
