@<TRIPOS>MOLECULE
1zo8_SNO_A_1.pdb
 12 13 0 0 0
SMALL
GASTEIGER

@<TRIPOS>ATOM
      1  C1        22.8790   54.2570   58.3450 C.ar  5002  SNO5002     0.1429
      2  C2        23.0200   53.0910   57.5890 C.ar  5002  SNO5002     0.0238
      3  C3        24.1840   52.3160   57.7480 C.ar  5002  SNO5002    -0.0002
      4  C4        25.1990   52.6950   58.6520 C.ar  5002  SNO5002     0.0071
      5  C5        25.0280   53.8730   59.4050 C.ar  5002  SNO5002    -0.0002
      6  C6        23.8690   54.6610   59.2560 C.ar  5002  SNO5002     0.0238
      7  C7        26.4380   51.8780   58.8340 C.3   5002  SNO5002     0.1670
      8  C8        26.4700   50.4850   58.4350 C.3   5002  SNO5002     0.1765
      9  N1        21.6480   55.0910   58.1790 N.pl3 5002  SNO5002     0.0577
     10  O1        20.7970   54.7180   57.3760 O.2   5002  SNO5002    -0.1261
     11  O2        21.5310   56.1190   58.8520 O.2   5002  SNO5002    -0.1261
     12  O3        27.1710   51.4710   57.6670 O.3   5002  SNO5002    -0.3463
@<TRIPOS>BOND
     1    10     9    2
     2     2     3   ar
     3     2     1   ar
     4    12     8    1
     5    12     7    1
     6     3     4   ar
     7     9     1    1
     8     9    11    2
     9     1     6   ar
    10     8     7    1
    11     4     7    1
    12     4     5   ar
    13     6     5   ar
