@<TRIPOS>MOLECULE
1zo9_HEM_A_1.pdb
 43 50 0 0 0
SMALL
GASTEIGER

@<TRIPOS>ATOM
      1  CHA       22.7380    3.1940   12.1180 C.2   471  HEM471      0.0000
      2  CHB       17.9140    3.0210   11.7240 C.2   471  HEM471      0.0000
      3  CHC       18.2280   -1.2650    9.4710 C.2   471  HEM471      0.0000
      4  CHD       23.0410   -1.2730   10.1980 C.2   471  HEM471      0.0000
      5  C1A       21.3750    3.5630   12.1520 C.2   471  HEM471      0.0000
      6  C2A       20.8720    4.7840   12.7160 C.2   471  HEM471      0.0000
      7  C3A       19.5130    4.7300   12.6430 C.2   471  HEM471      0.0000
      8  C4A       19.1930    3.4690   11.9890 C.2   471  HEM471      0.0000
      9  CMA       18.5070    5.7510   13.1350 C.3   471  HEM471      0.0000
     10  CAA       21.7250    5.9050   13.3100 C.3   471  HEM471      0.0000
     11  CBA       21.8970    5.7750   14.8500 C.3   471  HEM471      0.0000
     12  CGA       22.4930    6.9010   15.5210 C.2   471  HEM471      0.0000
     13  O1A       22.7560    6.7150   16.7690 O.co2 471  HEM471      0.0000
     14  O2A       22.7580    8.0070   14.9550 O.co2 471  HEM471      0.0000
     15  C1B       17.5760    1.8070   11.0860 C.ar  471  HEM471      0.0000
     16  C2B       16.2130    1.3970   10.8270 C.ar  471  HEM471      0.0000
     17  C3B       16.2940    0.2010   10.1790 C.ar  471  HEM471      0.0000
     18  C4B       17.7140   -0.1090   10.0690 C.ar  471  HEM471      0.0000
     19  CMB       14.9760    2.2190   11.2250 C.3   471  HEM471      0.0000
     20  CAB       15.1940   -0.7020    9.6660 C.3   471  HEM471      0.0000
     21  CBB       14.0340   -0.0170    8.9170 C.3   471  HEM471      0.0000
     22  C1C       19.5600   -1.6180    9.4140 C.2   471  HEM471      0.0000
     23  C2C       20.0650   -2.8620    8.8020 C.2   471  HEM471      0.0000
     24  C3C       21.4360   -2.8500    9.0430 C.2   471  HEM471      0.0000
     25  C4C       21.7460   -1.6310    9.7590 C.2   471  HEM471      0.0000
     26  CMC       19.1540   -3.9020    8.1030 C.3   471  HEM471      0.0000
     27  CAC       22.5300   -3.8940    8.6750 C.3   471  HEM471      0.0000
     28  CBC       22.3210   -4.6040    7.3440 C.3   471  HEM471      0.0000
     29  C1D       23.3790   -0.0450   10.8340 C.ar  471  HEM471      0.0000
     30  C2D       24.7370    0.3150   11.2670 C.ar  471  HEM471      0.0000
     31  C3D       24.6530    1.5490   11.7280 C.ar  471  HEM471      0.0000
     32  C4D       23.2300    1.9580   11.6630 C.ar  471  HEM471      0.0000
     33  CMD       25.9580   -0.5980   11.1390 C.3   471  HEM471      0.0000
     34  CAD       25.7560    2.4530   12.2380 C.3   471  HEM471      0.0000
     35  CBD       26.4190    3.1920   10.9620 C.3   471  HEM471      0.0000
     36  CGD       27.5580    4.0160   11.2800 C.2   471  HEM471      0.0000
     37  O1D       27.4640    4.9240   12.1770 O.co2 471  HEM471      0.0000
     38  O2D       28.6300    3.8810   10.6520 O.co2 471  HEM471      0.0000
     39  NA        20.3520    2.7790   11.6750 N.2   471  HEM471      0.0000
     40  NB        18.4830    0.8700   10.6160 N.ar  471  HEM471      0.0000
     41  NC        20.6200   -0.8470    9.9370 N.2   471  HEM471      0.0000
     42  ND        22.4820    0.9610   11.0990 N.ar  471  HEM471      0.0000
     43 FE         20.5090    0.9500   10.7030 Fe    471  HEM471      0.0000
@<TRIPOS>BOND
     1    28    27    1
     2    26    23    1
     3    27    24    1
     4    23    24    2
     5    23    22    1
     6    21    20    1
     7    24    25    1
     8    22     3    2
     9    22    41    1
    10     3    18    1
    11    20    17    1
    12    25    41    2
    13    25     4    1
    14    41    43    1
    15    18    17   ar
    16    18    40   ar
    17    17    16   ar
    18     4    29    2
    19    40    43    1
    20    40    15   ar
    21    38    36   ar
    22    43    42    1
    23    43    39    1
    24    16    15   ar
    25    16    19    1
    26    29    42   ar
    27    29    30   ar
    28    35    36    1
    29    35    34    1
    30    15     2    1
    31    42    32   ar
    32    33    30    1
    33    30    31   ar
    34    36    37   ar
    35    32    31   ar
    36    32     1    2
    37    39     8    1
    38    39     5    2
    39     2     8    2
    40    31    34    1
    41     8     7    1
    42     1     5    1
    43     5     6    1
    44     7     6    2
    45     7     9    1
    46     6    10    1
    47    10    11    1
    48    11    12    1
    49    14    12   ar
    50    12    13   ar
