@<TRIPOS>MOLECULE
1zo9_EPM_A_1.pdb
 26 25 0 0 0
SMALL
GASTEIGER

@<TRIPOS>ATOM
      1  C1        19.8650    8.4260   26.8110 C.2   1470  EPM1470     0.3842
      2  O1        19.9990    7.2230   26.5520 O.co2 1470  EPM1470    -0.2437
      3  O2        20.8330    9.1670   26.9900 O.co2 1470  EPM1470    -0.2437
      4  C2        18.3780    9.0110   26.8990 C.3   1470  EPM1470     0.1986
      5  C3        18.0840    9.3970   28.3490 C.3   1470  EPM1470     0.0449
      6  C4        18.9460   10.5360   28.8580 C.3   1470  EPM1470     0.0599
      7  S1        18.5870   10.9560   30.5790 S.3   1470  EPM1470    -0.1393
      8  C5        19.6230    9.7540   31.4260 C.3   1470  EPM1470     0.0692
      9  N         17.4310    7.9410   26.5940 N.am  1470  EPM1470    -0.1956
     10  C6        16.3150    8.1740   25.9420 C.2   1470  EPM1470     0.2418
     11  O3        15.9750    9.3110   25.5730 O.2   1470  EPM1470    -0.2733
     12  C7        15.4290    6.9590   25.5840 C.3   1470  EPM1470     0.0868
     13  C8        16.2110    5.8700   24.7940 C.3   1470  EPM1470     0.0096
     14  C9        16.1690    6.0310   23.2800 C.3   1470  EPM1470     0.0005
     15  C10       16.9620    4.9250   22.6180 C.3   1470  EPM1470     0.0000
     16  C11       16.8910    5.0990   21.1550 C.3   1470  EPM1470     0.0003
     17  C12       16.8420    3.8140   20.4250 C.3   1470  EPM1470     0.0047
     18  C13       18.1430    3.6500   19.7630 C.3   1470  EPM1470     0.0257
     19  C14       18.3210    2.3960   18.9390 C.2   1470  EPM1470    -0.0307
     20  C15       19.4020    1.4760   19.3920 C.2   1470  EPM1470    -0.0307
     21  C16       19.7670    0.1950   18.6910 C.3   1470  EPM1470     0.0257
     22  C17       20.8810   -0.4820   19.4030 C.3   1470  EPM1470     0.0047
     23  C18       21.4650   -1.6140   18.5750 C.3   1470  EPM1470     0.0003
     24  C19       22.9400   -1.5020   18.5820 C.3   1470  EPM1470     0.0000
     25  C20       23.5750   -2.5980   17.8040 C.3   1470  EPM1470     0.0000
     26  C21       25.0340   -2.5070   17.8380 C.3   1470  EPM1470     0.0000
@<TRIPOS>BOND
     1    25    26    1
     2    25    24    1
     3    23    24    1
     4    23    22    1
     5    21    20    1
     6    21    22    1
     7    19    20    2
     8    19    18    1
     9    18    17    1
    10    17    16    1
    11    16    15    1
    12    15    14    1
    13    14    13    1
    14    13    12    1
    15    11    10    2
    16    12    10    1
    17    10     9   am
    18     2     1   ar
    19     9     4    1
    20     1     4    1
    21     1     3   ar
    22     4     5    1
    23     5     6    1
    24     6     7    1
    25     7     8    1
