@<TRIPOS>MOLECULE
1zoa_HEM_A_1.pdb
 43 50 0 0 0
SMALL
GASTEIGER

@<TRIPOS>ATOM
      1  CHA       22.9340    3.1380   11.9750 C.2   471  HEM471      0.0000
      2  CHB       18.0730    3.0070   11.6040 C.2   471  HEM471      0.0000
      3  CHC       18.3420   -1.3880    9.5000 C.2   471  HEM471      0.0000
      4  CHD       23.1480   -1.4360   10.2610 C.2   471  HEM471      0.0000
      5  C1A       21.5880    3.5190   12.0050 C.2   471  HEM471      0.0000
      6  C2A       21.0930    4.7550   12.5340 C.2   471  HEM471      0.0000
      7  C3A       19.7290    4.7070   12.4620 C.2   471  HEM471      0.0000
      8  C4A       19.3990    3.4440   11.8570 C.2   471  HEM471      0.0000
      9  CMA       18.7030    5.7580   12.9270 C.3   471  HEM471      0.0000
     10  CAA       21.9290    5.8710   13.1030 C.3   471  HEM471      0.0000
     11  CBA       22.1350    5.7260   14.6350 C.3   471  HEM471      0.0000
     12  CGA       22.7480    6.8640   15.3140 C.2   471  HEM471      0.0000
     13  O1A       23.0060    6.6850   16.5530 O.co2 471  HEM471      0.0000
     14  O2A       23.0120    7.9400   14.7790 O.co2 471  HEM471      0.0000
     15  C1B       17.7450    1.7760   11.0010 C.ar  471  HEM471      0.0000
     16  C2B       16.3970    1.3710   10.7260 C.ar  471  HEM471      0.0000
     17  C3B       16.4680    0.1370   10.1200 C.ar  471  HEM471      0.0000
     18  C4B       17.8560   -0.1960   10.0400 C.ar  471  HEM471      0.0000
     19  CMB       15.1860    2.2210   11.0590 C.3   471  HEM471      0.0000
     20  CAB       15.3420   -0.7890    9.6150 C.3   471  HEM471      0.0000
     21  CBB       14.2870   -0.1540    8.7500 C.3   471  HEM471      0.0000
     22  C1C       19.6800   -1.7720    9.4790 C.2   471  HEM471      0.0000
     23  C2C       20.1750   -3.0470    8.9550 C.2   471  HEM471      0.0000
     24  C3C       21.5140   -3.0350    9.2080 C.2   471  HEM471      0.0000
     25  C4C       21.8460   -1.7850    9.8400 C.2   471  HEM471      0.0000
     26  CMC       19.2930   -4.1560    8.2970 C.3   471  HEM471      0.0000
     27  CAC       22.5530   -4.1360    8.9110 C.3   471  HEM471      0.0000
     28  CBC       22.5470   -4.5970    7.4430 C.3   471  HEM471      0.0000
     29  C1D       23.5190   -0.1750   10.8300 C.ar  471  HEM471      0.0000
     30  C2D       24.8450    0.1440   11.2400 C.ar  471  HEM471      0.0000
     31  C3D       24.8100    1.4230   11.6480 C.ar  471  HEM471      0.0000
     32  C4D       23.4030    1.8820   11.5640 C.ar  471  HEM471      0.0000
     33  CMD       26.0260   -0.8210   11.1690 C.3   471  HEM471      0.0000
     34  CAD       25.9670    2.2880   12.1220 C.3   471  HEM471      0.0000
     35  CBD       26.5490    3.0790   10.8580 C.3   471  HEM471      0.0000
     36  CGD       27.7200    3.8390   11.1830 C.2   471  HEM471      0.0000
     37  O1D       27.6430    4.7560   12.0400 O.co2 471  HEM471      0.0000
     38  O2D       28.8010    3.6050   10.6060 O.co2 471  HEM471      0.0000
     39  NA        20.5360    2.7280   11.5580 N.2   471  HEM471      0.0000
     40  NB        18.6480    0.8280   10.5710 N.ar  471  HEM471      0.0000
     41  NC        20.7460   -0.9850    9.9660 N.2   471  HEM471      0.0000
     42  ND        22.6400    0.8880   11.0410 N.ar  471  HEM471      0.0000
     43 FE         20.6670    0.9170   10.6440 Fe    471  HEM471      0.0000
@<TRIPOS>BOND
     1    28    27    1
     2    26    23    1
     3    21    20    1
     4    27    24    1
     5    23    24    2
     6    23    22    1
     7    24    25    1
     8    22     3    2
     9    22    41    1
    10     3    18    1
    11    20    17    1
    12    25    41    2
    13    25     4    1
    14    41    43    1
    15    18    17   ar
    16    18    40   ar
    17    17    16   ar
    18     4    29    2
    19    40    43    1
    20    40    15   ar
    21    38    36   ar
    22    43    42    1
    23    43    39    1
    24    16    15   ar
    25    16    19    1
    26    29    42   ar
    27    29    30   ar
    28    35    36    1
    29    35    34    1
    30    15     2    1
    31    42    32   ar
    32    33    30    1
    33    36    37   ar
    34    30    31   ar
    35    39     8    1
    36    39     5    2
    37    32    31   ar
    38    32     1    2
    39     2     8    2
    40    31    34    1
    41     8     7    1
    42     1     5    1
    43     5     6    1
    44     7     6    2
    45     7     9    1
    46     6    10    1
    47    10    11    1
    48    11    12    1
    49    14    12   ar
    50    12    13   ar
