@<TRIPOS>MOLECULE
1zoa_140_A_1.pdb
 22 21 0 0 0
SMALL
GASTEIGER

@<TRIPOS>ATOM
      1  C1        19.9410    8.3360   26.4070 C.2   1470  1401470     0.3865
      2  O1        20.1130    7.1760   26.1110 O.co2 1470  1401470    -0.2437
      3  O2        20.8670    9.1110   26.6420 O.co2 1470  1401470    -0.2437
      4  C2        18.4700    8.8620   26.4970 C.3   1470  1401470     0.2284
      5  N         17.5010    7.8140   26.1890 N.am  1470  1401470    -0.1932
      6  C3        16.3680    8.0640   25.5900 C.2   1470  1401470     0.2419
      7  O3        16.0190    9.2090   25.2330 O.2   1470  1401470    -0.2733
      8  C4        15.4500    6.8710   25.3170 C.3   1470  1401470     0.0868
      9  C5        16.0760    5.7640   24.4570 C.3   1470  1401470     0.0096
     10  C6        16.4380    6.2560   23.0620 C.3   1470  1401470     0.0005
     11  C7        16.8510    5.1300   22.1460 C.3   1470  1401470     0.0000
     12  C8        18.3080    5.3000   21.8480 C.3   1470  1401470     0.0000
     13  C9        18.6990    4.8350   20.4930 C.3   1470  1401470     0.0000
     14  C10       18.4370    3.3550   20.3050 C.3   1470  1401470     0.0000
     15  C11       19.5720    2.6730   19.6280 C.3   1470  1401470     0.0000
     16  C12       19.1680    1.2470   19.5230 C.3   1470  1401470     0.0000
     17  C13       19.8760    0.5620   18.4340 C.3   1470  1401470     0.0000
     18  C14       20.2900   -0.7880   18.7840 C.3   1470  1401470     0.0000
     19  C15       21.2920   -1.3100   17.7620 C.3   1470  1401470     0.0000
     20  C16       22.5430   -1.7820   18.4480 C.3   1470  1401470     0.0000
     21  C17       23.5460   -2.2990   17.4720 C.3   1470  1401470     0.0000
     22  C18       24.7510   -2.7820   18.1670 C.3   1470  1401470     0.0000
@<TRIPOS>BOND
     1    21    22    1
     2    21    20    1
     3    19    20    1
     4    19    18    1
     5    17    18    1
     6    17    16    1
     7    16    15    1
     8    15    14    1
     9    14    13    1
    10    13    12    1
    11    12    11    1
    12    11    10    1
    13    10     9    1
    14     9     8    1
    15     7     6    2
    16     8     6    1
    17     6     5   am
    18     2     1   ar
    19     5     4    1
    20     1     4    1
    21     1     3   ar
