@<TRIPOS>MOLECULE
1zob_PLP_A_1.pdb
 15 15 0 0 0
SMALL
GASTEIGER

@<TRIPOS>ATOM
      1  N1        17.6990   52.5650   13.2140 N.ar  434  PLP434     -0.2452
      2  C2        16.4460   52.7340   13.6970 C.ar  434  PLP434      0.0978
      3  C2A       15.5210   53.7210   13.0490 C.3   434  PLP434      0.0555
      4  C3        16.0080   51.9950   14.8190 C.ar  434  PLP434      0.2049
      5  O3        14.7190   52.1740   15.3060 O.3   434  PLP434     -0.2857
      6  C4        16.8900   51.0590   15.4270 C.ar  434  PLP434      0.0182
      7  C4A       16.3890   50.2810   16.6230 C.3   434  PLP434      0.0342
      8  C5        18.2240   50.9130   14.8850 C.ar  434  PLP434      0.0261
      9  C6        18.5710   51.6920   13.7620 C.ar  434  PLP434      0.0965
     10  C5A       19.2890   49.9650   15.4530 C.3   434  PLP434      0.1815
     11  O4P       19.1170   48.5720   15.1740 O.3   434  PLP434     -0.2653
     12  P         20.2500   47.7420   15.8850 P.3   434  PLP434      0.5329
     13  O1P       20.0290   46.2450   15.5640 O.3   434  PLP434     -0.1145
     14  O2P       21.6510   48.1860   15.3690 O.2   434  PLP434     -0.2224
     15  O3P       20.1750   47.9560   17.4290 O.3   434  PLP434     -0.1145
@<TRIPOS>BOND
     1     3     2    1
     2     1     2   ar
     3     1     9   ar
     4     2     4   ar
     5     9     8   ar
     6     4     5    1
     7     4     6   ar
     8     8     6   ar
     9     8    10    1
    10    11    10    1
    11    11    12    1
    12    14    12    2
    13     6     7    1
    14    13    12    1
    15    12    15    1
