@<TRIPOS>MOLECULE
1zod_PLP_A_1.pdb
 15 15 0 0 0
SMALL
GASTEIGER

@<TRIPOS>ATOM
      1  N1        17.1140   52.5730   13.5820 N.2   437  PLP437     -0.2505
      2  C2        15.8970   52.6650   14.2670 C.2   437  PLP437      0.0675
      3  C2A       14.9420   53.7310   13.7550 C.3   437  PLP437      0.0499
      4  C3        15.6460   51.8300   15.3800 C.3   437  PLP437      0.1913
      5  O3        14.5320   52.0980   16.1520 O.3   437  PLP437     -0.2167
      6  C4        16.6310   50.9480   15.7700 C.3   437  PLP437      0.0581
      7  C4A       16.2570   49.7520   16.5700 C.3   437  PLP437      0.0075
      8  C5        17.8930   50.9390   15.1850 C.2   437  PLP437      0.0073
      9  C6        18.1500   51.6480   13.9930 C.2   437  PLP437      0.0921
     10  C5A       19.1300   50.1190   15.7510 C.3   437  PLP437      0.1776
     11  O4P       18.9990   48.7380   15.3380 O.3   437  PLP437     -0.2656
     12  P         19.9370   47.7100   16.2370 P.3   437  PLP437      0.5329
     13  O1P       19.5320   46.2740   15.7030 O.2   437  PLP437     -0.2224
     14  O2P       21.4060   48.1230   15.8860 O.3   437  PLP437     -0.1145
     15  O3P       19.5430   48.0200   17.6230 O.3   437  PLP437     -0.1145
@<TRIPOS>BOND
     1     1     9    1
     2     1     2    2
     3     3     2    1
     4     9     8    2
     5     2     4    1
     6     8    10    1
     7     8     6    1
     8    11    10    1
     9    11    12    1
    10     4     6    1
    11     4     5    1
    12    13    12    2
    13     6     7    1
    14    14    12    1
    15    12    15    1
