@<TRIPOS>MOLECULE
1zoe_K25_A_1.pdb
 16 17 0 0 0
SMALL
GASTEIGER

@<TRIPOS>ATOM
      1  C2        21.5230    8.7540   19.1040 C.ar  501  K25501      0.0501
      2  C3        21.2850    8.2590   20.4050 C.ar  501  K25501      0.0501
      3  C4        21.9770    7.1270   20.8560 C.ar  501  K25501      0.0743
      4  C5        22.4150    8.1090   18.2350 C.ar  501  K25501      0.0743
      5  N6        23.7040    5.4130   20.1850 N.2   501  K25501     -0.3249
      6  C7        23.1510    6.9840   18.7000 C.ar  501  K25501      0.1824
      7  C8        22.8900    6.5180   19.9860 C.ar  501  K25501      0.1824
      8  C13       24.3470    5.1960   19.0140 C.1   501  K25501      0.2030
      9  N14       24.1090    6.2160   18.1670 N.2   501  K25501     -0.3249
     10  N15       25.2790    4.1620   18.9040 N.pl3 501  K25501     -0.2306
     11  C16       25.4880    3.2670   20.0070 C.3   501  K25501      0.1254
     12  C17       25.9890    3.9590   17.6710 C.3   501  K25501      0.1254
     13 BR1        20.4670   10.2030   18.4730 Br    501  K25501     -0.0479
     14 BR9        19.9810    9.0580   21.5580 Br    501  K25501     -0.0479
     15 BR10       21.8520    6.4120   22.6210 Br    501  K25501     -0.0457
     16 BR11       22.9250    8.8690   16.5740 Br    501  K25501     -0.0457
@<TRIPOS>BOND
     1    16     4    1
     2    12    10    1
     3     9     6    2
     4     9     8    2
     5     4     6   ar
     6     4     1   ar
     7    13     1    1
     8     6     7   ar
     9    10     8    1
    10    10    11    1
    11     8     5    2
    12     1     2   ar
    13     7     5    2
    14     7     3   ar
    15     2     3   ar
    16     2    14    1
    17     3    15    1
