@<TRIPOS>MOLECULE
1zog_K37_A_1.pdb
 15 16 0 0 0
SMALL
GASTEIGER

@<TRIPOS>ATOM
      1  C1        20.9600    9.1930   18.5010 C.ar  501  K37501      0.0501
      2  C2        21.9310    8.5560   17.7260 C.ar  501  K37501      0.0501
      3  C3        22.6080    7.4250   18.1930 C.ar  501  K37501      0.0743
      4  C4        20.6440    8.6960   19.7670 C.ar  501  K37501      0.0743
      5  N5        21.1980    6.9500   21.3680 N.2   501  K37501     -0.3317
      6  C6        21.3060    7.5620   20.2050 C.ar  501  K37501      0.1817
      7  C7        22.2660    6.9450   19.4510 C.ar  501  K37501      0.1817
      8  N8        22.7710    5.9460   20.1570 N.2   501  K37501     -0.3317
      9  C9        22.0990    5.9620   21.3120 C.1   501  K37501      0.1684
     10  S         22.2580    4.7780   22.6140 S.3   501  K37501     -0.0172
     11  C11       22.6190    3.1510   21.9020 C.3   501  K37501      0.0872
     12 BR10       19.3860    9.5760   20.8750 Br    501  K37501     -0.0457
     13 BR11       19.9870   10.6940   17.8530 Br    501  K37501     -0.0479
     14 BR12       22.3780    9.2520   16.0170 Br    501  K37501     -0.0479
     15 BR13       23.9260    6.5670   17.1280 Br    501  K37501     -0.0457
@<TRIPOS>BOND
     1    14     2    1
     2    15     3    1
     3     2     3   ar
     4     2     1   ar
     5    13     1    1
     6     3     7   ar
     7     1     4   ar
     8     7     8    2
     9     7     6   ar
    10     4     6   ar
    11     4    12    1
    12     8     9    2
    13     6     5    2
    14     9     5    2
    15     9    10    1
    16    11    10    1
