@<TRIPOS>MOLECULE
1zoh_K44_A_1.pdb
 17 19 0 0 0
SMALL
GASTEIGER

@<TRIPOS>ATOM
      1  C1        22.7090    8.0550   18.1030 C.2   501  K44501      0.0361
      2  C2        21.6850    8.6710   18.8360 C.3   501  K44501      0.1156
      3  C3        21.3850    8.1850   20.1010 C.2   501  K44501      0.0435
      4  C4        23.4120    6.9930   18.6330 C.2   501  K44501      0.0688
      5  N5        23.6510    5.4830   20.5310 N.2   501  K44501     -0.3710
      6  C6        23.0910    6.5160   19.8870 C.2   501  K44501      0.1545
      7  C7        22.1160    7.1290   20.6350 C.2   501  K44501      0.0883
      8  N8        22.0990    6.4450   21.7640 N.pl3 501  K44501     -0.2463
      9  C9        22.9740    5.4850   21.6700 C.cat 501  K44501      0.2455
     10  N10       23.0490    4.7180   22.7770 N.pl3 501  K44501     -0.2679
     11  C11       23.6130    3.3820   22.7050 C.3   501  K44501      0.1159
     12  C12       21.3670    6.4730   22.9940 C.3   501  K44501      0.1207
     13  C14       21.8950    5.0660   23.6410 C.3   501  K44501      0.1163
     14 BR10       24.7840    6.1340   17.6550 Br    501  K44501     -0.0461
     15 BR11       23.1670    8.7410   16.4070 Br    501  K44501     -0.0519
     16 BR12       20.7440   10.1060   18.0180 Br    501  K44501     -0.0709
     17 BR13       20.0340    9.0390   21.1120 Br    501  K44501     -0.0511
@<TRIPOS>BOND
     1    15     1    1
     2    14     4    1
     3    16     2    1
     4     1     4    2
     5     1     2    1
     6     4     6    1
     7     2     3    1
     8     6     5    2
     9     6     7    1
    10     3     7    2
    11     3    17    1
    12     5     9    2
    13     7     8    1
    14     9     8    1
    15     9    10    1
    16     8    12    1
    17    11    10    1
    18    10    13    1
    19    12    13    1
