@<TRIPOS>MOLECULE
1zom_339_A_1.pdb
 46 47 0 0 0
SMALL
GASTEIGER

@<TRIPOS>ATOM
      1  CX        11.5170   51.1600   25.0990 C.3   1001  3391001     0.2173
      2  CY        11.8800   51.2140   23.5830 C.3   1001  3391001     0.1320
      3  CZ        11.7280   52.5610   25.7520 C.ar  1001  3391001     0.1203
      4  OX        10.1370   50.8070   25.1710 O.3   1001  3391001    -0.2142
      5  N1        13.3390   51.5570   23.4590 N.am  1001  3391001    -0.2027
      6  C2        11.6680   49.8610   22.8880 C.3   1001  3391001     0.0284
      7  C3        12.0110   49.9140   21.4000 C.3   1001  3391001     0.0488
      8  C4        11.8040   48.5690   20.7430 C.3   1001  3391001     0.2205
      9  N5        11.7580   48.8070   19.3050 N.pl3 1001  3391001    -0.0865
     10  C6        11.3390   47.9800   18.3420 C.cat 1001  3391001     0.5346
     11  N7        11.1520   46.6630   18.5590 N.pl3 1001  3391001     0.1354
     12  N8        11.1120   48.5070   17.1430 N.pl3 1001  3391001     0.1354
     13  N9        12.7470   52.8440   26.5100 N.ar  1001  3391001    -0.2386
     14  C10       12.6530   54.1780   26.9320 C.ar  1001  3391001     0.1061
     15  C11       11.5190   54.8170   26.4310 C.ar  1001  3391001     0.0573
     16  S12       10.5850   53.8000   25.4600 S.2   1001  3391001    -0.0677
     17  N13       15.8550   53.3840   21.6960 N.am  1001  3391001    -0.1963
     18  C14       15.4690   52.7540   23.0100 C.3   1001  3391001     0.1727
     19  C15       13.9110   52.6980   23.0460 C.2   1001  3391001     0.2612
     20  O16       13.2450   53.6740   22.6950 O.2   1001  3391001    -0.2715
     21  C17       15.9860   53.5980   24.2340 C.3   1001  3391001     0.0290
     22  C18       17.1790   52.8670   24.8420 C.3   1001  3391001     0.0023
     23  C19       16.4900   55.0230   23.8560 C.3   1001  3391001     0.0023
     24  N20       16.2200   55.1140   19.5340 N.am  1001  3391001    -0.1796
     25  C21       16.0380   53.7000   19.2060 C.3   1001  3391001     0.1744
     26  C22       15.5770   52.9060   20.4400 C.2   1001  3391001     0.2617
     27  O23       14.9590   51.8580   20.2420 O.2   1001  3391001    -0.2715
     28  C24       17.3440   53.1370   18.6530 C.3   1001  3391001     0.0330
     29  C25       17.5950   53.6240   17.2320 C.3   1001  3391001     0.0258
     30  C26       18.8820   53.0620   16.6920 C.3   1001  3391001     0.1170
     31  N27       18.8260   53.1310   15.2320 N.am  1001  3391001    -0.1859
     32  C28       19.8270   52.9960   14.3460 C.2   1001  3391001     0.3589
     33  N29       19.6000   52.7290   13.0620 N.am  1001  3391001    -0.0679
     34  O30       21.0610   53.1420   14.7670 O.2   1001  3391001    -0.2474
     35  C31       15.2370   56.0200   19.4570 C.2   1001  3391001     0.3399
     36  O32       14.0760   55.6820   19.0860 O.2   1001  3391001    -0.2492
     37  N33       15.5480   57.3060   19.8100 N.am  1001  3391001    -0.1845
     38  C34       14.6030   58.4800   19.8400 C.3   1001  3391001     0.1192
     39  C35       13.4530   58.2140   20.8840 C.ar  1001  3391001    -0.0025
     40  C36       12.2380   59.0160   20.8330 C.ar  1001  3391001    -0.0021
     41  C37       11.1630   58.7810   21.7790 C.ar  1001  3391001     0.0064
     42  C38       11.2830   57.7390   22.7980 C.ar  1001  3391001     0.0345
     43  C39       12.4720   56.9430   22.8640 C.ar  1001  3391001     0.0064
     44  C40       13.5410   57.1620   21.9390 C.ar  1001  3391001    -0.0021
     45 BR41        9.9050   57.4070   24.0350 Br    1001  3391001    -0.0490
     46  C42       15.3680   59.7540   20.2320 C.3   1001  3391001     0.0284
@<TRIPOS>BOND
     1    33    32   am
     2    32    34    2
     3    32    31   am
     4    31    30    1
     5    30    29    1
     6    12    10    1
     7    29    28    1
     8    10    11    1
     9    10     9    2
    10    28    25    1
    11    36    35    2
    12    25    24    1
    13    25    26    1
    14     9     8    1
    15    35    24   am
    16    35    37   am
    17    37    38    1
    18    38    46    1
    19    38    39    1
    20    27    26    2
    21    26    17   am
    22     8     7    1
    23    40    39   ar
    24    40    41   ar
    25    39    44   ar
    26     7     6    1
    27    17    18    1
    28    41    42   ar
    29    44    43   ar
    30    20    19    2
    31    42    43   ar
    32    42    45    1
    33     6     2    1
    34    18    19    1
    35    18    21    1
    36    19     5   am
    37     5     2    1
    38     2     1    1
    39    23    21    1
    40    21    22    1
    41     1     4    1
    42     1     3    1
    43    16     3   ar
    44    16    15   ar
    45     3    13   ar
    46    15    14   ar
    47    13    14   ar
