@<TRIPOS>MOLECULE
1zos_MTM_A_1.pdb
 20 22 0 0 0
SMALL
GASTEIGER

@<TRIPOS>ATOM
      1  CS        23.9380    9.7400   23.5890 C.3   301  MTM301      0.0692
      2  S5'       23.2470    8.1310   23.1020 S.3   301  MTM301     -0.1378
      3  C5'       23.9920    7.0600   24.3770 C.3   301  MTM301      0.0776
      4  C4'       25.3920    6.4740   24.0640 C.3   301  MTM301      0.1168
      5  N4'       25.9340    5.8530   25.2920 N.3   301  MTM301     -0.2101
      6  C2'       25.1230    4.0850   23.9380 C.3   301  MTM301      0.2035
      7  O2'       25.8470    2.9020   23.4790 O.3   301  MTM301     -0.2185
      8  C3'       25.3980    5.3610   23.0150 C.3   301  MTM301      0.2005
      9  O3'       26.7440    5.2620   22.3910 O.3   301  MTM301     -0.2188
     10  C1'       25.5150    4.4380   25.4190 C.3   301  MTM301      0.1309
     11  C9        24.3280    4.3940   26.5010 C.2   301  MTM301      0.0343
     12  C8        24.4650    4.7450   27.8410 C.2   301  MTM301      0.0978
     13  N7        23.3600    4.6450   28.5510 N.2   301  MTM301     -0.2350
     14  C5        22.4130    4.2050   27.6510 C.2   301  MTM301      0.1884
     15  C6        21.0050    3.8970   27.7500 C.2   301  MTM301      0.4315
     16  N6        20.3360    4.0250   28.9030 N.pl3 301  MTM301      0.2177
     17  N1        20.3340    3.4540   26.5750 N.2   301  MTM301     -0.0278
     18  C2        21.0180    3.3280   25.3910 C.3   301  MTM301      0.3922
     19  N3        22.3350    3.5980   25.1990 N.2   301  MTM301     -0.2171
     20  C4        22.9740    4.0310   26.3710 C.2   301  MTM301      0.1045
@<TRIPOS>BOND
     1     9     8    1
     2     8     6    1
     3     8     4    1
     4     2     1    1
     5     2     3    1
     6     7     6    1
     7     6    10    1
     8     4     3    1
     9     4     5    1
    10    19    18    1
    11    19    20    2
    12     5    10    1
    13    18    17    1
    14    10    11    1
    15    20    11    1
    16    20    14    1
    17    11    12    2
    18    17    15    2
    19    14    15    1
    20    14    13    2
    21    15    16    1
    22    12    13    1
