@<TRIPOS>MOLECULE
1zot_EMA_A_1.pdb
 26 27 0 0 0
SMALL
GASTEIGER

@<TRIPOS>ATOM
      1  PG        -1.3150   47.5120   72.8610 P.3   900  EMA900      0.5373
      2  O1G       -0.3110   48.4150   72.2220 O.2   900  EMA900     -0.2221
      3  O2G       -2.7110   48.0130   72.8230 O.3   900  EMA900     -0.1143
      4  O3G       -0.8550   47.0230   74.2310 O.3   900  EMA900     -0.1143
      5  PB        -2.1260   44.6720   72.0400 P.3   900  EMA900      0.2296
      6  O1B       -1.1180   43.8530   72.8400 O.3   900  EMA900     -0.4368
      7  O2B       -3.4830   44.8840   72.6460 O.2   900  EMA900     -0.5167
      8  O3B       -1.4080   46.1810   71.8200 O.3   900  EMA900     -0.2258
      9  PA        -3.1500   43.2150   69.1340 P.3   900  EMA900      0.4035
     10  O1A       -4.0850   42.0810   69.6510 O.3   900  EMA900     -0.1374
     11  O2A       -3.3740   44.5190   68.7210 O.2   900  EMA900     -0.2526
     12  O3A       -2.1780   43.8640   70.6000 O.3   900  EMA900     -0.2466
     13  C5'       -2.2730   42.5630   68.4160 C.3   900  EMA900      0.2607
     14  O5'       -0.9350   42.6540   67.8190 O.3   900  EMA900     -0.3376
     15  C4'       -0.7300   43.9130   67.0410 C.3   900  EMA900      0.1936
     16  C1'       -0.4880   43.6700   65.5350 C.3   900  EMA900      0.2363
     17  N9        -0.4800   42.2500   64.9380 N.pl3 900  EMA900     -0.1651
     18  C8        -0.4210   40.9800   65.5090 C.3   900  EMA900      0.3359
     19  N7        -0.4360   39.9700   64.6660 N.2   900  EMA900     -0.2096
     20  C5        -0.5150   40.6190   63.4270 C.2   900  EMA900      0.2525
     21  C6        -0.5770   40.1460   62.0540 C.2   900  EMA900      0.4393
     22  N6        -0.5640   38.8320   61.7330 N.pl3 900  EMA900      0.2180
     23  N1        -0.6500   41.0760   61.0520 N.2   900  EMA900      0.0021
     24  C2        -0.6570   42.3800   61.3500 C.3   900  EMA900      0.5254
     25  N3        -0.6030   42.9480   62.5650 N.2   900  EMA900     -0.0055
     26  C4        -0.5350   41.9970   63.5810 C.2   900  EMA900      0.3501
@<TRIPOS>BOND
     1    23    24    1
     2    23    21    2
     3    24    25    1
     4    22    21    1
     5    21    20    1
     6    25    26    2
     7    20    26    1
     8    20    19    2
     9    26    17    1
    10    19    18    1
    11    17    18    1
    12    17    16    1
    13    16    15    1
    14    15    14    1
    15    14    13    1
    16    13     9    1
    17    11     9    2
    18     9    10    1
    19     9    12    1
    20    12     5    1
    21     8     5    1
    22     8     1    1
    23     5     7    2
    24     5     6    1
    25     2     1    2
    26     3     1    1
    27     1     4    1
