@<TRIPOS>MOLECULE
1zoy_UQ1_B_1.pdb
 18 18 0 0 0
SMALL
GASTEIGER

@<TRIPOS>ATOM
      1  C1        86.0130   66.7860   85.6300 C.2   1201  UQ11201     0.2282
      2  O1        86.6980   67.7900   85.4510 O.2   1201  UQ11201    -0.2836
      3  C2        84.6290   66.8330   86.0810 C.2   1201  UQ11201     0.2140
      4  O2        84.0430   68.0520   86.3330 O.2   1201  UQ11201    -0.4652
      5  CM2       83.9760   68.2690   87.7560 C.3   1201  UQ11201     0.2528
      6  C3        83.8840   65.6450   86.2580 C.2   1201  UQ11201     0.2140
      7  O3        82.5570   65.6970   86.6760 O.2   1201  UQ11201    -0.4652
      8  CM3       81.6920   65.7700   85.5120 C.3   1201  UQ11201     0.2528
      9  C4        84.5310   64.3110   85.9870 C.2   1201  UQ11201     0.2282
     10  O4        83.8900   63.2730   86.1430 O.2   1201  UQ11201    -0.2836
     11  C5        85.9680   64.2660   85.5240 C.2   1201  UQ11201     0.0195
     12  CM5       86.6220   62.9300   85.2500 C.3   1201  UQ11201     0.0343
     13  C6        86.6670   65.4430   85.3440 C.2   1201  UQ11201     0.0191
     14  C7        88.2250   65.4020   84.8010 C.3   1201  UQ11201     0.0295
     15  C8        88.9630   65.2790   83.4540 C.3   1201  UQ11201     0.0048
     16  C9        90.1810   65.8240   83.3410 C.3   1201  UQ11201     0.0003
     17  C10       91.2260   64.4710   83.3180 C.3   1201  UQ11201     0.0000
     18  C11       90.8360   66.8210   84.2050 C.3   1201  UQ11201     0.0000
@<TRIPOS>BOND
     1    17    16    1
     2    16    15    1
     3    16    18    1
     4    15    14    1
     5    14    13    1
     6    12    11    1
     7    13    11    2
     8    13     1    1
     9     2     1    2
    10     8     7    1
    11    11     9    1
    12     1     3    1
    13     9    10    2
    14     9     6    1
    15     3     6    2
    16     3     4    1
    17     6     7    1
    18     4     5    1
