@<TRIPOS>MOLECULE
1zoy_EPH_D_1.pdb
 44 43 0 0 0
SMALL
GASTEIGER

@<TRIPOS>ATOM
      1  C1        60.6330   61.9280   61.1580 C.3   1306  EPH1306     0.2543
      2  C2        59.3060   62.4800   61.6210 C.3   1306  EPH1306     0.2420
      3  C4        62.2050   62.0390   63.0270 C.2   1306  EPH1306     0.3171
      4  O2        61.6850   62.6000   61.8950 O.3   1306  EPH1306    -0.4444
      5  O4        61.4950   61.5660   63.8780 O.2   1306  EPH1306    -0.2501
      6  C18       63.5740   62.0460   63.1500 C.3   1306  EPH1306     0.1096
      7  C19       64.1220   61.6930   64.5510 C.3   1306  EPH1306     0.0116
      8  C20       64.5750   62.8970   65.3590 C.3   1306  EPH1306     0.0006
      9  C21       66.0710   63.1500   65.2590 C.3   1306  EPH1306     0.0000
     10  C22       66.4890   64.3740   66.0790 C.3   1306  EPH1306     0.0000
     11  C23       67.8140   65.0520   65.6710 C.3   1306  EPH1306     0.0000
     12  C24       67.6340   66.5130   65.3810 C.3   1306  EPH1306     0.0000
     13  C25       67.9780   66.9650   63.9580 C.3   1306  EPH1306     0.0000
     14  C26       68.9890   68.2600   63.9940 C.3   1306  EPH1306     0.0000
     15  C27       69.0770   69.7570   64.2800 C.3   1306  EPH1306     0.0000
     16  C28       67.9360   70.3920   64.1150 C.3   1306  EPH1306     0.0000
     17  C29       66.9670   70.7700   65.4600 C.3   1306  EPH1306     0.0000
     18  C30       67.3470   72.1120   66.0630 C.3   1306  EPH1306     0.0000
     19  C31       66.8050   72.3000   67.4630 C.3   1306  EPH1306     0.0000
     20  C37       58.3640   62.6660   60.4340 C.3   1306  EPH1306     0.1964
     21  O5        58.1150   61.3850   59.8130 O.3   1306  EPH1306    -0.3100
     22  C3        58.6400   64.5280   62.8830 C.2   1306  EPH1306     0.3171
     23  O1        59.5890   63.7410   62.3060 O.3   1306  EPH1306    -0.4457
     24  O3        57.7580   65.1130   62.2900 O.2   1306  EPH1306    -0.2501
     25  C5        58.8030   64.6220   64.4120 C.3   1306  EPH1306     0.1096
     26  C6        60.0240   65.5660   64.6590 C.3   1306  EPH1306     0.0116
     27  C7        60.3320   65.7720   66.1360 C.3   1306  EPH1306     0.0006
     28  C8        61.7990   66.0900   66.3970 C.3   1306  EPH1306     0.0000
     29  C9        62.0710   66.2940   67.8980 C.3   1306  EPH1306     0.0000
     30  C10       62.8910   67.5310   68.3110 C.3   1306  EPH1306     0.0000
     31  C11       64.2140   67.1470   68.6810 C.3   1306  EPH1306     0.0000
     32  C12       65.2410   68.2260   69.1470 C.3   1306  EPH1306     0.0000
     33  C13       66.5860   68.2780   68.4380 C.3   1306  EPH1306     0.0000
     34  C14       67.7090   68.6190   69.4120 C.3   1306  EPH1306     0.0000
     35  C15       69.1330   69.0870   69.3890 C.3   1306  EPH1306     0.0000
     36  C16       70.5920   68.8190   69.0380 C.3   1306  EPH1306     0.0000
     37  C17       71.0210   69.4590   67.8470 C.3   1306  EPH1306     0.0000
     38  P1        56.6750   60.6350   59.9040 P.3   1306  EPH1306     0.2141
     39  O6        56.0970   60.3460   58.4910 O.2   1306  EPH1306    -0.5172
     40  O7        57.0040   59.3160   60.7530 O.3   1306  EPH1306    -0.4373
     41  O8        55.7140   61.5620   60.7580 O.3   1306  EPH1306    -0.3125
     42  C38       55.5100   61.3380   62.1830 C.3   1306  EPH1306     0.1696
     43  C39       54.2380   60.5750   62.5140 C.3   1306  EPH1306     0.1417
     44  N1        53.3230   61.6700   62.8360 N.3   1306  EPH1306    -0.1286
@<TRIPOS>BOND
     1    39    38    2
     2    21    38    1
     3    21    20    1
     4    38    40    1
     5    38    41    1
     6    20     2    1
     7    41    42    1
     8     1     2    1
     9     1     4    1
    10     2    23    1
    11     4     3    1
    12    42    43    1
    13    24    22    2
    14    23    22    1
    15    43    44    1
    16    22    25    1
    17     3     6    1
    18     3     5    2
    19     6     7    1
    20    13    14    1
    21    13    12    1
    22    14    15    1
    23    16    15    1
    24    16    17    1
    25    25    26    1
    26     7     8    1
    27    26    27    1
    28     9     8    1
    29     9    10    1
    30    12    11    1
    31    17    18    1
    32    11    10    1
    33    18    19    1
    34    27    28    1
    35    28    29    1
    36    37    36    1
    37    29    30    1
    38    30    31    1
    39    33    32    1
    40    33    34    1
    41    31    32    1
    42    36    35    1
    43    35    34    1
