@<TRIPOS>MOLECULE
1zoy_HEM_C_1.pdb
 43 50 0 0 0
SMALL
GASTEIGER

@<TRIPOS>ATOM
      1 FE         70.3550   67.7400   79.4540 Fe    1305  HEM1305     0.0000
      2  CHA       72.3040   68.4400   82.1700 C.2   1305  HEM1305     0.0000
      3  CHB       68.5090   65.5850   81.4310 C.2   1305  HEM1305     0.0000
      4  CHC       68.2970   67.0380   76.8110 C.2   1305  HEM1305     0.0000
      5  CHD       72.0990   69.9370   77.5640 C.2   1305  HEM1305     0.0000
      6  NA        70.4020   67.1220   81.4310 N.2   1305  HEM1305     0.0000
      7  C1A       71.2930   67.5450   82.3940 C.2   1305  HEM1305     0.0000
      8  C2A       70.9790   66.9150   83.6790 C.2   1305  HEM1305     0.0000
      9  C3A       69.9100   66.1020   83.4570 C.2   1305  HEM1305     0.0000
     10  C4A       69.5620   66.2420   82.0500 C.2   1305  HEM1305     0.0000
     11  CMA       69.1840   65.2300   84.4450 C.3   1305  HEM1305     0.0000
     12  CAA       71.7100   67.1540   84.9910 C.3   1305  HEM1305     0.0000
     13  CBA       72.9310   66.2850   85.2370 C.3   1305  HEM1305     0.0000
     14  CGA       73.6360   66.5620   86.5670 C.2   1305  HEM1305     0.0000
     15  O1A       74.7950   67.0540   86.5450 O.co2 1305  HEM1305     0.0000
     16  O2A       73.0220   66.2930   87.6370 O.co2 1305  HEM1305     0.0000
     17  NB        68.7150   66.5240   79.1780 N.ar  1305  HEM1305     0.0000
     18  C1B       68.1190   65.7060   80.1100 C.ar  1305  HEM1305     0.0000
     19  C2B       66.9960   65.0030   79.5130 C.ar  1305  HEM1305     0.0000
     20  C3B       66.9420   65.4210   78.2230 C.ar  1305  HEM1305     0.0000
     21  C4B       68.0170   66.3670   78.0160 C.ar  1305  HEM1305     0.0000
     22  CMB       66.1020   64.0240   80.2270 C.3   1305  HEM1305     0.0000
     23  CAB       65.9900   65.0340   77.1750 C.2   1305  HEM1305     0.0000
     24  CBB       66.0800   64.0130   76.3550 C.2   1305  HEM1305     0.0000
     25  NC        70.2190   68.3760   77.5040 N.2   1305  HEM1305     0.0000
     26  C1C       69.3010   67.9670   76.5780 C.2   1305  HEM1305     0.0000
     27  C2C       69.5420   68.6710   75.3190 C.2   1305  HEM1305     0.0000
     28  C3C       70.6130   69.5000   75.5380 C.2   1305  HEM1305     0.0000
     29  C4C       71.0380   69.2910   76.9270 C.2   1305  HEM1305     0.0000
     30  CMC       68.7180   68.4840   74.0640 C.3   1305  HEM1305     0.0000
     31  CAC       71.2530   70.4290   74.6010 C.2   1305  HEM1305     0.0000
     32  CBC       70.8090   71.6500   74.3080 C.2   1305  HEM1305     0.0000
     33  ND        71.9370   68.9580   79.8130 N.ar  1305  HEM1305     0.0000
     34  C1D       72.5230   69.7870   78.8900 C.ar  1305  HEM1305     0.0000
     35  C2D       73.6390   70.4750   79.5050 C.ar  1305  HEM1305     0.0000
     36  C3D       73.6920   70.0380   80.8140 C.ar  1305  HEM1305     0.0000
     37  C4D       72.6100   69.1020   80.9890 C.ar  1305  HEM1305     0.0000
     38  CMD       74.5390   71.4640   78.8280 C.3   1305  HEM1305     0.0000
     39  CAD       74.6670   70.4370   81.8810 C.3   1305  HEM1305     0.0000
     40  CBD       75.5040   69.2190   82.3380 C.3   1305  HEM1305     0.0000
     41  CGD       76.4710   69.6210   83.4350 C.2   1305  HEM1305     0.0000
     42  O1D       76.0290   69.8970   84.5820 O.co2 1305  HEM1305     0.0000
     43  O2D       77.6830   69.6340   83.1120 O.co2 1305  HEM1305     0.0000
@<TRIPOS>BOND
     1    30    27    1
     2    32    31    2
     3    31    28    1
     4    27    28    2
     5    27    26    1
     6    28    29    1
     7    24    23    2
     8    26     4    2
     9    26    25    1
    10     4    21    1
    11    29    25    2
    12    29     5    1
    13    23    20    1
    14    25     1    1
    15     5    34    2
    16    21    20   ar
    17    21    17   ar
    18    20    19   ar
    19    38    35    1
    20    34    35   ar
    21    34    33   ar
    22    17     1    1
    23    17    18   ar
    24     1    33    1
    25     1     6    1
    26    35    36   ar
    27    19    18   ar
    28    19    22    1
    29    33    37   ar
    30    18     3    1
    31    36    37   ar
    32    36    39    1
    33    37     2    2
    34     3    10    2
    35     6    10    1
    36     6     7    2
    37    39    40    1
    38    10     9    1
    39     2     7    1
    40    40    41    1
    41     7     8    1
    42    43    41   ar
    43    41    42   ar
    44     9     8    2
    45     9    11    1
    46     8    12    1
    47    12    13    1
    48    13    14    1
    49    15    14   ar
    50    14    16   ar
