@<TRIPOS>MOLECULE
1zp0_TTF_C_1.pdb
 14 14 0 0 0
SMALL
GASTEIGER

@<TRIPOS>ATOM
      1  C1        80.4240   67.1190   86.4710 C.ar  308  TTF308      0.0072
      2  C2        81.7040   67.6640   86.7270 C.ar  308  TTF308      0.0052
      3  C3        82.7610   66.9200   86.3230 C.ar  308  TTF308      0.0377
      4  S1        82.1730   65.4920   85.5620 S.2   308  TTF308     -0.0883
      5  C4        80.5560   65.9110   85.8420 C.ar  308  TTF308      0.0352
      6  C5        84.2720   67.2880   86.4860 C.3   308  TTF308      0.1877
      7  O1        84.6090   68.5390   86.3480 O.3   308  TTF308     -0.2173
      8  C6        85.2270   66.0860   86.7770 C.3   308  TTF308      0.1113
      9  C7        85.8420   65.2460   85.6560 C.2   308  TTF308      0.2470
     10  C8        86.7320   64.0880   86.2870 C.3   308  TTF308      0.4514
     11  O2        85.6190   65.5190   84.4800 O.2   308  TTF308     -0.2872
     12  F1        85.9430   63.3530   87.0220 F     308  TTF308     -0.1633
     13  F2        87.5900   64.6570   87.0950 F     308  TTF308     -0.1633
     14  F3        87.4200   63.1990   85.4930 F     308  TTF308     -0.1633
@<TRIPOS>BOND
     1    11     9    2
     2    14    10    1
     3     4     5   ar
     4     4     3   ar
     5     9    10    1
     6     9     8    1
     7     5     1   ar
     8    10    12    1
     9    10    13    1
    10     3     6    1
    11     3     2   ar
    12     7     6    1
    13     1     2   ar
    14     6     8    1
