@<TRIPOS>MOLECULE
1zp0_HEM_C_1.pdb
 43 50 0 0 0
SMALL
GASTEIGER

@<TRIPOS>ATOM
      1 FE         70.3490   67.7400   79.5370 Fe    305  HEM305      0.0000
      2  CHA       72.2740   68.4490   82.2640 C.2   305  HEM305      0.0000
      3  CHB       68.5100   65.5500   81.4740 C.2   305  HEM305      0.0000
      4  CHC       68.3320   67.0270   76.8570 C.2   305  HEM305      0.0000
      5  CHD       72.1170   69.9420   77.6520 C.2   305  HEM305      0.0000
      6  NA        70.3860   67.1110   81.4990 N.2   305  HEM305      0.0000
      7  C1A       71.2630   67.5470   82.4720 C.2   305  HEM305      0.0000
      8  C2A       70.9510   66.8990   83.7460 C.2   305  HEM305      0.0000
      9  C3A       69.8950   66.0770   83.5150 C.2   305  HEM305      0.0000
     10  C4A       69.5440   66.2280   82.1070 C.2   305  HEM305      0.0000
     11  CMA       69.1760   65.1870   84.4920 C.3   305  HEM305      0.0000
     12  CAA       71.6750   67.1340   85.0570 C.3   305  HEM305      0.0000
     13  CBA       72.9030   66.2710   85.2890 C.3   305  HEM305      0.0000
     14  CGA       73.6050   66.5410   86.6170 C.2   305  HEM305      0.0000
     15  O1A       74.7600   67.0410   86.5980 O.co2 305  HEM305      0.0000
     16  O2A       72.9880   66.2630   87.6800 O.co2 305  HEM305      0.0000
     17  NB        68.7280   66.5070   79.2300 N.ar  305  HEM305      0.0000
     18  C1B       68.1210   65.6810   80.1540 C.ar  305  HEM305      0.0000
     19  C2B       67.0220   64.9600   79.5380 C.ar  305  HEM305      0.0000
     20  C3B       66.9750   65.3840   78.2420 C.ar  305  HEM305      0.0000
     21  C4B       68.0460   66.3410   78.0540 C.ar  305  HEM305      0.0000
     22  CMB       66.1280   63.9730   80.2290 C.3   305  HEM305      0.0000
     23  CAB       66.0480   64.9810   77.1760 C.2   305  HEM305      0.0000
     24  CBB       66.1550   63.9390   76.3770 C.2   305  HEM305      0.0000
     25  NC        70.2310   68.3730   77.5730 N.2   305  HEM305      0.0000
     26  C1C       69.3400   67.9540   76.6300 C.2   305  HEM305      0.0000
     27  C2C       69.5850   68.6600   75.3790 C.2   305  HEM305      0.0000
     28  C3C       70.6570   69.4900   75.6050 C.2   305  HEM305      0.0000
     29  C4C       71.0570   69.2940   76.9990 C.2   305  HEM305      0.0000
     30  CMC       68.7860   68.4610   74.1140 C.3   305  HEM305      0.0000
     31  CAC       71.3070   70.4190   74.6690 C.2   305  HEM305      0.0000
     32  CBC       70.8680   71.6360   74.3420 C.2   305  HEM305      0.0000
     33  ND        71.9300   68.9680   79.9040 N.ar  305  HEM305      0.0000
     34  C1D       72.5180   69.8070   78.9880 C.ar  305  HEM305      0.0000
     35  C2D       73.6280   70.4990   79.6100 C.ar  305  HEM305      0.0000
     36  C3D       73.6670   70.0650   80.9220 C.ar  305  HEM305      0.0000
     37  C4D       72.5860   69.1240   81.0880 C.ar  305  HEM305      0.0000
     38  CMD       74.5290   71.4940   78.9380 C.3   305  HEM305      0.0000
     39  CAD       74.6330   70.4770   81.9980 C.3   305  HEM305      0.0000
     40  CBD       75.5100   69.2880   82.4510 C.3   305  HEM305      0.0000
     41  CGD       76.4580   69.7290   83.5500 C.2   305  HEM305      0.0000
     42  O1D       76.0020   69.9450   84.7040 O.co2 305  HEM305      0.0000
     43  O2D       77.6700   69.8400   83.2320 O.co2 305  HEM305      0.0000
@<TRIPOS>BOND
     1    30    27    1
     2    32    31    2
     3    31    28    1
     4    27    28    2
     5    27    26    1
     6    28    29    1
     7    24    23    2
     8    26     4    2
     9    26    25    1
    10     4    21    1
    11    29    25    2
    12    29     5    1
    13    23    20    1
    14    25     1    1
    15     5    34    2
    16    21    20   ar
    17    21    17   ar
    18    20    19   ar
    19    38    35    1
    20    34    35   ar
    21    34    33   ar
    22    17     1    1
    23    17    18   ar
    24     1    33    1
    25     1     6    1
    26    19    18   ar
    27    19    22    1
    28    35    36   ar
    29    33    37   ar
    30    18     3    1
    31    36    37   ar
    32    36    39    1
    33    37     2    2
    34     3    10    2
    35     6    10    1
    36     6     7    2
    37    39    40    1
    38    10     9    1
    39     2     7    1
    40    40    41    1
    41     7     8    1
    42    43    41   ar
    43     9     8    2
    44     9    11    1
    45    41    42   ar
    46     8    12    1
    47    12    13    1
    48    13    14    1
    49    15    14   ar
    50    14    16   ar
