@<TRIPOS>MOLECULE
1zp4_C2F_A_1.pdb
 33 35 0 0 0
SMALL
GASTEIGER

@<TRIPOS>ATOM
      1  N1        -6.2270   17.5280   62.1740 N.2   995  C2F995     -0.2726
      2  C2        -6.9690   18.4630   62.7870 C.1   995  C2F995      0.2603
      3  NA2       -6.4010   19.3120   63.6380 N.pl3 995  C2F995     -0.0221
      4  N3        -8.2870   18.5360   62.5480 N.2   995  C2F995     -0.2515
      5  C4        -8.8870   17.6870   61.7020 C.1   995  C2F995      0.2218
      6  O4       -10.2290   17.7740   61.5010 O.2   995  C2F995     -0.2109
      7  C4A       -8.1450   16.7070   61.0490 C.3   995  C2F995      0.2763
      8  N5        -8.7440   15.8680   60.2000 N.3   995  C2F995     -0.2435
      9  C6        -7.8650   15.3310   59.1450 C.3   995  C2F995      0.1062
     10  C7        -6.5890   14.7350   59.7450 C.3   995  C2F995      0.1547
     11  N8        -5.9760   15.6950   60.6900 N.2   995  C2F995     -0.2096
     12  C8A       -6.7790   16.6550   61.3180 C.1   995  C2F995      0.1050
     13  C9        -7.4880   16.4330   58.1510 C.3   995  C2F995      0.1302
     14  N10       -8.7090   16.9520   57.5160 N.pl3 995  C2F995     -0.2361
     15  C11       -9.3510   14.7520   60.9420 C.3   995  C2F995      0.0915
     16  C12       -8.6910   19.4490   54.2320 C.ar  995  C2F995      0.0551
     17  C13       -7.4860   18.9820   54.7520 C.ar  995  C2F995      0.0059
     18  C14       -7.4830   18.1340   55.8550 C.ar  995  C2F995      0.0162
     19  C15       -8.6820   17.7460   56.4470 C.ar  995  C2F995      0.0654
     20  C16       -9.8860   18.2110   55.9240 C.ar  995  C2F995      0.0162
     21  C17       -9.8910   19.0590   54.8210 C.ar  995  C2F995      0.0059
     22  C         -8.6860   20.4010   53.0340 C.2   995  C2F995      0.2652
     23  O         -7.6290   20.8560   52.5990 O.2   995  C2F995     -0.2684
     24  N         -9.8800   20.6840   52.5210 N.am  995  C2F995     -0.1918
     25  CA       -10.0500   21.5920   51.3760 C.3   995  C2F995      0.1986
     26  CB       -10.1420   20.8070   50.0650 C.3   995  C2F995      0.0451
     27  CG       -11.2740   19.7770   50.0740 C.3   995  C2F995      0.1164
     28  CD       -11.3870   19.0800   48.7170 C.2   995  C2F995      0.3649
     29  OE1      -12.3750   19.3740   48.0090 O.co2 995  C2F995     -0.2457
     30  OE2      -10.4830   18.2710   48.4140 O.co2 995  C2F995     -0.2457
     31  CT       -11.2990   22.4560   51.5690 C.2   995  C2F995      0.3842
     32  O1       -12.2770   21.9210   52.1350 O.co2 995  C2F995     -0.2437
     33  O2       -11.2480   23.6310   51.1440 O.co2 995  C2F995     -0.2437
@<TRIPOS>BOND
     1    29    28   ar
     2    30    28   ar
     3    28    27    1
     4    26    27    1
     5    26    25    1
     6    33    31   ar
     7    25    31    1
     8    25    24    1
     9    31    32   ar
    10    24    22   am
    11    23    22    2
    12    22    16    1
    13    16    17   ar
    14    16    21   ar
    15    17    18   ar
    16    21    20   ar
    17    18    19   ar
    18    20    19   ar
    19    19    14    1
    20    14    13    1
    21    13     9    1
    22     9    10    1
    23     9     8    1
    24    10    11    1
    25     8    15    1
    26     8     7    1
    27    11    12    2
    28     7    12    1
    29     7     5    1
    30    12     1    2
    31     6     5    2
    32     5     4    2
    33     1     2    2
    34     4     2    2
    35     2     3    1
