@<TRIPOS>MOLECULE
1zp5_2NI_A_1.pdb
 23 24 0 0 0
SMALL
GASTEIGER

@<TRIPOS>ATOM
      1  C1        -2.9740   22.8540    8.2950 C.ar  1000  2NI1000     0.0031
      2  C2        -3.3910   23.2990    9.5870 C.ar  1000  2NI1000     0.0369
      3  C3        -2.6530   22.9260   10.7680 C.ar  1000  2NI1000     0.1386
      4  C4        -1.4870   22.0970   10.6060 C.ar  1000  2NI1000     0.0369
      5  C5        -1.0710   21.6490    9.3090 C.ar  1000  2NI1000     0.0031
      6  C6        -1.8140   22.0220    8.1290 C.ar  1000  2NI1000     0.0002
      7  C7        -1.3910   21.5410    6.7540 C.ar  1000  2NI1000     0.0000
      8  C8        -0.3690   20.5280    6.6060 C.ar  1000  2NI1000     0.0007
      9  C9         0.0180   20.0600    5.3090 C.ar  1000  2NI1000     0.0103
     10  C10       -0.6100   20.5980    4.1370 C.ar  1000  2NI1000     0.0684
     11  C11       -1.6180   21.6040    4.2600 C.ar  1000  2NI1000     0.0103
     12  C12       -2.0070   22.0720    5.5520 C.ar  1000  2NI1000     0.0007
     13  C13       -0.2160   20.1060    2.8140 C.1   1000  2NI1000     0.1004
     14  N1         0.0740   19.6960    1.7790 N.1   1000  2NI1000    -0.1908
     15  O1        -3.0860   23.3680   12.0860 O.3   1000  2NI1000    -0.4736
     16  C14       -3.7560   24.6570   12.1150 C.3   1000  2NI1000     0.2268
     17  C15       -2.8750   25.8140   12.5920 C.3   1000  2NI1000     0.1399
     18  N2        -3.4620   27.1780   12.1430 N.am  1000  2NI1000    -0.2833
     19  C16       -3.9890   27.8210   13.3900 C.3   1000  2NI1000     0.1141
     20  C17       -2.3340   27.9090   11.5260 C.2   1000  2NI1000     0.1671
     21  O2        -2.4710   29.1400   11.3990 O.2   1000  2NI1000    -0.5250
     22  N3        -1.1370   27.2530   11.0780 N.am  1000  2NI1000    -0.1835
     23  O3        -1.1470   26.1930   10.0580 O.3   1000  2NI1000    -0.4013
@<TRIPOS>BOND
     1    14    13    3
     2    13    10    1
     3    10    11   ar
     4    10     9   ar
     5    11    12   ar
     6     9     8   ar
     7    12     7   ar
     8     8     7   ar
     9     7     6    1
    10     6     1   ar
    11     6     5   ar
    12     1     2   ar
    13     5     4   ar
    14     2     3   ar
    15    23    22    1
    16     4     3   ar
    17     3    15    1
    18    22    20   am
    19    21    20    2
    20    20    18   am
    21    15    16    1
    22    16    17    1
    23    18    17    1
    24    18    19    1
