@<TRIPOS>MOLECULE
1zp8_AB2_A_1.pdb
 47 51 0 0 0
SMALL
GASTEIGER

@<TRIPOS>ATOM
      1  C1        -6.6180   16.2430   18.1490 C.3   200  AB2200      0.2525
      2  O1        -7.7260   16.9060   18.7550 O.3   200  AB2200     -0.4714
      3  C2        -7.9860   16.7020   20.0790 C.ar  200  AB2200      0.1388
      4  C3        -9.2780   16.8930   20.5620 C.ar  200  AB2200      0.0383
      5  C4        -9.5410   16.6050   21.9120 C.ar  200  AB2200      0.0230
      6  C5        -8.4990   16.2180   22.7200 C.ar  200  AB2200      0.1224
      7  C6        -7.1900   16.0850   22.2570 C.ar  200  AB2200      0.0230
      8  C7        -6.9320   16.3130   20.8980 C.ar  200  AB2200      0.0383
      9  S1        -8.8060   15.9020   24.4310 S.O2  200  AB2200      0.0634
     10  O2       -10.0130   15.1570   24.3620 O.2   200  AB2200     -0.1528
     11  O3        -7.7790   15.0050   24.8740 O.2   200  AB2200     -0.1528
     12  N1        -8.7070   17.4230   25.2580 N.3   200  AB2200     -0.1529
     13  C8        -7.5030   18.0780   25.7230 C.3   200  AB2200      0.0958
     14  C9        -6.6320   17.5130   26.8540 C.3   200  AB2200      0.0178
     15  C10       -5.6470   16.4090   26.4390 C.3   200  AB2200      0.0015
     16  C11       -6.1870   18.4910   27.9380 C.3   200  AB2200      0.0015
     17  C12       -9.9590   17.9730   25.7980 C.3   200  AB2200      0.1300
     18  C13      -10.1640   17.8750   27.3440 C.3   200  AB2200      0.1861
     19  O4       -11.1500   18.7720   27.7640 O.3   200  AB2200     -0.2201
     20  C14      -10.4920   16.3910   27.7450 C.3   200  AB2200      0.1156
     21  C15      -12.0240   16.0510   27.6220 C.3   200  AB2200      0.0468
     22  C16      -12.2110   14.5490   27.8500 C.ar  200  AB2200     -0.0207
     23  C17      -12.0220   13.6720   26.7810 C.ar  200  AB2200     -0.0042
     24  C18      -12.1380   12.3100   27.0340 C.ar  200  AB2200     -0.0003
     25  C19      -12.5320   11.9070   28.3000 C.ar  200  AB2200     -0.0000
     26  C20      -12.7670   12.7660   29.3630 C.ar  200  AB2200     -0.0003
     27  C21      -12.5960   14.1330   29.1130 C.ar  200  AB2200     -0.0042
     28  N2        -9.8940   16.0960   29.0470 N.3   200  AB2200     -0.1618
     29  C22      -10.3870   16.2980   30.3090 C.3   200  AB2200      0.1419
     30  C23       -9.4170   15.8800   31.1970 C.2   200  AB2200      0.1186
     31  C24       -9.5350   15.8770   32.6900 C.3   200  AB2200      0.2543
     32  O5       -10.8310   15.3830   33.0040 O.3   200  AB2200     -0.4271
     33  C25      -11.3870   15.3690   34.2310 C.2   200  AB2200      0.4218
     34  O6       -11.4670   16.4040   34.8580 O.2   200  AB2200     -0.2245
     35  N3       -11.8160   14.1650   34.6740 N.am  200  AB2200     -0.1634
     36  C26      -13.0490   13.4420   34.2430 C.3   200  AB2200      0.1511
     37  C27      -13.4450   13.6400   32.7520 C.3   200  AB2200      0.1803
     38  O7       -14.3200   14.7160   32.4260 O.3   200  AB2200     -0.2206
     39  C28      -13.8900   12.2510   32.3170 C.3   200  AB2200      0.0611
     40  C29      -13.1720   11.2740   33.2550 C.ar  200  AB2200     -0.0218
     41  C30      -12.9540    9.9030   33.1560 C.ar  200  AB2200     -0.0044
     42  C31      -12.2610    9.2240   34.1640 C.ar  200  AB2200     -0.0003
     43  C32      -11.7830    9.9360   35.2520 C.ar  200  AB2200     -0.0003
     44  C33      -11.9580   11.3030   35.3210 C.ar  200  AB2200     -0.0028
     45  C34      -12.6890   11.9760   34.3520 C.ar  200  AB2200     -0.0038
     46  N4        -8.3910   15.3640   30.4700 N.2   200  AB2200     -0.1503
     47  N5        -8.6660   15.5490   29.2180 N.pl3 200  AB2200     -0.0630
@<TRIPOS>BOND
     1     1     2    1
     2     2     3    1
     3     3     4   ar
     4     3     8   ar
     5     4     5   ar
     6     8     7   ar
     7     5     6   ar
     8     7     6   ar
     9     6     9    1
    10    10     9    2
    11     9    11    2
    12     9    12    1
    13    12    13    1
    14    12    17    1
    15    13    14    1
    16    17    18    1
    17    15    14    1
    18    23    24   ar
    19    23    22   ar
    20    14    16    1
    21    24    25   ar
    22    18    20    1
    23    18    19    1
    24    21    20    1
    25    21    22    1
    26    20    28    1
    27    22    27   ar
    28    25    26   ar
    29    28    47    1
    30    28    29    1
    31    27    26   ar
    32    47    46    1
    33    29    30    1
    34    46    30    2
    35    30    31    1
    36    39    37    1
    37    39    40    1
    38    38    37    1
    39    31    32    1
    40    37    36    1
    41    32    33    1
    42    41    40   ar
    43    41    42   ar
    44    40    45   ar
    45    42    43   ar
    46    33    35   am
    47    33    34    2
    48    36    45    1
    49    36    35    1
    50    45    44   ar
    51    43    44   ar
