@<TRIPOS>MOLECULE
1zp9_ATP_A_1.pdb
 31 33 0 0 0
SMALL
GASTEIGER

@<TRIPOS>ATOM
      1  PG       -14.0600   -4.0730   56.4810 P.3   260  ATP260      0.5373
      2  O1G      -14.2430   -4.8630   57.7040 O.3   260  ATP260     -0.1143
      3  O2G      -12.9320   -4.7040   55.6350 O.2   260  ATP260     -0.2221
      4  O3G      -13.6090   -2.7390   57.0630 O.3   260  ATP260     -0.1143
      5  PB       -15.6550   -2.5330   54.6330 P.3   260  ATP260      0.2277
      6  O1B      -14.7200   -2.3470   53.4990 O.2   260  ATP260     -0.5168
      7  O2B      -17.0970   -2.4420   54.1340 O.3   260  ATP260     -0.4368
      8  O3B      -15.3690   -3.9080   55.4650 O.3   260  ATP260     -0.2258
      9  PA       -14.9550    0.0720   55.6870 P.3   260  ATP260      0.2189
     10  O1A      -14.2520    0.3630   56.9630 O.3   260  ATP260     -0.4371
     11  O2A      -14.1270    0.3490   54.3900 O.2   260  ATP260     -0.5170
     12  O3A      -15.3740   -1.4740   55.8240 O.3   260  ATP260     -0.2700
     13  O5'      -16.2630    0.9690   55.6750 O.3   260  ATP260     -0.3112
     14  C5'      -17.3080    0.8090   54.7020 C.3   260  ATP260      0.1813
     15  C4'      -17.8380    2.1640   54.2440 C.3   260  ATP260      0.1821
     16  O4'      -18.4710    2.9080   55.3210 O.3   260  ATP260     -0.3135
     17  C3'      -16.7100    3.0540   53.7370 C.3   260  ATP260      0.2184
     18  O3'      -16.4540    2.9270   52.3550 O.3   260  ATP260     -0.2174
     19  C2'      -17.2070    4.4440   54.0030 C.3   260  ATP260      0.2570
     20  O2'      -18.0360    4.8270   52.9170 O.3   260  ATP260     -0.2130
     21  C1'      -18.1040    4.2860   55.2210 C.3   260  ATP260      0.3186
     22  N9       -17.3560    4.6720   56.4110 N.pl3 260  ATP260     -0.1439
     23  C8       -16.4530    3.8660   57.0860 C.3   260  ATP260      0.3377
     24  N7       -15.9890    4.5810   58.1270 N.2   260  ATP260     -0.2095
     25  C5       -16.5270    5.8300   58.1050 C.2   260  ATP260      0.2526
     26  C6       -16.4240    6.9670   58.8860 C.2   260  ATP260      0.4393
     27  N6       -15.6110    7.0290   59.9360 N.pl3 260  ATP260      0.2180
     28  N1       -17.1800    8.0900   58.5770 N.2   260  ATP260      0.0021
     29  C2       -18.0500    8.1170   57.5300 C.3   260  ATP260      0.5254
     30  N3       -18.1490    7.0140   56.7610 N.2   260  ATP260     -0.0055
     31  C4       -17.4270    5.8870   57.0360 C.2   260  ATP260      0.3518
@<TRIPOS>BOND
     1    18    17    1
     2    20    19    1
     3     6     5    2
     4    17    19    1
     5    17    15    1
     6    19    21    1
     7     7     5    1
     8    15    14    1
     9    15    16    1
    10    11     9    2
    11     5     8    1
    12     5    12    1
    13    14    13    1
    14    21    16    1
    15    21    22    1
    16     8     1    1
    17     3     1    2
    18    13     9    1
    19     9    12    1
    20     9    10    1
    21    22    31    1
    22    22    23    1
    23     1     4    1
    24     1     2    1
    25    30    31    2
    26    30    29    1
    27    31    25    1
    28    23    24    1
    29    29    28    1
    30    25    24    2
    31    25    26    1
    32    28    26    2
    33    26    27    1
