@<TRIPOS>MOLECULE
1zpb_995_A_1.pdb
 30 30 0 0 0
SMALL
GASTEIGER

@<TRIPOS>ATOM
      1  CX        11.3020   51.0770   25.3530 C.3   301  995301      0.2173
      2  CY        11.6400   51.1450   23.8490 C.3   301  995301      0.1320
      3  CZ        11.6440   52.3670   26.1200 C.ar  301  995301      0.1203
      4  OX         9.9060   50.8660   25.4720 O.3   301  995301     -0.2142
      5  S1        10.4880   53.6040   26.4470 S.2   301  995301     -0.0677
      6  C2        11.7440   54.4510   27.2370 C.ar  301  995301      0.0573
      7  C3        12.9470   53.7600   27.2050 C.ar  301  995301      0.1061
      8  N1        12.8480   52.5450   26.5420 N.ar  301  995301     -0.2386
      9  C6        11.2840   49.8310   23.1240 C.3   301  995301      0.0284
     10  C7        11.1950   50.0540   21.6050 C.3   301  995301      0.0488
     11  N2        13.0570   51.3430   23.6730 N.am  301  995301     -0.2027
     12  C8        13.6230   52.4290   23.1640 C.2   301  995301      0.2612
     13  C9        15.1480   52.3870   23.0880 C.3   301  995301      0.1726
     14  C10       15.8060   52.9700   24.3630 C.3   301  995301      0.0290
     15  C11       15.6240   54.4930   24.5370 C.3   301  995301      0.0023
     16  C12       17.3010   52.6320   24.3700 C.3   301  995301      0.0023
     17  N3        15.6190   53.0870   21.8790 N.am  301  995301     -0.1978
     18  C13       15.3090   52.7060   20.6210 C.2   301  995301      0.2418
     19  C14       15.9040   53.5390   19.4790 C.3   301  995301      0.0868
     20  C15       16.8670   52.6720   18.6370 C.3   301  995301      0.0096
     21  C16       17.3410   53.3200   17.3110 C.3   301  995301      0.0005
     22  C17       18.2670   52.3300   16.6000 C.3   301  995301      0.0000
     23  C18       18.1270   54.6240   17.5380 C.3   301  995301      0.0000
     24  O2        14.5860   51.7260   20.3690 O.2   301  995301     -0.2733
     25  O3        12.9780   53.4090   22.7770 O.2   301  995301     -0.2715
     26  C19       11.4190   48.7530   20.8380 C.3   301  995301      0.2205
     27  N4        11.3110   49.0400   19.4040 N.pl3 301  995301     -0.0865
     28  C20       11.0380   48.1540   18.4290 C.cat 301  995301      0.5346
     29  N5        10.8330   46.8600   18.7200 N.pl3 301  995301      0.1354
     30  N6        10.9710   48.5790   17.1610 N.pl3 301  995301      0.1354
@<TRIPOS>BOND
     1    22    21    1
     2    30    28    1
     3    21    23    1
     4    21    20    1
     5    28    29    1
     6    28    27    2
     7    20    19    1
     8    27    26    1
     9    19    18    1
    10    24    18    2
    11    18    17   am
    12    26    10    1
    13    10     9    1
    14    17    13    1
    15    25    12    2
    16    13    12    1
    17    13    14    1
    18     9     2    1
    19    12    11   am
    20    11     2    1
    21     2     1    1
    22    14    16    1
    23    14    15    1
    24     1     4    1
    25     1     3    1
    26     3     5   ar
    27     3     8   ar
    28     5     6   ar
    29     8     7   ar
    30     7     6   ar
