@<TRIPOS>MOLECULE
1zpc_716_A_1.pdb
 34 35 0 0 0
SMALL
GASTEIGER

@<TRIPOS>ATOM
      1  CX        11.3730   51.0630   25.0880 C.3   301  716301      0.2173
      2  CY        11.7040   51.1250   23.5590 C.3   301  716301      0.1320
      3  CZ        11.5820   52.3130   25.8020 C.ar  301  716301      0.1203
      4  OX         9.9920   50.7170   25.1400 O.3   301  716301     -0.2142
      5  N2        13.1740   51.3280   23.4730 N.am  301  716301     -0.2027
      6  C3        11.4700   49.8080   22.7890 C.3   301  716301      0.0284
      7  C4        12.1050   49.7330   21.4140 C.3   301  716301      0.0488
      8  C5        11.5080   48.6020   20.6400 C.3   301  716301      0.2205
      9  N6        11.5290   48.9980   19.2300 N.pl3 301  716301     -0.0865
     10  C7        11.3190   48.1750   18.1840 C.cat 301  716301      0.5346
     11  N8        11.0640   46.8670   18.3780 N.pl3 301  716301      0.1354
     12  N9        11.3710   48.6820   16.9450 N.pl3 301  716301      0.1354
     13  N10       12.6300   52.5620   26.4950 N.ar  301  716301     -0.2386
     14  C11       12.5680   53.8220   27.0680 C.ar  301  716301      0.1061
     15  C12       11.4130   54.4910   26.7570 C.ar  301  716301      0.0573
     16  S13       10.4060   53.5650   25.7590 S.2   301  716301     -0.0677
     17  N14       15.7550   53.1180   21.8330 N.am  301  716301     -0.1954
     18  C15       15.3470   52.4030   23.0550 C.3   301  716301      0.1727
     19  C16       13.7960   52.4470   23.0680 C.2   301  716301      0.2612
     20  O17       13.1730   53.4630   22.7090 O.2   301  716301     -0.2715
     21  C18       15.9350   53.0890   24.3480 C.3   301  716301      0.0290
     22  C19       17.4550   53.0230   24.3190 C.3   301  716301      0.0023
     23  C20       15.5740   54.5920   24.4980 C.3   301  716301      0.0023
     24  C21       15.4520   52.7760   20.5480 C.2   301  716301      0.2766
     25  C22       16.0000   53.7440   19.4610 C.3   301  716301      0.2513
     26  O23       14.7820   51.7740   20.2450 O.2   301  716301     -0.2702
     27  O24       14.9890   53.9260   18.4780 O.3   301  716301     -0.2083
     28  C25       17.3060   53.2040   18.8110 C.ar  301  716301      0.0175
     29  C26       18.4710   52.9490   19.6600 C.ar  301  716301     -0.0013
     30  C27       19.6990   52.4470   19.0900 C.ar  301  716301      0.0006
     31  C28       19.8140   52.1840   17.6830 C.ar  301  716301      0.0114
     32  C29       18.6980   52.4170   16.8020 C.ar  301  716301      0.0574
     33  C30       17.4380   52.9280   17.3600 C.ar  301  716301      0.0100
     34 CL31       18.8870   52.0820   15.1350 Cl    301  716301     -0.0823
@<TRIPOS>BOND
     1    34    32    1
     2    32    33   ar
     3    32    31   ar
     4    12    10    1
     5    33    28   ar
     6    31    30   ar
     7    10    11    1
     8    10     9    2
     9    27    25    1
    10    28    25    1
    11    28    29   ar
    12    30    29   ar
    13     9     8    1
    14    25    24    1
    15    26    24    2
    16    24    17   am
    17     8     7    1
    18     7     6    1
    19    17    18    1
    20    20    19    2
    21     6     2    1
    22    18    19    1
    23    18    21    1
    24    19     5   am
    25     5     2    1
    26     2     1    1
    27    22    21    1
    28    21    23    1
    29     1     4    1
    30     1     3    1
    31    16     3   ar
    32    16    15   ar
    33     3    13   ar
    34    13    14   ar
    35    15    14   ar
