@<TRIPOS>MOLECULE
1zpd_DPX_A_1.pdb
 26 26 0 0 0
SMALL
GASTEIGER

@<TRIPOS>ATOM
      1  C4       -14.8140   10.9910   23.2650 C.2   600  DPX600      0.0453
      2  C5       -15.3850   12.1590   23.7410 C.3   600  DPX600      0.1261
      3  O21      -14.5760   15.1210   29.0430 O.3   600  DPX600     -0.4370
      4  O22      -15.9560   16.3730   27.2510 O.3   600  DPX600     -0.2261
      5  O26      -18.1120   15.6710   26.5700 O.2   600  DPX600     -0.2221
      6  O25      -17.9660   17.9050   27.4180 O.3   600  DPX600     -0.1143
      7  O24      -17.5310   15.9650   28.9520 O.3   600  DPX600     -0.1143
      8  P23      -17.4710   16.5530   27.5840 P.3   600  DPX600      0.5373
      9  P19      -14.6620   15.5070   27.6310 P.3   600  DPX600      0.2231
     10  O20      -13.4090   15.9850   27.1020 O.2   600  DPX600     -0.5169
     11  O18      -14.9230   14.0340   26.9420 O.3   600  DPX600     -0.3110
     12  C17      -14.8980   13.9260   25.4960 C.3   600  DPX600      0.1831
     13  C16      -15.6020   12.6170   25.1860 C.3   600  DPX600      0.1977
     14  C15      -14.2560    9.8950   24.1620 C.3   600  DPX600      0.0478
     15  N3       -14.7450   10.8690   21.9220 N.2   600  DPX600     -0.2730
     16  O27      -16.8920   12.5010   25.5390 O.3   600  DPX600     -0.2191
     17  S1       -15.9740   13.2280   22.4910 S.3   600  DPX600     -0.0742
     18  C6       -14.1360    9.6190   21.2150 C.3   600  DPX600      0.1566
     19  C7       -12.6620    9.7190   20.9510 C.2   600  DPX600      0.0698
     20  C8       -12.1100   10.7840   20.0930 C.2   600  DPX600      0.2295
     21  N9       -10.7780   10.8510   19.8710 N.2   600  DPX600     -0.3368
     22  C10       -9.9670    9.9820   20.4380 C.1   600  DPX600      0.0663
     23  N11      -10.4430    8.8570   21.0880 N.2   600  DPX600     -0.1861
     24  C12      -11.7530    8.8300   21.4480 C.2   600  DPX600      0.1118
     25  N13      -12.9400   11.6910   19.5440 N.pl3 600  DPX600     -0.0924
     26  C14       -8.5180   10.0460   20.2250 C.3   600  DPX600      0.1291
@<TRIPOS>BOND
     1    25    20    1
     2    21    20    2
     3    21    22    2
     4    20    19    1
     5    26    22    1
     6    22    23    2
     7    19    18    1
     8    19    24    2
     9    23    24    1
    10    18    15    1
    11    15     1    2
    12    17     2    1
    13     1     2    1
    14     1    14    1
    15     2    13    1
    16    13    12    1
    17    13    16    1
    18    12    11    1
    19     5     8    2
    20    11     9    1
    21    10     9    2
    22     4     8    1
    23     4     9    1
    24     6     8    1
    25     8     7    1
    26     9     3    1
