@<TRIPOS>MOLECULE
1zpl_MAG_A_1.pdb
 16 16 0 0 0
SMALL
GASTEIGER

@<TRIPOS>ATOM
      1  C1        -0.9430  -18.9160   34.5860 C.3   700  MAG700      0.2586
      2  C2        -1.2250  -17.4730   34.0630 C.3   700  MAG700      0.1842
      3  C3         0.0810  -16.7330   33.9080 C.3   700  MAG700      0.2094
      4  C4         0.8010  -16.7110   35.2450 C.3   700  MAG700      0.2136
      5  C5         1.0290  -18.1560   35.7420 C.3   700  MAG700      0.1834
      6  C6         1.7360  -18.1760   37.1070 C.3   700  MAG700      0.2142
      7  C7        -3.1670  -17.1210   32.6040 C.2   700  MAG700      0.2420
      8  C8        -3.6990  -17.2470   31.1880 C.3   700  MAG700      0.0964
      9  N2        -1.8990  -17.5340   32.7570 N.am  700  MAG700     -0.1992
     10  O1        -2.1380  -19.5980   34.7720 O.3   700  MAG700     -0.3265
     11  O3        -0.1440  -15.4270   33.4580 O.3   700  MAG700     -0.2183
     12  O4         2.0410  -16.0250   35.0980 O.3   700  MAG700     -0.2176
     13  O5        -0.2100  -18.8480   35.8660 O.3   700  MAG700     -0.3262
     14  O6         0.9400  -17.5700   38.1020 O.3   700  MAG700     -0.2176
     15  O7        -3.9060  -16.6590   33.5010 O.2   700  MAG700     -0.2733
     16  CM        -2.0040  -20.8120   35.0360 C.3   700  MAG700      0.1769
@<TRIPOS>BOND
     1     8     7    1
     2     7     9   am
     3     7    15    2
     4     9     2    1
     5    11     3    1
     6     3     2    1
     7     3     4    1
     8     2     1    1
     9     1    10    1
    10     1    13    1
    11    10    16    1
    12    12     4    1
    13     4     5    1
    14     5    13    1
    15     5     6    1
    16     6    14    1
