@<TRIPOS>MOLECULE
1zpr_CB3_A_1.pdb
 35 37 0 0 0
SMALL
GASTEIGER

@<TRIPOS>ATOM
      1  N1        13.3630   18.8950   30.6850 N.2   300  CB3300     -0.3245
      2  C2        13.0220   19.6190   31.7820 C.1   300  CB3300      0.2518
      3  NA2       11.9970   20.4730   31.7300 N.pl3 300  CB3300     -0.0226
      4  N3        13.6880   19.4460   32.9430 N.2   300  CB3300     -0.2501
      5  C4        14.6100   18.4740   33.0740 C.1   300  CB3300      0.2183
      6  O4        15.2150   18.3200   34.2980 O.2   300  CB3300     -0.2085
      7  C4A       14.9190   17.6240   31.9950 C.ar  300  CB3300      0.1259
      8  C5        15.7920   16.5190   32.1000 C.ar  300  CB3300      0.0166
      9  C6        16.0560   15.6610   30.9980 C.ar  300  CB3300      0.0158
     10  C7        15.4540   15.9920   29.7640 C.ar  300  CB3300      0.0040
     11  C8        14.5700   17.0860   29.6400 C.ar  300  CB3300      0.0339
     12  C8A       14.2820   17.8990   30.7540 C.ar  300  CB3300      0.1570
     13  C9        16.6390   14.2980   31.1740 C.2   300  CB3300      0.0661
     14  N10       16.8560   13.8390   32.5780 N.pl3 300  CB3300     -0.2741
     15  C11       13.8600   13.2110   35.5140 C.ar  300  CB3300      0.0551
     16  C12       13.5790   13.0320   34.1440 C.ar  300  CB3300      0.0058
     17  C13       14.5790   13.2320   33.1740 C.ar  300  CB3300      0.0150
     18  C14       15.8960   13.6200   33.5350 C.ar  300  CB3300      0.0524
     19  C15       16.1620   13.7970   34.9190 C.ar  300  CB3300      0.0150
     20  C16       15.1620   13.6000   35.8940 C.ar  300  CB3300      0.0058
     21  C         12.8390   12.9120   36.5130 C.2   300  CB3300      0.2652
     22  O         11.6380   13.2040   36.3860 O.2   300  CB3300     -0.2684
     23  N         13.2570   12.2150   37.5770 N.am  300  CB3300     -0.1918
     24  CA        12.4450   11.9970   38.7920 C.3   300  CB3300      0.1986
     25  CB        12.8900   10.6970   39.5020 C.3   300  CB3300      0.0451
     26  CG        12.1730    9.3680   39.1570 C.3   300  CB3300      0.1164
     27  CD        12.7560    8.5080   38.0380 C.2   300  CB3300      0.3649
     28  OE1       13.8450    7.9440   38.2130 O.co2 300  CB3300     -0.2457
     29  OE2       12.0870    8.3710   37.0080 O.co2 300  CB3300     -0.2457
     30  CT        12.5240   13.1410   39.8180 C.2   300  CB3300      0.3842
     31  O1        13.5610   13.8120   39.8990 O.co2 300  CB3300     -0.2437
     32  O2        11.5670   13.3140   40.5800 O.co2 300  CB3300     -0.2437
     33  CP1       18.2680   13.7410   32.9360 C.3   300  CB3300      0.1735
     34  CP2       18.7410   14.9660   33.5900 C.1   300  CB3300     -0.0554
     35  CP3       19.1460   15.9790   34.0920 C.1   300  CB3300     -0.0124
@<TRIPOS>BOND
     1    11    10   ar
     2    11    12   ar
     3    10     9   ar
     4     1    12    2
     5     1     2    2
     6    12     7   ar
     7     9    13    2
     8     9     8   ar
     9    13    14    1
    10     3     2    1
    11     2     4    2
    12     7     8   ar
    13     7     5    1
    14    14    33    1
    15    14    18    1
    16    33    34    1
    17     4     5    2
    18     5     6    2
    19    17    18   ar
    20    17    16   ar
    21    18    19   ar
    22    34    35    3
    23    16    15   ar
    24    19    20   ar
    25    15    20   ar
    26    15    21    1
    27    22    21    2
    28    21    23   am
    29    29    27   ar
    30    23    24    1
    31    27    28   ar
    32    27    26    1
    33    24    25    1
    34    24    30    1
    35    26    25    1
    36    30    31   ar
    37    30    32   ar
