@<TRIPOS>MOLECULE
1zpr_UMP_A_1.pdb
 20 21 0 0 0
SMALL
GASTEIGER

@<TRIPOS>ATOM
      1  N1        17.7070   20.3720   31.3050 N.am  301  UMP301     -0.2018
      2  C2        18.3770   20.1360   32.5280 C.1   301  UMP301      0.2802
      3  N3        19.2320   19.0480   32.6250 N.2   301  UMP301     -0.2497
      4  C4        19.5230   18.1510   31.6060 C.1   301  UMP301      0.1941
      5  C5        19.2170   18.6050   30.1910 C.3   301  UMP301      0.1579
      6  C6        18.1160   19.7020   30.0180 C.3   301  UMP301      0.1249
      7  O2        18.2380   20.8480   33.5250 O.2   301  UMP301     -0.1922
      8  O4        20.0360   17.0500   31.8170 O.2   301  UMP301     -0.2133
      9  C1'       16.4600   21.2060   31.2620 C.3   301  UMP301      0.2048
     10  C2'       16.6040   22.6930   31.0250 C.3   301  UMP301      0.0871
     11  C3'       15.1960   23.2000   30.6410 C.3   301  UMP301      0.1857
     12  C4'       14.8020   22.0540   29.7020 C.3   301  UMP301      0.1774
     13  O3'       14.3230   23.1990   31.7950 O.3   301  UMP301     -0.2203
     14  O4'       15.4290   20.8500   30.2740 O.3   301  UMP301     -0.3342
     15  C5'       15.3310   22.1910   28.2680 C.3   301  UMP301      0.1858
     16  O5'       14.6110   23.2530   27.5560 O.3   301  UMP301     -0.2675
     17  P         15.2640   24.1590   26.3990 P.3   301  UMP301      0.5327
     18  OP1       14.2870   25.0400   25.7330 O.3   301  UMP301     -0.1145
     19  OP2       16.2100   25.0110   27.1470 O.3   301  UMP301     -0.1145
     20  OP3       15.9230   23.3700   25.3430 O.2   301  UMP301     -0.2224
@<TRIPOS>BOND
     1    20    17    2
     2    18    17    1
     3    17    19    1
     4    17    16    1
     5    16    15    1
     6    15    12    1
     7    12    14    1
     8    12    11    1
     9     6     5    1
    10     6     1    1
    11     5     4    1
    12    14     9    1
    13    11    10    1
    14    11    13    1
    15    10     9    1
    16     9     1    1
    17     1     2   am
    18     4     8    2
    19     4     3    2
    20     2     3    2
    21     2     7    2
