@<TRIPOS>MOLECULE
1zpt_NAD_A_1.pdb
 44 48 0 0 0
SMALL
GASTEIGER

@<TRIPOS>ATOM
      1  PA        11.9380  -21.6830  -17.2210 P.3   895  NAD895      0.2189
      2  O1A       12.8210  -22.7330  -16.6700 O.3   895  NAD895     -0.4371
      3  O2A       10.4690  -21.8900  -17.1560 O.2   895  NAD895     -0.5170
      4  O5B       12.3170  -20.2700  -16.5450 O.3   895  NAD895     -0.3112
      5  C5B       11.2940  -19.4260  -16.0050 C.3   895  NAD895      0.1813
      6  C4B       11.8870  -18.0600  -15.6640 C.3   895  NAD895      0.1821
      7  O4B       12.9950  -18.1250  -14.7060 O.3   895  NAD895     -0.3135
      8  C3B       12.4500  -17.3510  -16.8770 C.3   895  NAD895      0.2184
      9  O3B       11.4030  -16.6470  -17.5490 O.3   895  NAD895     -0.2174
     10  C2B       13.4090  -16.3750  -16.2650 C.3   895  NAD895      0.2570
     11  O2B       12.6890  -15.2590  -15.7290 O.3   895  NAD895     -0.2130
     12  C1B       14.0490  -17.1680  -15.1220 C.3   895  NAD895      0.3186
     13  N9A       15.2050  -17.9550  -15.6500 N.pl3 895  NAD895     -0.1439
     14  C8A       15.1840  -19.2400  -16.0360 C.3   895  NAD895      0.3377
     15  N7A       16.4070  -19.5960  -16.4450 N.2   895  NAD895     -0.2095
     16  C5A       17.2010  -18.5410  -16.3200 C.2   895  NAD895      0.2526
     17  C6A       18.5480  -18.3140  -16.5860 C.2   895  NAD895      0.4393
     18  N6A       19.3080  -19.2910  -17.0720 N.pl3 895  NAD895      0.2180
     19  N1A       19.0760  -17.0890  -16.3460 N.2   895  NAD895      0.0021
     20  C2A       18.3210  -16.0960  -15.8570 C.3   895  NAD895      0.5254
     21  N3A       17.0230  -16.2940  -15.5940 N.2   895  NAD895     -0.0055
     22  C4A       16.4450  -17.5000  -15.8160 C.2   895  NAD895      0.3518
     23  O3        12.3270  -21.4520  -18.7700 O.3   895  NAD895     -0.2703
     24  PN        11.4560  -20.4670  -19.7090 P.3   895  NAD895      0.2189
     25  O1N       10.3380  -21.2270  -20.3120 O.2   895  NAD895     -0.5170
     26  O2N       11.1420  -19.2220  -18.9650 O.3   895  NAD895     -0.4371
     27  O5D       12.5040  -20.0790  -20.8680 O.3   895  NAD895     -0.3112
     28  C5D       12.8200  -21.0180  -21.9060 C.3   895  NAD895      0.1813
     29  C4D       14.3180  -21.3950  -21.8880 C.3   895  NAD895      0.1799
     30  O4D       15.0770  -20.1300  -21.9730 O.3   895  NAD895     -0.3327
     31  C3D       14.7190  -22.0080  -20.5490 C.3   895  NAD895      0.2158
     32  O3D       15.8690  -22.8500  -20.7040 O.3   895  NAD895     -0.2175
     33  C2D       15.0590  -20.8310  -19.6840 C.3   895  NAD895      0.2309
     34  O2D       16.0160  -21.1970  -18.6820 O.3   895  NAD895     -0.2158
     35  C1D       15.6860  -19.8430  -20.6620 C.3   895  NAD895      0.2263
     36  N1N       15.5380  -18.4270  -20.2350 N.pl3 895  NAD895     -0.2787
     37  C2N       16.6910  -17.6630  -19.9260 C.3   895  NAD895      0.1244
     38  C3N       16.5480  -16.3320  -19.5010 C.2   895  NAD895      0.0544
     39  C7N       17.7850  -15.4850  -19.1620 C.2   895  NAD895      0.2818
     40  O7N       17.6680  -14.3300  -18.7530 O.2   895  NAD895     -0.2670
     41  N7N       18.9580  -16.0890  -19.3440 N.am  895  NAD895     -0.0839
     42  C4N       15.2620  -15.7720  -19.3880 C.2   895  NAD895      0.0033
     43  C5N       14.1150  -16.5210  -19.6950 C.2   895  NAD895      0.0157
     44  C6N       14.2450  -17.8480  -20.1200 C.2   895  NAD895      0.0633
@<TRIPOS>BOND
     1    30    29    1
     2    30    35    1
     3    28    29    1
     4    28    27    1
     5    29    31    1
     6    27    24    1
     7    32    31    1
     8    35    36    1
     9    35    33    1
    10    31    33    1
    11    25    24    2
    12    36    44    1
    13    36    37    1
    14    44    43    2
    15    37    38    1
    16    24    26    1
    17    24    23    1
    18    43    42    1
    19    33    34    1
    20    38    42    2
    21    38    39    1
    22    41    39   am
    23    39    40    2
    24    23     1    1
    25     9     8    1
    26     1     3    2
    27     1     2    1
    28     1     4    1
    29    18    17    1
    30     8    10    1
    31     8     6    1
    32    17    19    2
    33    17    16    1
    34     4     5    1
    35    15    16    2
    36    15    14    1
    37    19    20    1
    38    16    22    1
    39    10    11    1
    40    10    12    1
    41    14    13    1
    42     5     6    1
    43    20    21    1
    44    22    13    1
    45    22    21    2
    46     6     7    1
    47    13    12    1
    48    12     7    1
