@<TRIPOS>MOLECULE
1zpu_MAN_A_1.pdb
 11 11 0 0 0
SMALL
GASTEIGER

@<TRIPOS>ATOM
      1  C1        82.0420   81.2580   80.2360 C.3   3011  MAN3011     0.1777
      2  C2        82.1960   82.4420   79.2890 C.3   3011  MAN3011     0.2141
      3  C3        83.4530   83.2420   79.6000 C.3   3011  MAN3011     0.2173
      4  C4        83.5160   83.5590   81.0870 C.3   3011  MAN3011     0.2142
      5  C5        83.4260   82.2890   81.9050 C.3   3011  MAN3011     0.1810
      6  C6        83.4130   82.6370   83.3810 C.3   3011  MAN3011     0.2141
      7  O2        81.0980   83.2970   79.4510 O.3   3011  MAN3011    -0.2176
      8  O3        83.4470   84.4550   78.8800 O.3   3011  MAN3011    -0.2175
      9  O4        84.7150   84.2190   81.3860 O.3   3011  MAN3011    -0.2176
     10  O5        82.2130   81.6430   81.5880 O.3   3011  MAN3011    -0.3481
     11  O6        83.1770   81.4450   84.0940 O.3   3011  MAN3011    -0.2176
@<TRIPOS>BOND
     1     8     3    1
     2     2     7    1
     3     2     3    1
     4     2     1    1
     5     3     4    1
     6     1    10    1
     7     4     9    1
     8     4     5    1
     9    10     5    1
    10     5     6    1
    11     6    11    1
