@<TRIPOS>MOLECULE
1zpz_BUK_A_1.pdb
 43 44 0 0 0
SMALL
GASTEIGER

@<TRIPOS>ATOM
      1  CX        -1.0050   20.6490    7.1480 C.3   900  BUK900      0.2173
      2  CY        -1.2130   19.6440    8.3130 C.3   900  BUK900      0.1320
      3  CZ        -0.3070   21.9230    7.6300 C.ar  900  BUK900      0.1203
      4  OX        -0.2090   19.9840    6.1570 O.3   900  BUK900     -0.2142
      5  N02       -2.0670   20.2950    9.3220 N.am  900  BUK900     -0.2027
      6  C06       -1.9130   18.3480    7.8490 C.3   900  BUK900      0.0284
      7  C07       -2.2320   17.4080    9.0210 C.3   900  BUK900      0.0488
      8  C08       -2.8060   16.0860    8.5580 C.3   900  BUK900      0.2205
      9  N09       -2.8030   15.1800    9.7040 N.pl3 900  BUK900     -0.0865
     10  C10       -3.1040   13.8790    9.7220 C.cat 900  BUK900      0.5346
     11  N11       -3.8360   13.3130    8.7510 N.pl3 900  BUK900      0.1354
     12  NP2       -2.6440   13.1530   10.7320 N.pl3 900  BUK900      0.1354
     13  N13       -0.9850   22.9920    7.8390 N.ar  900  BUK900     -0.2386
     14  C14       -0.1330   24.0060    8.2770 C.ar  900  BUK900      0.1061
     15  C15        1.1910   23.5890    8.3660 C.ar  900  BUK900      0.0573
     16  S16        1.3970   21.9580    7.9120 S.2   900  BUK900     -0.0677
     17  N17       -2.6510   20.8560   12.7900 N.am  900  BUK900     -0.1963
     18  C18       -2.8140   21.3860   11.4000 C.3   900  BUK900      0.1727
     19  C19       -1.7030   20.7500   10.5220 C.2   900  BUK900      0.2612
     20  O20       -0.5360   20.6760   10.9360 O.2   900  BUK900     -0.2715
     21  C21       -2.7100   22.9450   11.3490 C.3   900  BUK900      0.0290
     22  C22       -4.0090   23.5860   11.8720 C.3   900  BUK900      0.0023
     23  C23       -1.5300   23.4890   12.1850 C.3   900  BUK900      0.0023
     24  N24       -1.7140   20.1050   15.2520 N.am  900  BUK900     -0.1790
     25  C25       -2.5440   19.1230   14.5860 C.3   900  BUK900      0.1835
     26  C26       -2.7320   19.5410   13.1300 C.2   900  BUK900      0.2622
     27  O27       -2.9570   18.6570   12.3120 O.2   900  BUK900     -0.2715
     28  C28       -3.9050   19.0330   15.3050 C.3   900  BUK900      0.1196
     29  C29       -3.7710   18.5930   16.7780 C.2   900  BUK900      0.2630
     30  O30       -2.6680   18.3420   17.2860 O.2   900  BUK900     -0.2716
     31  N31       -4.8840   18.4840   17.4940 N.am  900  BUK900     -0.0877
     32  C32       -0.3790   20.0570   15.3120 C.2   900  BUK900      0.3399
     33  O33        0.2610   19.1210   14.7740 O.2   900  BUK900     -0.2492
     34  N34        0.2120   21.0770   15.9800 N.am  900  BUK900     -0.1845
     35  C35        1.6520   21.2820   16.1850 C.3   900  BUK900      0.1192
     36  C36        2.3340   21.4260   14.8210 C.ar  900  BUK900     -0.0025
     37  C37        3.6020   20.7960   14.5840 C.ar  900  BUK900     -0.0021
     38  C38        4.2470   20.9320   13.3250 C.ar  900  BUK900      0.0064
     39  C39        3.6390   21.6990   12.2810 C.ar  900  BUK900      0.0345
     40  C40        2.3850   22.3270   12.4990 C.ar  900  BUK900      0.0064
     41  C41        1.7320   22.1990   13.7510 C.ar  900  BUK900     -0.0021
     42 BR          4.4930   21.8930   10.6330 Br    900  BUK900     -0.0490
     43  C43        1.8590   22.5420   17.0520 C.3   900  BUK900      0.0284
@<TRIPOS>BOND
     1     4     1    1
     2     1     3    1
     3     1     2    1
     4     3    13   ar
     5     3    16   ar
     6    13    14   ar
     7     6     2    1
     8     6     7    1
     9    16    15   ar
    10    14    15   ar
    11     2     5    1
    12     8     7    1
    13     8     9    1
    14    11    10    1
    15     5    19   am
    16     9    10    2
    17    10    12    1
    18    19    20    2
    19    19    18    1
    20    42    39    1
    21    21    18    1
    22    21    22    1
    23    21    23    1
    24    18    17    1
    25    39    40   ar
    26    39    38   ar
    27    27    26    2
    28    40    41   ar
    29    17    26   am
    30    26    25    1
    31    38    37   ar
    32    41    36   ar
    33    37    36   ar
    34    25    24    1
    35    25    28    1
    36    33    32    2
    37    36    35    1
    38    24    32   am
    39    28    29    1
    40    32    34   am
    41    34    35    1
    42    35    43    1
    43    29    30    2
    44    29    31   am
