@<TRIPOS>MOLECULE
1zq5_E04_A_1.pdb
 29 33 0 0 0
SMALL
GASTEIGER

@<TRIPOS>ATOM
      1  O26       29.8520   21.2490   17.2310 O.2   400  E04400     -0.2501
      2  C20       30.5050   21.7390   16.3230 C.2   400  E04400      0.3157
      3  C21       31.2840   20.8820   15.3460 C.3   400  E04400      0.0897
      4  C25       30.3160   19.9010   14.7030 C.3   400  E04400      0.0111
      5  C24       32.3510   20.1080   16.1090 C.3   400  E04400      0.0111
      6  C22       31.9680   21.7170   14.2570 C.3   400  E04400      0.0141
      7  C23       32.4510   23.0740   14.7600 C.3   400  E04400      0.0406
      8  C17       31.2660   23.9160   15.2520 C.3   400  E04400      0.1357
      9  O19       30.5100   23.1720   16.2280 O.3   400  E04400     -0.4558
     10  C13       31.6720   25.2290   15.9230 C.3   400  E04400      0.0337
     11  C18       30.4780   25.7410   16.7540 C.3   400  E04400      0.0035
     12  C14       31.9620   26.1060   14.7040 C.3   400  E04400      0.0037
     13  C15       30.7630   25.8490   13.7900 C.3   400  E04400      0.0037
     14  C16       30.3930   24.3810   14.0690 C.3   400  E04400      0.0401
     15  C8        32.3670   27.5440   15.0720 C.3   400  E04400      0.0045
     16  C9        33.5500   27.5120   16.0550 C.3   400  E04400      0.0220
     17  C11       33.3160   26.5850   17.2570 C.3   400  E04400      0.0045
     18  C12       32.9130   25.1690   16.8170 C.3   400  E04400      0.0037
     19  C10       33.9540   28.8880   16.4730 C.ar  400  E04400     -0.0264
     20  C1        34.6260   29.0750   17.6860 C.ar  400  E04400     -0.0044
     21  C2        35.0300   30.3590   18.0700 C.ar  400  E04400      0.0043
     22  C3        34.7680   31.4530   17.2460 C.ar  400  E04400      0.0563
     23  C27       35.1930   32.8450   17.6330 C.2   400  E04400      0.2842
     24  O29       34.9600   33.8490   16.7910 O.2   400  E04400     -0.2667
     25  N28       35.7770   33.0640   18.7350 N.am  400  E04400     -0.0837
     26  C4        34.1020   31.2540   16.0360 C.ar  400  E04400      0.0000
     27  C5        33.6950   29.9790   15.6440 C.ar  400  E04400     -0.0260
     28  C6        32.9810   29.8530   14.3050 C.3   400  E04400      0.0260
     29  C7        32.8060   28.3940   13.8800 C.3   400  E04400      0.0050
@<TRIPOS>BOND
     1    13    14    1
     2    13    12    1
     3    29    28    1
     4    29    15    1
     5    14     8    1
     6     6     7    1
     7     6     3    1
     8    28    27    1
     9     4     3    1
    10    12    15    1
    11    12    10    1
    12     7     8    1
    13    15    16    1
    14     8    10    1
    15     8     9    1
    16     3     5    1
    17     3     2    1
    18    27    26   ar
    19    27    19   ar
    20    10    11    1
    21    10    18    1
    22    26    22   ar
    23    16    19    1
    24    16    17    1
    25     9     2    1
    26     2     1    2
    27    19    20   ar
    28    24    23    2
    29    18    17    1
    30    22    23    1
    31    22    21   ar
    32    23    25   am
    33    20    21   ar
