@<TRIPOS>MOLECULE
1zq5_NAP_A_1.pdb
 48 52 0 0 0
SMALL
GASTEIGER

@<TRIPOS>ATOM
      1  PA        26.7870   28.3020    3.1890 P.3   600  NAP600      0.2189
      2  O1A       25.3140   28.4990    3.2210 O.3   600  NAP600     -0.4371
      3  O2A       27.3080   26.9160    3.0290 O.2   600  NAP600     -0.5170
      4  O5B       27.3420   29.2420    2.0260 O.3   600  NAP600     -0.3112
      5  C5B       28.7310   29.2240    1.7320 C.3   600  NAP600      0.1813
      6  C4B       29.0490   30.3210    0.7290 C.3   600  NAP600      0.1820
      7  O4B       28.2620   30.1350   -0.4320 O.3   600  NAP600     -0.3136
      8  C3B       28.7050   31.7080    1.2510 C.3   600  NAP600      0.2157
      9  O3B       29.8050   32.3170    1.9190 O.3   600  NAP600     -0.2175
     10  C2B       28.2540   32.4610    0.0040 C.3   600  NAP600      0.2314
     11  O2B       29.1650   33.4800   -0.3550 O.3   600  NAP600     -0.2630
     12  C1B       28.1780   31.3890   -1.0860 C.3   600  NAP600      0.3158
     13  N9A       26.9260   31.4110   -1.8620 N.pl3 600  NAP600     -0.1439
     14  C8A       25.6590   31.6260   -1.3840 C.3   600  NAP600      0.3377
     15  N7A       24.7960   31.5260   -2.4090 N.2   600  NAP600     -0.2095
     16  C5A       25.4950   31.2590   -3.5400 C.2   600  NAP600      0.2526
     17  C6A       25.1160   31.0650   -4.8640 C.2   600  NAP600      0.4393
     18  N6A       23.8260   31.0920   -5.2100 N.pl3 600  NAP600      0.2180
     19  N1A       26.1010   30.7990   -5.7910 N.2   600  NAP600      0.0021
     20  C2A       27.4290   30.7240   -5.4290 C.3   600  NAP600      0.5254
     21  N3A       27.8010   30.9120   -4.1170 N.2   600  NAP600     -0.0055
     22  C4A       26.8360   31.1660   -3.2000 C.2   600  NAP600      0.3518
     23  O3        27.4400   29.0300    4.4830 O.3   600  NAP600     -0.2703
     24  PN        27.5460   28.6290    6.0380 P.3   600  NAP600      0.2189
     25  O1N       27.7860   29.8930    6.7600 O.3   600  NAP600     -0.4371
     26  O2N       28.4970   27.5250    6.2460 O.2   600  NAP600     -0.5170
     27  O5D       26.0950   28.0570    6.4290 O.3   600  NAP600     -0.3112
     28  C5D       24.9410   28.8730    6.3490 C.3   600  NAP600      0.1813
     29  C4D       24.4520   29.3320    7.7230 C.3   600  NAP600      0.1799
     30  O4D       24.2010   28.2080    8.5550 O.3   600  NAP600     -0.3327
     31  C3D       25.3790   30.2320    8.5470 C.3   600  NAP600      0.2158
     32  O3D       25.4350   31.5700    8.0810 O.3   600  NAP600     -0.2175
     33  C2D       24.7180   30.0670    9.8990 C.3   600  NAP600      0.2309
     34  O2D       23.5180   30.8220    9.9220 O.3   600  NAP600     -0.2158
     35  C1D       24.3860   28.5640    9.9060 C.3   600  NAP600      0.2263
     36  N1N       25.4980   27.7550   10.4690 N.pl3 600  NAP600     -0.2787
     37  C2N       25.3470   27.2110   11.7100 C.3   600  NAP600      0.1244
     38  C3N       26.3550   26.4520   12.2770 C.2   600  NAP600      0.0544
     39  C7N       26.0770   25.7610   13.5670 C.2   600  NAP600      0.2818
     40  O7N       27.1680   25.3280   14.2900 O.2   600  NAP600     -0.2670
     41  N7N       24.8260   25.5630   13.9790 N.am  600  NAP600     -0.0839
     42  C4N       27.5650   26.2520   11.6060 C.2   600  NAP600      0.0033
     43  C5N       27.7210   26.8060   10.3370 C.2   600  NAP600      0.0157
     44  C6N       26.6730   27.5460    9.7800 C.2   600  NAP600      0.0633
     45  P2B       28.6250   34.9900   -0.5520 P.3   600  NAP600      0.5328
     46  O1X       28.2160   35.5330    0.7990 O.3   600  NAP600     -0.1145
     47  O2X       29.7890   35.7720   -1.1250 O.3   600  NAP600     -0.1145
     48  O3X       27.4640   34.9430   -1.4980 O.2   600  NAP600     -0.2224
@<TRIPOS>BOND
     1    19    20    1
     2    19    17    2
     3    20    21    1
     4    18    17    1
     5    17    16    1
     6    21    22    2
     7    16    22    1
     8    16    15    2
     9    22    13    1
    10    15    14    1
    11    13    14    1
    12    13    12    1
    13    48    45    2
    14    47    45    1
    15    12     7    1
    16    12    10    1
    17    45    11    1
    18    45    46    1
    19     7     6    1
    20    11    10    1
    21    10     8    1
    22     6     8    1
    23     6     5    1
    24     8     9    1
    25     5     4    1
    26     4     1    1
    27     3     1    2
    28     1     2    1
    29     1    23    1
    30    23    24    1
    31    24    26    2
    32    24    27    1
    33    24    25    1
    34    28    27    1
    35    28    29    1
    36    29    31    1
    37    29    30    1
    38    32    31    1
    39    31    33    1
    40    30    35    1
    41    44    43    2
    42    44    36    1
    43    33    35    1
    44    33    34    1
    45    35    36    1
    46    43    42    1
    47    36    37    1
    48    42    38    2
    49    37    38    1
    50    38    39    1
    51    39    41   am
    52    39    40    2
