@<TRIPOS>MOLECULE
1zq9_SAM_A_1.pdb
 27 29 0 0 0
SMALL
GASTEIGER

@<TRIPOS>ATOM
      1  N         -6.2850   34.5950    4.0150 N.3   4000  SAM4000    -0.1208
      2  CA        -6.3010   33.4410    3.0580 C.3   4000  SAM4000     0.1952
      3  C         -6.1940   32.1430    3.8880 C.2   4000  SAM4000     0.3819
      4  O         -5.1560   31.4630    3.9390 O.co2 4000  SAM4000    -0.2441
      5  OXT       -7.1580   31.7480    4.5660 O.co2 4000  SAM4000    -0.2441
      6  CB        -5.2280   33.6320    1.9560 C.3   4000  SAM4000     0.0414
      7  CG        -5.3830   34.8080    0.9720 C.3   4000  SAM4000     0.0503
      8  SD        -3.9840   35.9990    0.9100 S.3   4000  SAM4000    -0.1761
      9  CE        -4.6650   37.6650    0.7630 C.3   4000  SAM4000     0.0590
     10  C5'       -3.2920   35.7240   -0.7240 C.3   4000  SAM4000     0.0806
     11  C4'       -2.0090   36.5410   -0.8340 C.3   4000  SAM4000     0.1622
     12  O4'       -1.0210   35.7580   -1.4580 O.3   4000  SAM4000    -0.3153
     13  C3'       -2.1950   37.7650   -1.7160 C.3   4000  SAM4000     0.2168
     14  O3'       -1.2140   38.7290   -1.3310 O.3   4000  SAM4000    -0.2175
     15  C2'       -1.9520   37.1270   -3.0850 C.3   4000  SAM4000     0.2569
     16  O2'       -1.7080   38.0060   -4.1550 O.3   4000  SAM4000    -0.2130
     17  C1'       -0.7430   36.2540   -2.7650 C.3   4000  SAM4000     0.3185
     18  N9        -0.5170   35.1120   -3.6620 N.pl3 4000  SAM4000    -0.1439
     19  C8        -1.4550   34.2980   -4.2550 C.3   4000  SAM4000     0.3377
     20  N7        -0.8050   33.3390   -4.9740 N.2   4000  SAM4000    -0.2095
     21  C5         0.5390   33.5310   -4.8360 C.2   4000  SAM4000     0.2526
     22  C6         1.6580   32.8600   -5.3560 C.2   4000  SAM4000     0.4393
     23  N6         1.4800   31.8090   -6.1540 N.pl3 4000  SAM4000     0.2180
     24  N1         2.9380   33.3130   -5.0630 N.2   4000  SAM4000     0.0021
     25  C2         3.0930   34.4020   -4.2200 C.3   4000  SAM4000     0.5254
     26  N3         1.9930   35.0700   -3.6960 N.2   4000  SAM4000    -0.0055
     27  C4         0.7330   34.6480   -4.0100 C.2   4000  SAM4000     0.3518
@<TRIPOS>BOND
     1    23    22    1
     2    22    24    2
     3    22    21    1
     4    24    25    1
     5    20    21    2
     6    20    19    1
     7    21    27    1
     8    19    18    1
     9    25    26    1
    10    16    15    1
    11    27    26    2
    12    27    18    1
    13    18    17    1
    14    15    17    1
    15    15    13    1
    16    17    12    1
    17    13    14    1
    18    13    11    1
    19    12    11    1
    20    11    10    1
    21    10     8    1
    22     9     8    1
    23     8     7    1
    24     7     6    1
    25     6     2    1
    26     2     3    1
    27     2     1    1
    28     3     4   ar
    29     3     5   ar
