@<TRIPOS>MOLECULE
1zr8_AJM_A_1.pdb
 22 27 0 0 0
SMALL
GASTEIGER

@<TRIPOS>ATOM
      1  O1        17.1820   26.5360   -8.0860 O.3   201  AJM201     -0.2227
      2  C15       16.9670   27.9680   -8.1640 C.3   201  AJM201      0.1588
      3  C5        17.5080   28.9100   -9.2360 C.3   201  AJM201      0.0680
      4  C4        16.4200   28.7920  -10.2550 C.3   201  AJM201      0.0281
      5  C6        18.8620   28.8760   -9.8520 C.ar  201  AJM201     -0.0054
      6  C7        19.7610   27.8480  -10.0850 C.ar  201  AJM201     -0.0029
      7  C8        20.9640   28.1750  -10.7200 C.ar  201  AJM201     -0.0002
      8  C9        21.2490   29.4950  -11.1100 C.ar  201  AJM201      0.0012
      9  C11       19.1260   30.2590  -10.2770 C.ar  201  AJM201      0.0440
     10  C10       20.3460   30.5460  -10.8890 C.ar  201  AJM201      0.0142
     11  C14       15.5770   28.4960   -8.1430 C.3   201  AJM201      0.0495
     12  C13       15.1840   29.2490   -7.1840 C.3   201  AJM201      0.0148
     13  C16       13.9800   29.5940   -7.4170 C.3   201  AJM201      0.0855
     14  C3        15.3500   29.1120   -9.2630 C.3   201  AJM201      0.0782
     15  N2        15.0530   30.4820   -9.1110 N.am  201  AJM201     -0.2811
     16  C17       13.9800   30.6310   -8.1990 C.2   201  AJM201      0.2256
     17  O2        12.8600   31.3920   -8.2210 O.2   201  AJM201     -0.2749
     18  C2        16.2410   30.7660   -8.4080 C.3   201  AJM201      0.0937
     19  C12       16.1070   30.3870   -6.9520 C.3   201  AJM201      0.0221
     20  C1        17.3670   30.3930   -8.9880 C.3   201  AJM201      0.0970
     21  N1        18.1230   31.0880   -9.8610 N.pl3 201  AJM201     -0.3056
     22  C18       18.4190   32.4790   -9.5610 C.3   201  AJM201      0.1122
@<TRIPOS>BOND
     1     8    10   ar
     2     8     7   ar
     3    10     9   ar
     4     7     6   ar
     5     9    21    1
     6     9     5   ar
     7     4    14    1
     8     4     3    1
     9     6     5   ar
    10    21    22    1
    11    21    20    1
    12     5     3    1
    13    14    15    1
    14    14    11    1
    15     3    20    1
    16     3     2    1
    17    15    18    1
    18    15    16   am
    19    20    18    1
    20    18    19    1
    21    17    16    2
    22    16    13    1
    23     2    11    1
    24     2     1    1
    25    11    12    1
    26    13    12    1
    27    12    19    1
