@<TRIPOS>MOLECULE
1zrb_062_A_1.pdb
 35 39 0 0 0
SMALL
GASTEIGER

@<TRIPOS>ATOM
      1  N1        21.6970  -15.2840   24.6500 N.ar  1001  0621001    -0.1519
      2  C2        21.5320  -16.3180   23.6910 C.ar  1001  0621001     0.3013
      3  C3        20.1950  -16.4780   23.1920 C.ar  1001  0621001     0.0701
      4  C4        19.2090  -15.5800   23.6910 C.ar  1001  0621001     0.0294
      5  C5        19.3940  -14.5580   24.7020 C.ar  1001  0621001     0.0761
      6  C6        20.7300  -14.4290   25.2220 C.ar  1001  0621001     0.3015
      7  C10       19.5440  -17.3740   22.2240 C.ar  1001  0621001     0.0048
      8  C11       18.1410  -17.0040   22.1730 C.ar  1001  0621001     0.0175
      9  C12       17.8850  -15.7790   23.0080 C.3   1001  0621001     0.2322
     10  C13       20.0050  -18.4700   21.3070 C.ar  1001  0621001    -0.0000
     11  C14       19.0030  -19.0760   20.4070 C.ar  1001  0621001    -0.0000
     12  C15       17.5780  -18.6660   20.3520 C.ar  1001  0621001    -0.0002
     13  C16       17.1550  -17.6030   21.2720 C.ar  1001  0621001    -0.0011
     14  O21       16.9680  -16.0540   24.0210 O.3   1001  0621001    -0.2072
     15  C22       17.4680  -14.4880   22.2190 C.2   1001  0621001     0.2615
     16  N23       18.1650  -14.0000   21.1530 N.am  1001  0621001    -0.2704
     17  C24       17.5730  -12.8150   20.4560 C.3   1001  0621001     0.1536
     18  C25       18.2750  -12.7820   19.0930 C.3   1001  0621001     0.0310
     19  C26       19.6400  -13.1260   19.6530 C.3   1001  0621001     0.0237
     20  C27       19.4760  -14.3420   20.5410 C.3   1001  0621001     0.0940
     21  C34       16.0520  -12.7820   20.2950 C.2   1001  0621001     0.2598
     22  N36       15.4550  -11.5900   20.4940 N.am  1001  0621001    -0.1992
     23  C37       14.0110  -11.4660   20.2230 C.3   1001  0621001     0.1413
     24  C38       13.1640  -11.4150   21.4630 C.ar  1001  0621001    -0.0023
     25  C41       13.1760  -10.1860   22.1890 C.ar  1001  0621001     0.0086
     26  C42       12.2680  -10.1070   23.3100 C.ar  1001  0621001     0.0574
     27  C43       11.3730  -11.1800   23.6850 C.ar  1001  0621001     0.0111
     28  C44       11.3860  -12.4270   22.9550 C.ar  1001  0621001    -0.0022
     29  C45       12.3030  -12.5010   21.8470 C.ar  1001  0621001    -0.0054
     30 CL1        12.2830   -8.6500   24.3060 Cl    1001  0621001    -0.0823
     31  C53       12.2760  -13.7690   21.0110 C.3   1001  0621001     0.1354
     32  N54       13.2250  -14.7730   21.4900 N.3   1001  0621001    -0.1262
     33  O60       22.8830  -14.9350   24.9980 O.co2 1001  0621001    -0.6187
     34  O63       16.4620  -13.8900   22.5940 O.2   1001  0621001    -0.2715
     35  O64       15.4320  -13.8010   20.0020 O.2   1001  0621001    -0.2715
@<TRIPOS>UNITY_ATOM_ATTR
1 1
charge 1
33 1
charge -1
@<TRIPOS>BOND
     1    18    19    1
     2    18    17    1
     3    19    20    1
     4    35    21    2
     5    23    22    1
     6    23    24    1
     7    21    17    1
     8    21    22   am
     9    12    11   ar
    10    12    13   ar
    11    11    10   ar
    12    17    16    1
    13    20    16    1
    14    31    32    1
    15    31    29    1
    16    16    15   am
    17    13     8   ar
    18    10     7   ar
    19    24    29   ar
    20    24    25   ar
    21    29    28   ar
    22     8     7   ar
    23     8     9    1
    24    25    26   ar
    25    15    34    2
    26    15     9    1
    27     7     3    1
    28    28    27   ar
    29     9     4    1
    30     9    14    1
    31     3     2   ar
    32     3     4   ar
    33    26    27   ar
    34    26    30    1
    35     2     1   ar
    36     4     5   ar
    37     1    33    1
    38     1     6   ar
    39     5     6   ar
