@<TRIPOS>MOLECULE
1zrc_CMP_A_1.pdb
 22 25 0 0 0
SMALL
GASTEIGER

@<TRIPOS>ATOM
      1  P         21.7770  -12.4490   30.5780 P.3   210  CMP210      0.2141
      2  O1P       22.1900  -12.4350   29.1530 O.2   210  CMP210     -0.5172
      3  O2P       21.0500  -13.6260   31.1160 O.3   210  CMP210     -0.4373
      4  O5'       23.1090  -12.2830   31.4370 O.3   210  CMP210     -0.3114
      5  C5'       23.7540  -11.0120   31.5420 C.3   210  CMP210      0.1812
      6  C4'       22.7360  -10.0050   31.9590 C.3   210  CMP210      0.1793
      7  O4'       23.2600   -8.6580   32.0750 O.3   210  CMP210     -0.3136
      8  C3'       21.6600   -9.8500   30.9180 C.3   210  CMP210      0.1884
      9  O3'       20.9490  -11.0870   30.8940 O.3   210  CMP210     -0.3111
     10  C2'       20.9890   -8.5870   31.4370 C.3   210  CMP210      0.2541
     11  O2'       20.3200   -8.7820   32.6640 O.3   210  CMP210     -0.2131
     12  C1'       22.2230   -7.7410   31.7640 C.3   210  CMP210      0.3185
     13  N9        22.6340   -6.9340   30.6190 N.pl3 210  CMP210     -0.1439
     14  C8        23.3530   -7.3020   29.5120 C.3   210  CMP210      0.3377
     15  N7        23.4900   -6.3480   28.6320 N.2   210  CMP210     -0.2095
     16  C5        22.8270   -5.2740   29.2030 C.2   210  CMP210      0.2526
     17  C6        22.5910   -3.9650   28.7630 C.2   210  CMP210      0.4393
     18  N6        22.9980   -3.5010   27.5860 N.pl3 210  CMP210      0.2180
     19  N1        21.9030   -3.1390   29.5830 N.2   210  CMP210      0.0021
     20  C2        21.4760   -3.6100   30.7580 C.3   210  CMP210      0.5254
     21  N3        21.6230   -4.8240   31.2770 N.2   210  CMP210     -0.0055
     22  C4        22.3150   -5.6170   30.4370 C.2   210  CMP210      0.3518
@<TRIPOS>BOND
     1    18    17    1
     2    15    16    2
     3    15    14    1
     4    17    16    1
     5    17    19    2
     6     2     1    2
     7    16    22    1
     8    14    13    1
     9    19    20    1
    10    22    13    1
    11    22    21    2
    12     1     9    1
    13     1     3    1
    14     1     4    1
    15    13    12    1
    16    20    21    1
    17     9     8    1
    18     8    10    1
    19     8     6    1
    20    10    12    1
    21    10    11    1
    22     4     5    1
    23     5     6    1
    24    12     7    1
    25     6     7    1
