@<TRIPOS>MOLECULE
1zrd_CMP_A_1.pdb
 22 25 0 0 0
SMALL
GASTEIGER

@<TRIPOS>ATOM
      1  P         21.5210  -11.6160   29.9480 P.3   210  CMP210      0.2141
      2  O1P       21.7770  -11.6830   28.4940 O.2   210  CMP210     -0.5172
      3  O2P       20.8060  -12.7250   30.6130 O.3   210  CMP210     -0.4373
      4  O5'       22.9400  -11.3920   30.6450 O.3   210  CMP210     -0.3114
      5  C5'       23.5190  -10.0840   30.7380 C.3   210  CMP210      0.1812
      6  C4'       22.4710   -9.1250   31.2110 C.3   210  CMP210      0.1793
      7  O4'       22.9300   -7.7510   31.3100 O.3   210  CMP210     -0.3136
      8  C3'       21.3620   -9.0230   30.2000 C.3   210  CMP210      0.1884
      9  O3'       20.6880  -10.2660   30.2560 O.3   210  CMP210     -0.3111
     10  C2'       20.6470   -7.7810   30.7030 C.3   210  CMP210      0.2541
     11  O2'       19.9690   -8.0310   31.9200 O.3   210  CMP210     -0.2131
     12  C1'       21.8470   -6.8790   31.0070 C.3   210  CMP210      0.3185
     13  N9        22.2430   -6.0650   29.8640 N.pl3 210  CMP210     -0.1439
     14  C8        22.9020   -6.4860   28.7440 C.3   210  CMP210      0.3377
     15  N7        23.1430   -5.5350   27.8840 N.2   210  CMP210     -0.2095
     16  C5        22.5950   -4.4100   28.4700 C.2   210  CMP210      0.2526
     17  C6        22.5110   -3.0750   28.0500 C.2   210  CMP210      0.4393
     18  N6        22.9580   -2.6410   26.8600 N.pl3 210  CMP210      0.2180
     19  N1        21.9270   -2.1870   28.8930 N.2   210  CMP210      0.0021
     20  C2        21.4370   -2.6330   30.0490 C.3   210  CMP210      0.5254
     21  N3        21.4280   -3.8710   30.5390 N.2   210  CMP210     -0.0055
     22  C4        22.0380   -4.7200   29.6930 C.2   210  CMP210      0.3518
@<TRIPOS>BOND
     1    18    17    1
     2    15    16    2
     3    15    14    1
     4    17    16    1
     5    17    19    2
     6    16    22    1
     7     2     1    2
     8    14    13    1
     9    19    20    1
    10    22    13    1
    11    22    21    2
    12    13    12    1
    13     1     9    1
    14     1     3    1
    15     1     4    1
    16    20    21    1
    17     8     9    1
    18     8    10    1
    19     8     6    1
    20     4     5    1
    21    10    12    1
    22    10    11    1
    23     5     6    1
    24    12     7    1
    25     6     7    1
