@<TRIPOS>MOLECULE
1zre_CMP_A_1.pdb
 22 25 0 0 0
SMALL
GASTEIGER

@<TRIPOS>ATOM
      1  P         21.3470  -11.0480   30.1970 P.3   210  CMP210      0.2141
      2  O1P       21.8270  -11.0150   28.7900 O.2   210  CMP210     -0.5172
      3  O2P       20.5750  -12.2260   30.6930 O.3   210  CMP210     -0.4373
      4  O5'       22.6330  -10.8600   31.1370 O.3   210  CMP210     -0.3114
      5  C5'       23.2360   -9.5690   31.3220 C.3   210  CMP210      0.1812
      6  C4'       22.1550   -8.5860   31.6340 C.3   210  CMP210      0.1793
      7  O4'       22.6110   -7.2160   31.7690 O.3   210  CMP210     -0.3136
      8  C3'       21.1650   -8.4650   30.5030 C.3   210  CMP210      0.1884
      9  O3'       20.4790   -9.7060   30.4250 O.3   210  CMP210     -0.3111
     10  C2'       20.3890   -7.2690   31.0090 C.3   210  CMP210      0.2541
     11  O2'       19.7450   -7.6290   32.2150 O.3   210  CMP210     -0.2131
     12  C1'       21.5510   -6.3460   31.3860 C.3   210  CMP210      0.3185
     13  N9        21.9950   -5.5370   30.2500 N.pl3 210  CMP210     -0.1439
     14  C8        22.7090   -5.9390   29.1520 C.3   210  CMP210      0.3377
     15  N7        22.9400   -4.9800   28.2880 N.2   210  CMP210     -0.2095
     16  C5        22.3340   -3.8730   28.8500 C.2   210  CMP210      0.2526
     17  C6        22.2130   -2.5390   28.4180 C.2   210  CMP210      0.4393
     18  N6        22.6890   -2.0850   27.2560 N.pl3 210  CMP210      0.2180
     19  N1        21.5700   -1.6760   29.2280 N.2   210  CMP210      0.0021
     20  C2        21.0680   -2.1320   30.3860 C.3   210  CMP210      0.5254
     21  N3        21.0990   -3.3610   30.8930 N.2   210  CMP210     -0.0055
     22  C4        21.7580   -4.1950   30.0670 C.2   210  CMP210      0.3518
@<TRIPOS>BOND
     1    18    17    1
     2    15    16    2
     3    15    14    1
     4    17    16    1
     5    17    19    2
     6     2     1    2
     7    16    22    1
     8    14    13    1
     9    19    20    1
    10    22    13    1
    11    22    21    2
    12     1     9    1
    13     1     3    1
    14     1     4    1
    15    13    12    1
    16    20    21    1
    17     9     8    1
    18     8    10    1
    19     8     6    1
    20    10    12    1
    21    10    11    1
    22     4     5    1
    23     5     6    1
    24    12     7    1
    25     6     7    1
