@<TRIPOS>MOLECULE
1zrf_CMP_A_1.pdb
 22 25 0 0 0
SMALL
GASTEIGER

@<TRIPOS>ATOM
      1  P         20.8480    2.9140  -11.9870 P.3   622  CMP622      0.2141
      2  O1P       19.9990    3.5010  -13.0520 O.2   622  CMP622     -0.5172
      3  O2P       22.3240    2.9430  -12.1300 O.3   622  CMP622     -0.4373
      4  O5'       20.4070    3.6070  -10.6070 O.3   622  CMP622     -0.3114
      5  C5'       19.1320    3.2980  -10.0150 C.3   622  CMP622      0.1812
      6  C4'       18.9940    1.8030   -9.9390 C.3   622  CMP622      0.1793
      7  O4'       17.6940    1.3480   -9.4890 O.3   622  CMP622     -0.3136
      8  C3'       19.0670    1.1570  -11.2960 C.3   622  CMP622      0.1884
      9  O3'       20.3750    1.3880  -11.7850 O.3   622  CMP622     -0.3111
     10  C2'       18.6470   -0.2610  -10.9470 C.3   622  CMP622      0.2541
     11  O2'       19.6540   -0.9610  -10.2450 O.3   622  CMP622     -0.2131
     12  C1'       17.4780    0.0310   -9.9950 C.3   622  CMP622      0.3185
     13  N9        16.1970    0.0150  -10.7000 N.pl3 622  CMP622     -0.1439
     14  C8        15.7050    0.9610  -11.5660 C.3   622  CMP622      0.3377
     15  N7        14.5350    0.6560  -12.0710 N.2   622  CMP622     -0.2095
     16  C5        14.2330   -0.5690  -11.4920 C.2   622  CMP622      0.2526
     17  C6        13.1220   -1.4290  -11.6200 C.2   622  CMP622      0.4393
     18  N6        12.0650   -1.1620  -12.3980 N.pl3 622  CMP622      0.2180
     19  N1        13.1350   -2.5790  -10.9120 N.2   622  CMP622      0.0021
     20  C2        14.1940   -2.8400  -10.1280 C.3   622  CMP622      0.5254
     21  N3        15.2920   -2.1080   -9.9230 N.2   622  CMP622     -0.0055
     22  C4        15.2470   -0.9730  -10.6420 C.2   622  CMP622      0.3518
@<TRIPOS>BOND
     1     2     1    2
     2    18    17    1
     3     3     1    1
     4    15    14    1
     5    15    16    2
     6     1     9    1
     7     1     4    1
     8     9     8    1
     9    17    16    1
    10    17    19    2
    11    14    13    1
    12    16    22    1
    13     8    10    1
    14     8     6    1
    15    10    11    1
    16    10    12    1
    17    19    20    1
    18    13    22    1
    19    13    12    1
    20    22    21    2
    21     4     5    1
    22    20    21    1
    23     5     6    1
    24    12     7    1
    25     6     7    1
