@<TRIPOS>MOLECULE
1zrh_A3P_A_1.pdb
 27 29 0 0 0
SMALL
GASTEIGER

@<TRIPOS>ATOM
      1  P1        10.9220   27.2500   15.0550 P.3   301  A3P301      0.5327
      2  O1P       10.9620   28.6720   14.4530 O.2   301  A3P301     -0.2224
      3  O2P       12.1370   26.5760   15.4510 O.3   301  A3P301     -0.1145
      4  O3P        9.7630   27.1410   16.0320 O.3   301  A3P301     -0.1145
      5  P2        11.8060   22.9820    9.4590 P.3   301  A3P301      0.5327
      6  O4P       11.1980   22.9640    8.0920 O.2   301  A3P301     -0.2224
      7  O5P       11.7570   21.6320   10.1010 O.3   301  A3P301     -0.1145
      8  O6P       13.1810   23.6070    9.5670 O.3   301  A3P301     -0.1145
      9  O5'       10.8030   23.8600   10.3420 O.3   301  A3P301     -0.2675
     10  C5'       11.0850   24.1270   11.7160 C.3   301  A3P301      0.1859
     11  C4'        9.7950   24.5590   12.4030 C.3   301  A3P301      0.1796
     12  O4'        8.9210   23.4400   12.5730 O.3   301  A3P301     -0.3136
     13  C3'        9.9630   25.0350   13.8590 C.3   301  A3P301      0.1928
     14  O3'       10.4140   26.3630   13.7960 O.3   301  A3P301     -0.2673
     15  C2'        8.5450   24.8620   14.4430 C.3   301  A3P301      0.2543
     16  O2'        7.7890   26.0770   14.5800 O.3   301  A3P301     -0.2131
     17  C1'        7.8490   23.9440   13.4020 C.3   301  A3P301      0.3185
     18  N9         7.1750   22.7980   14.0510 N.pl3 301  A3P301     -0.1439
     19  C8         5.9510   22.3440   13.7160 C.3   301  A3P301      0.3377
     20  N7         5.6060   21.3010   14.4930 N.2   301  A3P301     -0.2095
     21  C5         6.6440   21.0480   15.3330 C.2   301  A3P301      0.2526
     22  C6         6.9140   20.0890   16.4080 C.2   301  A3P301      0.4393
     23  N6         6.0070   19.1330   16.7300 N.pl3 301  A3P301      0.2180
     24  N1         8.1040   20.1770   17.0310 N.2   301  A3P301      0.0021
     25  C2         9.0260   21.1200   16.7400 C.3   301  A3P301      0.5254
     26  N3         8.8360   22.0300   15.7820 N.2   301  A3P301     -0.0055
     27  C4         7.6820   22.0400   15.0480 C.2   301  A3P301      0.3518
@<TRIPOS>BOND
     1     6     5    2
     2     5     8    1
     3     5     7    1
     4     5     9    1
     5     9    10    1
     6    10    11    1
     7    11    12    1
     8    11    13    1
     9    12    17    1
    10    17    18    1
    11    17    15    1
    12    19    18    1
    13    19    20    1
    14    14    13    1
    15    14     1    1
    16    13    15    1
    17    18    27    1
    18    15    16    1
    19     2     1    2
    20    20    21    2
    21    27    21    1
    22    27    26    2
    23     1     3    1
    24     1     4    1
    25    21    22    1
    26    26    25    1
    27    22    23    1
    28    22    24    2
    29    25    24    1
