@<TRIPOS>MOLECULE
1zrk_367_A_1.pdb
 26 28 0 0 0
SMALL
GASTEIGER

@<TRIPOS>ATOM
      1  C01      108.2620   20.5060   51.2480 C.ar  900  367900      0.0156
      2  C02      107.7360   20.1630   52.5240 C.ar  900  367900      0.0736
      3  C03      107.4780   21.2050   53.4880 C.ar  900  367900      0.0166
      4  C04      107.7450   22.5640   53.1980 C.ar  900  367900      0.0013
      5  C05      108.2750   22.9020   51.9290 C.ar  900  367900      0.0001
      6  C06      108.5310   21.8940   50.9540 C.ar  900  367900      0.0013
      7  C10      108.5390   19.5240   50.2450 C.ar  900  367900      0.0093
      8  C11      109.0650   19.8960   48.9760 C.ar  900  367900      0.0975
      9  C13      109.0540   22.2520   49.6910 C.ar  900  367900      0.0003
     10  C14      109.3190   21.2730   48.7100 C.ar  900  367900      0.0080
     11  C17      109.3510   18.8650   47.9600 C.2   900  367900      0.4766
     12  N18      109.3390   19.0610   46.7010 N.pl3 900  367900      0.2047
     13  N19      109.6650   17.6060   48.2440 N.pl3 900  367900      0.2047
     14  N20      107.4830   18.8510   52.8690 N.am  900  367900     -0.1754
     15  C21      108.0600   18.0390   53.9070 C.2   900  367900      0.2690
     16  O22      107.6620   16.9140   54.0890 O.2   900  367900     -0.2680
     17  C27      109.1330   18.6040   54.7770 C.ar  900  367900      0.0567
     18  C28      110.4530   18.8290   54.2690 C.ar  900  367900      0.0047
     19  C29      111.4310   19.4020   55.1190 C.ar  900  367900      0.0015
     20  C30      111.0820   19.7530   56.4600 C.ar  900  367900      0.0189
     21  C31      109.7780   19.5340   56.9850 C.ar  900  367900      0.1125
     22  C32      108.8110   18.9510   56.1130 C.ar  900  367900      0.0235
     23  S36      109.2990   19.9540   58.6400 S.3   900  367900      0.0421
     24  O38      108.2570   21.0790   58.4350 O.3   900  367900     -0.0650
     25  O42      108.6660   18.7120   59.1660 O.3   900  367900     -0.0650
     26  O43      110.4550   20.5370   59.2350 O.3   900  367900     -0.0650
@<TRIPOS>BOND
     1    12    11    2
     2    11    13    1
     3    11     8    1
     4    10     8   ar
     5    10     9   ar
     6     8     7   ar
     7     9     6   ar
     8     7     1   ar
     9     6     1   ar
    10     6     5   ar
    11     1     2   ar
    12     5     4   ar
    13     2    14    1
    14     2     3   ar
    15    14    15   am
    16     4     3   ar
    17    15    16    2
    18    15    17    1
    19    18    17   ar
    20    18    19   ar
    21    17    22   ar
    22    19    20   ar
    23    22    21   ar
    24    20    21   ar
    25    21    23    1
    26    24    23    1
    27    23    25    1
    28    23    26    1
