@<TRIPOS>MOLECULE
1zrq_NAD_A_1.pdb
 44 48 0 0 0
SMALL
GASTEIGER

@<TRIPOS>ATOM
      1  PA       -65.7300  -26.4650   24.7180 P.3   495  NAD495      0.2189
      2  O1A      -65.6100  -27.9330   24.5590 O.2   495  NAD495     -0.5170
      3  O2A      -67.0010  -25.9180   25.2490 O.3   495  NAD495     -0.4371
      4  O5B      -64.5380  -25.9100   25.6040 O.3   495  NAD495     -0.3112
      5  C5B      -64.7990  -24.7760   26.4160 C.3   495  NAD495      0.1813
      6  C4B      -63.5460  -23.9710   26.5560 C.3   495  NAD495      0.1821
      7  O4B      -62.4670  -24.7590   27.0980 O.3   495  NAD495     -0.3135
      8  C3B      -63.0150  -23.3880   25.2610 C.3   495  NAD495      0.2184
      9  O3B      -63.6960  -22.1690   24.9720 O.3   495  NAD495     -0.2174
     10  C2B      -61.6050  -23.0870   25.6360 C.3   495  NAD495      0.2570
     11  O2B      -61.5670  -21.8940   26.4190 O.3   495  NAD495     -0.2130
     12  C1B      -61.2160  -24.2890   26.5030 C.3   495  NAD495      0.3186
     13  N9A      -60.6990  -25.3460   25.6150 N.pl3 495  NAD495     -0.1439
     14  C8A      -61.3380  -26.4460   25.1830 C.3   495  NAD495      0.3377
     15  N7A      -60.5070  -27.1440   24.3930 N.2   495  NAD495     -0.2095
     16  C5A      -59.3580  -26.4770   24.3330 C.2   495  NAD495      0.2526
     17  C6A      -58.1380  -26.6900   23.6940 C.2   495  NAD495      0.4393
     18  N6A      -57.9470  -27.7690   22.9420 N.pl3 495  NAD495      0.2180
     19  N1A      -57.1410  -25.7830   23.8470 N.2   495  NAD495      0.0021
     20  C2A      -57.3050  -24.6950   24.6080 C.3   495  NAD495      0.5254
     21  N3A      -58.4630  -24.4760   25.2300 N.2   495  NAD495     -0.0055
     22  C4A      -59.4870  -25.3480   25.1110 C.2   495  NAD495      0.3518
     23  O3       -65.4210  -25.7590   23.3060 O.3   495  NAD495     -0.2703
     24  PN       -65.9850  -24.2830   22.9220 P.3   495  NAD495      0.2189
     25  O1N      -67.4390  -24.3590   22.6640 O.2   495  NAD495     -0.5170
     26  O2N      -65.4980  -23.2690   23.8890 O.3   495  NAD495     -0.4371
     27  O5D      -65.2400  -24.0280   21.5230 O.3   495  NAD495     -0.3112
     28  C5D      -65.3200  -25.0410   20.5110 C.3   495  NAD495      0.1813
     29  C4D      -63.9600  -25.7090   20.2620 C.3   495  NAD495      0.1799
     30  O4D      -62.9640  -24.8110   19.6990 O.3   495  NAD495     -0.3327
     31  C3D      -63.2920  -26.2860   21.4960 C.3   495  NAD495      0.2158
     32  O3D      -63.8400  -27.5660   21.8260 O.3   495  NAD495     -0.2175
     33  C2D      -61.8660  -26.4430   21.0670 C.3   495  NAD495      0.2309
     34  O2D      -61.6710  -27.6700   20.3590 O.3   495  NAD495     -0.2158
     35  C1D      -61.6280  -25.2610   20.1310 C.3   495  NAD495      0.2263
     36  N1N      -60.9870  -24.1490   20.8780 N.pl3 495  NAD495     -0.2787
     37  C2N      -59.5800  -24.0800   20.9080 C.3   495  NAD495      0.1244
     38  C3N      -58.9500  -23.0710   21.6320 C.2   495  NAD495      0.0544
     39  C7N      -57.4240  -22.9980   21.6400 C.2   495  NAD495      0.2818
     40  O7N      -56.7510  -23.8720   21.0930 O.2   495  NAD495     -0.2670
     41  N7N      -56.9040  -21.9460   22.2670 N.am  495  NAD495     -0.0839
     42  C4N      -59.7230  -22.1210   22.3300 C.2   495  NAD495      0.0033
     43  C5N      -61.1290  -22.1790   22.3040 C.2   495  NAD495      0.0157
     44  C6N      -61.7680  -23.1920   21.5760 C.2   495  NAD495      0.0633
@<TRIPOS>BOND
     1    30    35    1
     2    30    29    1
     3    35    36    1
     4    35    33    1
     5    29    28    1
     6    29    31    1
     7    34    33    1
     8    28    27    1
     9    36    37    1
    10    36    44    1
    11    37    38    1
    12    33    31    1
    13    40    39    2
    14    31    32    1
    15    27    24    1
    16    44    43    2
    17    38    39    1
    18    38    42    2
    19    39    41   am
    20    43    42    1
    21    25    24    2
    22    24    23    1
    23    24    26    1
    24    18    17    1
    25    23     1    1
    26    17    19    2
    27    17    16    1
    28    19    20    1
    29    16    15    2
    30    16    22    1
    31    15    14    1
    32     2     1    2
    33    20    21    1
    34     1     3    1
    35     1     4    1
    36     9     8    1
    37    22    21    2
    38    22    13    1
    39    14    13    1
    40     8    10    1
    41     8     6    1
    42     4     5    1
    43    13    12    1
    44    10    11    1
    45    10    12    1
    46     5     6    1
    47    12     7    1
    48     6     7    1
