@<TRIPOS>MOLECULE
1zrt_HEM_C_1.pdb
 43 50 0 0 0
SMALL
GASTEIGER

@<TRIPOS>ATOM
      1 FE         -1.7930    6.6340   15.7820 Fe    501  HEM501      0.0000
      2  CHA       -4.3920    6.5430   13.5290 C.2   501  HEM501      0.0000
      3  CHB        0.2330    7.4730   13.3740 C.2   501  HEM501      0.0000
      4  CHC        0.7550    6.4900   17.9170 C.2   501  HEM501      0.0000
      5  CHD       -3.9700    6.0440   18.2260 C.2   501  HEM501      0.0000
      6  NA        -2.0050    6.9360   13.9990 N.ar  501  HEM501      0.0000
      7  C1A       -3.1190    6.9250   13.1210 C.ar  501  HEM501      0.0000
      8  C2A       -2.8100    7.3650   11.7190 C.ar  501  HEM501      0.0000
      9  C3A       -1.4740    7.3850   11.6750 C.ar  501  HEM501      0.0000
     10  C4A       -1.0580    7.2270   13.0700 C.ar  501  HEM501      0.0000
     11  CMA       -0.5750    7.6950   10.4600 C.3   501  HEM501      0.0000
     12  CAA       -3.6230    7.6840   10.4310 C.3   501  HEM501      0.0000
     13  CBA       -4.3370    8.9910   10.0290 C.3   501  HEM501      0.0000
     14  CGA       -5.8720    8.9580   10.1960 C.2   501  HEM501      0.0000
     15  O1A       -6.5470    9.8710    9.6640 O.co2 501  HEM501      0.0000
     16  O2A       -6.4110    8.0370   10.8520 O.co2 501  HEM501      0.0000
     17  NB        -0.0440    7.1070   15.7220 N.2   501  HEM501      0.0000
     18  C1B        0.7410    7.3990   14.6120 C.2   501  HEM501      0.0000
     19  C2B        2.2020    7.3200   14.7730 C.2   501  HEM501      0.0000
     20  C3B        2.3370    7.3630   16.1200 C.2   501  HEM501      0.0000
     21  C4B        0.9760    7.0520   16.6800 C.2   501  HEM501      0.0000
     22  CMB        3.2540    7.2120   13.7000 C.3   501  HEM501      0.0000
     23  CAB        3.5080    7.6480   16.7950 C.3   501  HEM501      0.0000
     24  CBB        4.8220    8.1430   16.0460 C.3   501  HEM501      0.0000
     25  NC        -1.6100    6.1390   17.5070 N.ar  501  HEM501      0.0000
     26  C1C       -0.4850    6.0220   18.3050 C.ar  501  HEM501      0.0000
     27  C2C       -0.7350    5.6130   19.7000 C.ar  501  HEM501      0.0000
     28  C3C       -2.0820    5.6180   19.7890 C.ar  501  HEM501      0.0000
     29  C4C       -2.5930    5.9630   18.4770 C.ar  501  HEM501      0.0000
     30  CMC        0.2890    5.3910   20.8310 C.3   501  HEM501      0.0000
     31  CAC       -2.8880    5.3960   20.8660 C.3   501  HEM501      0.0000
     32  CBC       -2.3180    5.2180   22.2560 C.3   501  HEM501      0.0000
     33  ND        -3.6810    6.2720   15.8370 N.2   501  HEM501      0.0000
     34  C1D       -4.5390    6.1800   16.9400 C.2   501  HEM501      0.0000
     35  C2D       -6.0290    6.1200   16.6480 C.2   501  HEM501      0.0000
     36  C3D       -6.0460    6.1320   15.3220 C.2   501  HEM501      0.0000
     37  C4D       -4.6660    6.2670   14.8500 C.2   501  HEM501      0.0000
     38  CMD       -7.3030    6.0220   17.5140 C.3   501  HEM501      0.0000
     39  CAD       -7.2660    6.0980   14.4250 C.3   501  HEM501      0.0000
     40  CBD       -8.1170    7.3730   14.2930 C.3   501  HEM501      0.0000
     41  CGD       -7.3280    8.6500   13.9320 C.2   501  HEM501      0.0000
     42  O1D       -6.7280    8.7420   12.8320 O.co2 501  HEM501      0.0000
     43  O2D       -7.3280    9.5780   14.7710 O.co2 501  HEM501      0.0000
@<TRIPOS>BOND
     1    15    14   ar
     2    13    14    1
     3    13    12    1
     4    14    16   ar
     5    12     8    1
     6    11     9    1
     7     9     8   ar
     8     9    10   ar
     9     8     7   ar
    10    42    41   ar
    11    10     3    2
    12    10     6   ar
    13     7     2    2
    14     7     6   ar
    15     3    18    1
    16     2    37    1
    17    22    19    1
    18    41    40    1
    19    41    43   ar
    20     6     1    1
    21    40    39    1
    22    39    36    1
    23    18    19    1
    24    18    17    2
    25    19    20    2
    26    37    36    1
    27    37    33    2
    28    36    35    2
    29    17     1    1
    30    17    21    1
    31     1    33    1
    32     1    25    1
    33    33    34    1
    34    24    23    1
    35    20    21    1
    36    20    23    1
    37    35    34    1
    38    35    38    1
    39    21     4    2
    40    34     5    2
    41    25    26   ar
    42    25    29   ar
    43     4    26    1
    44     5    29    1
    45    26    27   ar
    46    29    28   ar
    47    27    28   ar
    48    27    30    1
    49    28    31    1
    50    31    32    1
