@<TRIPOS>MOLECULE
1zrt_HEC_D_1.pdb
 43 50 0 0 0
SMALL
GASTEIGER

@<TRIPOS>ATOM
      1 FE        -26.2540   12.3880   -7.2350 Fe    501  HEC501      0.0000
      2  CHA      -23.4570   10.7110   -8.0230 C.2   501  HEC501      0.0000
      3  CHB      -24.5360   14.7890   -5.7370 C.2   501  HEC501      0.0000
      4  CHC      -29.0770   14.1310   -6.7210 C.2   501  HEC501      0.0000
      5  CHD      -28.0410    9.6120   -7.9060 C.2   501  HEC501      0.0000
      6  NA       -24.3950   12.7800   -7.1020 N.2   501  HEC501      0.0000
      7  C1A      -23.3570   11.9220   -7.3900 C.2   501  HEC501      0.0000
      8  C2A      -22.1330   12.4230   -6.8310 C.2   501  HEC501      0.0000
      9  C3A      -22.4970   13.3460   -5.8790 C.2   501  HEC501      0.0000
     10  C4A      -23.8590   13.7000   -6.2260 C.2   501  HEC501      0.0000
     11  CMA      -21.6490   13.9120   -4.7340 C.3   501  HEC501      0.0000
     12  CAA      -20.8270   12.1640   -7.5450 C.3   501  HEC501      0.0000
     13  CBA      -19.6150   11.6000   -6.8610 C.3   501  HEC501      0.0000
     14  CGA      -18.6730   10.9700   -7.8590 C.2   501  HEC501      0.0000
     15  O1A      -19.0760    9.9590   -8.4730 O.co2 501  HEC501      0.0000
     16  O2A      -17.5460   11.4830   -8.0370 O.co2 501  HEC501      0.0000
     17  NB       -26.6560   14.2470   -6.7200 N.ar  501  HEC501      0.0000
     18  C1B      -25.8360   15.0930   -6.0040 C.ar  501  HEC501      0.0000
     19  C2B      -26.5350   16.2790   -5.5470 C.ar  501  HEC501      0.0000
     20  C3B      -27.8450   16.0250   -5.7400 C.ar  501  HEC501      0.0000
     21  C4B      -27.9080   14.7920   -6.4890 C.ar  501  HEC501      0.0000
     22  CMB      -26.0300   17.5710   -4.9310 C.3   501  HEC501      0.0000
     23  CAB      -29.1190   16.7660   -5.3270 C.3   501  HEC501      0.0000
     24  CBB      -29.1370   18.1910   -5.8420 C.3   501  HEC501      0.0000
     25  NC       -28.1530   11.9580   -7.2790 N.2   501  HEC501      0.0000
     26  C1C      -29.2070   12.8180   -7.0510 C.2   501  HEC501      0.0000
     27  C2C      -30.4650   12.1270   -7.0680 C.2   501  HEC501      0.0000
     28  C3C      -30.2060   10.9570   -7.7330 C.2   501  HEC501      0.0000
     29  C4C      -28.7540   10.7770   -7.6630 C.2   501  HEC501      0.0000
     30  CMC      -31.7600   12.5260   -6.3450 C.3   501  HEC501      0.0000
     31  CAC      -31.1150    9.8080   -8.1890 C.3   501  HEC501      0.0000
     32  CBC      -32.0260   10.2900   -9.3060 C.3   501  HEC501      0.0000
     33  ND       -25.8120   10.5240   -7.7050 N.ar  501  HEC501      0.0000
     34  C1D      -26.6730    9.4680   -7.9010 C.ar  501  HEC501      0.0000
     35  C2D      -25.9060    8.2810   -8.2270 C.ar  501  HEC501      0.0000
     36  C3D      -24.8050    8.7360   -8.8580 C.ar  501  HEC501      0.0000
     37  C4D      -24.6190   10.0320   -8.2140 C.ar  501  HEC501      0.0000
     38  CMD      -26.2020    6.8070   -8.0680 C.3   501  HEC501      0.0000
     39  CAD      -24.2870    8.0050  -10.1130 C.3   501  HEC501      0.0000
     40  CBD      -23.0620    8.3910  -10.9360 C.3   501  HEC501      0.0000
     41  CGD      -21.7680    7.7640  -10.4320 C.2   501  HEC501      0.0000
     42  O1D      -21.4120    7.9810   -9.2530 O.co2 501  HEC501      0.0000
     43  O2D      -21.1020    7.0570  -11.2230 O.co2 501  HEC501      0.0000
@<TRIPOS>BOND
     1    43    41   ar
     2    40    41    1
     3    40    39    1
     4    41    42   ar
     5    39    36    1
     6    32    31    1
     7    36    35   ar
     8    36    37   ar
     9    15    14   ar
    10    35    38    1
    11    35    34   ar
    12    37     2    2
    13    37    33   ar
    14    31    28    1
    15    16    14   ar
    16     2     7    1
    17     5    34    2
    18     5    29    1
    19    34    33   ar
    20    14    13    1
    21    28    29    1
    22    28    27    2
    23    33     1    1
    24    29    25    2
    25    12    13    1
    26    12     8    1
    27     7     6    2
    28     7     8    1
    29    25     1    1
    30    25    26    1
    31     1     6    1
    32     1    17    1
    33     6    10    1
    34    27    26    1
    35    27    30    1
    36    26     4    2
    37     8     9    2
    38     4    21    1
    39    17    21   ar
    40    17    18   ar
    41    21    20   ar
    42    10     9    1
    43    10     3    2
    44    18     3    1
    45    18    19   ar
    46     9    11    1
    47    24    23    1
    48    20    19   ar
    49    20    23    1
    50    19    22    1
