@<TRIPOS>MOLECULE
1zrt_SMA_C_1.pdb
 37 38 0 0 0
SMALL
GASTEIGER

@<TRIPOS>ATOM
      1  C2         4.6180    1.6720    0.5200 C.ar  503  SMA503      0.1220
      2  C3         4.5690    1.1080   -0.7480 C.ar  503  SMA503      0.0475
      3  C3M        5.7980    0.6310   -1.4540 C.3   503  SMA503      0.0373
      4  C4         3.2560    0.9680   -1.4750 C.ar  503  SMA503      0.2002
      5  C4A        2.0780    1.4740   -0.7230 C.ar  503  SMA503      0.1105
      6  C5         0.7650    1.4310   -1.2810 C.ar  503  SMA503      0.1479
      7  C5M       -0.5230    0.7860   -3.2580 C.3   503  SMA503      0.2525
      8  C6        -0.3660    1.9160   -0.5390 C.ar  503  SMA503      0.0774
      9  C7        -0.1770    2.4610    0.7970 C.ar  503  SMA503      0.1835
     10  C7M       -2.3150    3.5930    1.0200 C.3   503  SMA503      0.2526
     11  C8         1.1480    2.5190    1.3700 C.ar  503  SMA503      0.2636
     12  C8A        2.2410    2.0280    0.5930 C.ar  503  SMA503      0.1925
     13  C9         5.8170    1.9280    1.3620 C.3   503  SMA503      0.0644
     14  C10        6.4070    0.8110    2.1850 C.3   503  SMA503      0.0104
     15  C11        7.2670    1.4660    3.2900 C.3   503  SMA503      0.0278
     16  C12        7.9360    0.4570    4.2490 C.3   503  SMA503      0.1179
     17  C13        6.9130   -0.3160    5.1020 C.3   503  SMA503      0.0586
     18  C14        7.6540   -1.1580    6.1630 C.3   503  SMA503      0.1395
     19  C15        6.8330   -2.3530    6.5000 C.2   503  SMA503      0.0029
     20  C16        6.1220   -2.4770    7.6210 C.2   503  SMA503     -0.0022
     21  C17        5.2380   -3.5690    7.8860 C.2   503  SMA503     -0.0006
     22  C18        4.5540   -3.6270    9.0360 C.2   503  SMA503     -0.0046
     23  C19        3.6370   -4.6740    9.4720 C.2   503  SMA503     -0.0261
     24  C20        3.0800   -4.5520   10.6990 C.2   503  SMA503     -0.0300
     25  C21        2.1360   -5.4850   11.3390 C.3   503  SMA503      0.0304
     26  C22        8.3380    2.3980    2.7060 C.3   503  SMA503      0.0025
     27  C23       10.1120   -0.3970    3.6960 C.3   503  SMA503      0.1740
     28  C24        5.9080    0.6450    5.7560 C.3   503  SMA503      0.0054
     29  C25        9.2400   -0.3150    7.7590 C.3   503  SMA503      0.1745
     30  C26        3.3660   -5.8160    8.5470 C.3   503  SMA503      0.0307
     31  O1         3.4840    2.1270    1.2100 O.2   503  SMA503     -0.4544
     32  O4         3.1690    0.4660   -2.6320 O.2   503  SMA503     -0.2866
     33  O5         0.7240    0.8910   -2.5650 O.3   503  SMA503     -0.4711
     34  O7        -1.1950    2.9560    1.6290 O.3   503  SMA503     -0.4680
     35  O8         1.2980    3.0520    2.6490 O.3   503  SMA503     -0.2800
     36  O12        8.7090   -0.5020    3.4980 O.3   503  SMA503     -0.3535
     37  O14        7.8940   -0.3070    7.3090 O.3   503  SMA503     -0.3491
@<TRIPOS>BOND
     1     7    33    1
     2    32     4    2
     3    33     6    1
     4     4     2   ar
     5     4     5   ar
     6     3     2    1
     7     6     5   ar
     8     6     8   ar
     9     2     1   ar
    10     5    12   ar
    11     8     9   ar
    12     1    31   ar
    13     1    13    1
    14    12    31   ar
    15    12    11   ar
    16     9    11   ar
    17     9    34    1
    18    10    34    1
    19    13    14    1
    20    11    35    1
    21    14    15    1
    22    26    15    1
    23    15    16    1
    24    36    27    1
    25    36    16    1
    26    16    17    1
    27    17    28    1
    28    17    18    1
    29    18    19    1
    30    18    37    1
    31    19    20    2
    32    37    29    1
    33    20    21    1
    34    21    22    2
    35    30    23    1
    36    22    23    1
    37    23    24    2
    38    24    25    1
