@<TRIPOS>MOLECULE
1zrz_BI1_A_1.pdb
 31 35 0 0 0
SMALL
GASTEIGER

@<TRIPOS>ATOM
      1  CBD      -11.2450   24.7870   23.0670 C.3   1000  BI11000     0.0897
      2  NBC      -10.9000   23.6670   22.2090 N.3   1000  BI11000    -0.2703
      3  CBE      -10.9470   22.3110   22.7580 C.3   1000  BI11000     0.0897
      4  CBB      -10.5320   24.0460   20.8220 C.3   1000  BI11000     0.0742
      5  CBA      -10.1970   22.8530   19.9290 C.3   1000  BI11000     0.0418
      6  CAY       -8.8690   23.1630   19.2510 C.3   1000  BI11000     0.1075
      7  NAH       -8.5150   22.0610   18.3450 N.ar  1000  BI11000    -0.3260
      8  CAW       -8.0690   20.8400   18.7800 C.ar  1000  BI11000     0.0766
      9  CAE       -8.5850   22.0960   16.9930 C.ar  1000  BI11000     0.0599
     10  CAF       -8.9720   23.1040   16.0530 C.ar  1000  BI11000     0.0172
     11  CAA       -8.9440   22.8450   14.6690 C.ar  1000  BI11000     0.0015
     12  CAB       -8.5300   21.5660   14.1790 C.ar  1000  BI11000     0.0001
     13  CAC       -8.1390   20.5410   15.0950 C.ar  1000  BI11000     0.0015
     14  CAD       -8.1700   20.8210   16.5000 C.ar  1000  BI11000     0.0180
     15  CAG       -7.8580   20.0740   17.6410 C.ar  1000  BI11000     0.0313
     16  CAI       -7.3510   18.6300   17.7670 C.2   1000  BI11000     0.1088
     17  CAT       -6.2980   18.0070   16.9250 C.1   1000  BI11000     0.2158
     18  OAZ       -5.6880   18.6160   15.9810 O.2   1000  BI11000    -0.2086
     19  NAU       -6.0130   16.7280   17.2250 N.2   1000  BI11000    -0.2576
     20  CAV       -6.8050   16.4080   18.2330 C.1   1000  BI11000     0.2158
     21  OAX       -6.7460   15.2420   18.7350 O.2   1000  BI11000    -0.2086
     22  CAJ       -7.7110   17.5110   18.6850 C.2   1000  BI11000     0.1089
     23  CAK       -8.7160   17.4240   19.8290 C.2   1000  BI11000     0.0329
     24  CAM      -10.0040   18.0400   19.9650 C.2   1000  BI11000     0.0161
     25  CAP      -10.8120   18.9050   19.1480 C.2   1000  BI11000     0.0009
     26  CAQ      -12.0730   19.3400   19.6200 C.2   1000  BI11000    -0.0041
     27  CAR      -12.5100   18.9080   20.8960 C.2   1000  BI11000    -0.0198
     28  CAS      -11.7210   18.0440   21.7220 C.3   1000  BI11000     0.0717
     29  CAN      -10.4360   17.6020   21.2400 C.2   1000  BI11000     0.0634
     30  NAO       -9.4660   16.7930   21.7840 N.2   1000  BI11000    -0.2478
     31  CAL       -8.4020   16.6600   20.9590 C.2   1000  BI11000     0.0992
@<TRIPOS>BOND
     1    12    11   ar
     2    12    13   ar
     3    11    10   ar
     4    13    14   ar
     5    18    17    2
     6    10     9   ar
     7    14     9   ar
     8    14    15   ar
     9    17    19    2
    10    17    16    1
    11     9     7   ar
    12    19    20    2
    13    15    16    1
    14    15     8   ar
    15    16    22    2
    16    20    22    1
    17    20    21    2
    18     7     8   ar
    19     7     6    1
    20    22    23    1
    21    25    26    1
    22    25    24    2
    23     6     5    1
    24    26    27    2
    25    23    24    1
    26    23    31    2
    27     5     4    1
    28    24    29    1
    29     4     2    1
    30    27    28    1
    31    31    30    1
    32    29    28    1
    33    29    30    2
    34     2     3    1
    35     2     1    1
