@<TRIPOS>MOLECULE
1zs0_EIN_A_1.pdb
 26 27 0 0 0
SMALL
GASTEIGER

@<TRIPOS>ATOM
      1  C14        9.3810   20.2040   12.2520 C.ar  994  EIN994      0.0002
      2  C15        9.8320   18.8310   12.5710 C.ar  994  EIN994      0.0031
      3  C16        9.1750   17.6940   11.9930 C.ar  994  EIN994      0.0369
      4  C17        8.0190   17.8930   11.0560 C.ar  994  EIN994      0.1387
      5  C1         7.5750   19.2460   10.7490 C.ar  994  EIN994      0.0369
      6  C2         8.2470   20.3860   11.3380 C.ar  994  EIN994      0.0031
      7  O1         7.3090   16.7590   10.4310 O.3   994  EIN994     -0.4714
      8  C3         7.9010   15.4780   10.7120 C.3   994  EIN994      0.2525
      9  C4        10.0730   21.3840   12.8490 C.ar  994  EIN994      0.0001
     10  C5        11.5340   21.3730   13.0190 C.ar  994  EIN994      0.0014
     11  C6        12.2160   22.4970   13.5860 C.ar  994  EIN994      0.0200
     12  C7        11.4830   23.6710   13.9950 C.ar  994  EIN994      0.1236
     13  C8        10.0240   23.7240   13.8420 C.ar  994  EIN994      0.0200
     14  C9         9.3220   22.5910   13.2700 C.ar  994  EIN994      0.0014
     15  S1        12.3610   25.0310   14.6790 S.O2  994  EIN994      0.0772
     16  O2        11.7340   26.3390   14.2180 O.2   994  EIN994     -0.1516
     17  O3        13.8480   24.9630   14.2270 O.2   994  EIN994     -0.1516
     18  N1        12.2630   24.9070   16.3990 N.3   994  EIN994     -0.0719
     19  C10       11.2240   25.4890   17.2430 C.3   994  EIN994      0.1490
     20  C11       11.8600   26.2510   18.4860 C.3   994  EIN994      0.0249
     21  C12       10.8970   27.2370   19.2020 C.3   994  EIN994      0.0020
     22  C13       12.9090   27.2370   18.0080 C.3   994  EIN994      0.0020
     23  P1        10.1710   24.1750   17.8760 P.3   994  EIN994      0.1347
     24  O4         8.5150   24.5160   17.7600 O.3   994  EIN994     -0.3562
     25  O5        10.3310   23.7220   19.5260 O.3   994  EIN994     -0.3562
     26  O6        10.2490   22.7860   17.0030 O.2   994  EIN994     -0.4587
@<TRIPOS>BOND
     1     7     8    1
     2     7     4    1
     3     5     4   ar
     4     5     6   ar
     5     4     3   ar
     6     6     1   ar
     7     3     2   ar
     8     1     2   ar
     9     1     9    1
    10     9    10   ar
    11     9    14   ar
    12    10    11   ar
    13    14    13   ar
    14    11    12   ar
    15    13    12   ar
    16    12    15    1
    17    16    15    2
    18    17    15    2
    19    15    18    1
    20    18    19    1
    21    26    23    2
    22    19    23    1
    23    19    20    1
    24    24    23    1
    25    23    25    1
    26    22    20    1
    27    20    21    1
