@<TRIPOS>MOLECULE
1zs2_SUC_A_1.pdb
 23 24 0 0 0
SMALL
GASTEIGER

@<TRIPOS>ATOM
      1  C1        67.4650   24.6480   15.6330 C.3   2064  SUC2064     0.2713
      2  C2        67.7420   24.4240   17.1430 C.3   2064  SUC2064     0.2406
      3  C3        66.3990   24.5780   17.9320 C.3   2064  SUC2064     0.2198
      4  C4        65.9190   25.9810   17.7380 C.3   2064  SUC2064     0.2144
      5  C5        65.6770   26.2730   16.2690 C.3   2064  SUC2064     0.1835
      6  C6        65.2670   27.6950   16.0710 C.3   2064  SUC2064     0.2142
      7  O1        66.5630   23.5640   15.2200 O.3   2064  SUC2064    -0.3033
      8  O2        68.3000   23.1210   17.2810 O.3   2064  SUC2064    -0.2149
      9  O3        66.6330   24.3460   19.3150 O.3   2064  SUC2064    -0.2174
     10  O4        64.6640   26.1900   18.4590 O.3   2064  SUC2064    -0.2176
     11  O5        66.9000   26.0160   15.5080 O.3   2064  SUC2064    -0.3256
     12  O6        66.3870   28.5600   16.3730 O.3   2064  SUC2064    -0.2176
     13  C1'       66.2390   24.3690   12.8400 C.3   2064  SUC2064     0.2406
     14  C2'       65.6800   23.5580   14.0210 C.3   2064  SUC2064     0.2516
     15  C3'       65.4080   22.0430   13.7110 C.3   2064  SUC2064     0.2381
     16  C4'       63.8910   21.9540   13.5540 C.3   2064  SUC2064     0.2167
     17  C5'       63.4040   23.0960   14.4460 C.3   2064  SUC2064     0.1835
     18  C6'       63.0510   22.7700   15.8790 C.3   2064  SUC2064     0.2142
     19  O1'       67.5050   23.8120   12.4560 O.3   2064  SUC2064    -0.2149
     20  O2'       64.4400   24.0880   14.4140 O.3   2064  SUC2064    -0.3272
     21  O3'       65.9050   21.1720   14.7260 O.3   2064  SUC2064    -0.2150
     22  O4'       63.5130   22.1490   12.1850 O.3   2064  SUC2064    -0.2175
     23  O6'       62.0630   21.7860   15.9790 O.3   2064  SUC2064    -0.2176
@<TRIPOS>BOND
     1    22    16    1
     2    19    13    1
     3    13    14    1
     4    16    15    1
     5    16    17    1
     6    15    14    1
     7    15    21    1
     8    14    20    1
     9    14     7    1
    10    20    17    1
    11    17    18    1
    12     7     1    1
    13    11     1    1
    14    11     5    1
    15     1     2    1
    16    18    23    1
    17     6     5    1
    18     6    12    1
    19     5     4    1
    20     2     8    1
    21     2     3    1
    22     4     3    1
    23     4    10    1
    24     3     9    1
