@<TRIPOS>MOLECULE
1zs2_GLC_A_1.pdb
 11 11 0 0 0
SMALL
GASTEIGER

@<TRIPOS>ATOM
      1  C1        56.6740   -7.0390   13.7850 C.3   724  GLC724      0.1777
      2  C2        55.6870   -8.2080   13.7870 C.3   724  GLC724      0.2141
      3  C3        54.6760   -8.0260   14.9250 C.3   724  GLC724      0.2173
      4  C4        55.4050   -7.8450   16.2710 C.3   724  GLC724      0.2142
      5  C5        56.4480   -6.7170   16.1710 C.3   724  GLC724      0.1810
      6  C6        57.3180   -6.5770   17.4130 C.3   724  GLC724      0.2141
      7  O2        55.0080   -8.2590   12.5390 O.3   724  GLC724     -0.2176
      8  O3        53.8170   -9.1570   14.9830 O.3   724  GLC724     -0.2175
      9  O4        54.4620   -7.5260   17.2860 O.3   724  GLC724     -0.2176
     10  O5        57.3320   -6.9510   15.0500 O.3   724  GLC724     -0.3481
     11  O6        58.3650   -7.5410   17.4340 O.3   724  GLC724     -0.2176
@<TRIPOS>BOND
     1     7     2    1
     2     1     2    1
     3     1    10    1
     4     2     3    1
     5     3     8    1
     6     3     4    1
     7    10     5    1
     8     5     4    1
     9     5     6    1
    10     4     9    1
    11     6    11    1
