@<TRIPOS>MOLECULE
1zs5_MIB_A_1.pdb
 28 29 0 0 0
SMALL
GASTEIGER

@<TRIPOS>ATOM
      1  O1         8.4140   -3.3990    2.6510 O.2   201  MIB201     -0.2930
      2  CO         9.0080   -2.4240    2.2330 C.2   201  MIB201      0.1531
      3  CM         8.2620   -1.1060    2.0210 C.3   201  MIB201     -0.0020
      4  CA        10.3550   -2.5350    1.9540 C.2   201  MIB201     -0.0189
      5  CB        11.1390   -1.5040    1.4760 C.2   201  MIB201     -0.0493
      6  CG        12.5690   -1.7300    1.2090 C.ar  201  MIB201      0.0003
      7  CD1       13.1840   -2.9340    1.2390 C.ar  201  MIB201      0.0125
      8  CD2       13.5970   -0.7540    0.8740 C.ar  201  MIB201      0.0070
      9  NE1       14.5250   -2.7620    0.9390 N.ar  201  MIB201     -0.3491
     10  CN1       15.5170   -3.8470    0.8730 C.3   201  MIB201      0.0119
     11  CE2       14.8270   -1.4340    0.7080 C.ar  201  MIB201      0.0494
     12  CE3       13.5830    0.6420    0.7000 C.ar  201  MIB201     -0.0520
     13  CZ2       16.0000   -0.7540    0.3790 C.ar  201  MIB201     -0.0376
     14  CZ3       14.7620    1.3290    0.3690 C.ar  201  MIB201     -0.0611
     15  CH2       15.9680    0.6330    0.2090 C.ar  201  MIB201     -0.0598
     16  HM1        8.8270   -0.2970    2.4600 H     201  MIB201      0.0309
     17  HM2        7.2910   -1.1620    2.4900 H     201  MIB201      0.0309
     18  HM3        8.1420   -0.9270    0.9630 H     201  MIB201      0.0309
     19  HA        10.8270   -3.4930    2.1180 H     201  MIB201      0.0652
     20  HB        10.7030   -0.5330    1.2980 H     201  MIB201      0.0625
     21  HD1       12.7060   -3.8780    1.4560 H     201  MIB201      0.0815
     22  HN1       15.2410   -4.5400    0.0920 H     201  MIB201      0.0456
     23  HN2       15.5490   -4.3650    1.8190 H     201  MIB201      0.0456
     24  HN3       16.4900   -3.4310    0.6570 H     201  MIB201      0.0456
     25  HE3       12.6590    1.1880    0.8200 H     201  MIB201      0.0624
     26  HZ2       16.9270   -1.2950    0.2570 H     201  MIB201      0.0638
     27  HZ3       14.7400    2.4010    0.2370 H     201  MIB201      0.0618
     28  HH2       16.8720    1.1670   -0.0450 H     201  MIB201      0.0618
@<TRIPOS>BOND
     1    28    15    1
     2    22    10    1
     3    15    14   ar
     4    15    13   ar
     5    27    14    1
     6    26    13    1
     7    14    12   ar
     8    13    11   ar
     9    24    10    1
    10    12    25    1
    11    12     8   ar
    12    11     8   ar
    13    11     9   ar
    14    10     9    1
    15    10    23    1
    16     8     6   ar
    17     9     7   ar
    18    18     3    1
    19     6     7   ar
    20     6     5    1
    21     7    21    1
    22    20     5    1
    23     5     4    2
    24     4    19    1
    25     4     2    1
    26     3     2    1
    27     3    16    1
    28     3    17    1
    29     2     1    2
