@<TRIPOS>MOLECULE
1zs6_ADP_A_1.pdb
 27 29 0 0 0
SMALL
GASTEIGER

@<TRIPOS>ATOM
      1  PB        63.2820   33.4960   -1.6260 P.3   201  ADP201      0.5373
      2  O1B       64.0930   33.7410   -0.3700 O.3   201  ADP201     -0.1143
      3  O2B       62.1560   32.5100   -1.4120 O.3   201  ADP201     -0.1143
      4  O3B       62.8560   34.7510   -2.3580 O.2   201  ADP201     -0.2221
      5  PA        65.8230   33.0180   -2.9800 P.3   201  ADP201      0.2231
      6  O1A       66.3970   33.9440   -1.9330 O.3   201  ADP201     -0.4370
      7  O2A       66.4850   31.6870   -3.2470 O.2   201  ADP201     -0.5169
      8  O3A       64.2560   32.7130   -2.6650 O.3   201  ADP201     -0.2261
      9  O5'       65.8160   33.7970   -4.3840 O.3   201  ADP201     -0.3111
     10  C5'       65.2970   35.1180   -4.4940 C.3   201  ADP201      0.1813
     11  C4'       64.4200   35.2030   -5.7370 C.3   201  ADP201      0.1821
     12  O4'       65.1620   34.7620   -6.8750 O.3   201  ADP201     -0.3135
     13  C3'       63.1870   34.3080   -5.6790 C.3   201  ADP201      0.2184
     14  O3'       62.0830   34.9640   -5.0420 O.3   201  ADP201     -0.2174
     15  C2'       62.9280   33.9600   -7.1350 C.3   201  ADP201      0.2570
     16  O2'       62.0550   34.9020   -7.7830 O.3   201  ADP201     -0.2130
     17  C1'       64.3010   34.0710   -7.7840 C.3   201  ADP201      0.3186
     18  N9        64.8250   32.7100   -8.0860 N.pl3 201  ADP201     -0.1439
     19  C8        65.2830   31.8020   -7.1960 C.3   201  ADP201      0.3377
     20  N7        65.6820   30.6590   -7.8170 N.2   201  ADP201     -0.2095
     21  C5        65.4780   30.8350   -9.1340 C.2   201  ADP201      0.2526
     22  C6        65.6830   30.0310  -10.3560 C.2   201  ADP201      0.4393
     23  N6        66.1950   28.7860  -10.2690 N.pl3 201  ADP201      0.2180
     24  N1        65.3390   30.5810  -11.5490 N.2   201  ADP201      0.0021
     25  C2        64.8260   31.8320  -11.6360 C.3   201  ADP201      0.5254
     26  N3        64.6120   32.6220  -10.5640 N.2   201  ADP201     -0.0055
     27  C4        64.9120   32.1860   -9.3110 C.2   201  ADP201      0.3518
@<TRIPOS>BOND
     1    25    24    1
     2    25    26    1
     3    24    22    2
     4    26    27    2
     5    22    23    1
     6    22    21    1
     7    27    21    1
     8    27    18    1
     9    21    20    2
    10    18    17    1
    11    18    19    1
    12    20    19    1
    13    17    15    1
    14    17    12    1
    15    16    15    1
    16    15    13    1
    17    12    11    1
    18    11    13    1
    19    11    10    1
    20    13    14    1
    21    10     9    1
    22     9     5    1
    23     7     5    2
    24     5     8    1
    25     5     6    1
    26     8     1    1
    27     4     1    2
    28     1     3    1
    29     1     2    1
