@<TRIPOS>MOLECULE
1zsb_AZM_A_1.pdb
 13 13 0 0 0
SMALL
GASTEIGER

@<TRIPOS>ATOM
      1  C1        -5.1340    2.1990   15.9600 C.ar  264  AZM264      0.2590
      2  C2        -4.7810    4.3180   14.5450 C.ar  264  AZM264      0.2093
      3  C3        -6.0810    5.9690   13.2980 C.2   264  AZM264      0.2478
      4  C4        -6.0920    7.0070   12.1240 C.3   264  AZM264      0.0969
      5  N1        -5.3670   -0.4460   16.5460 N.3   264  AZM264      0.0413
      6  N2        -3.7310    3.4610   14.8540 N.ar  264  AZM264     -0.1222
      7  N3        -3.8100    2.3000   15.6230 N.ar  264  AZM264     -0.1189
      8  N4        -4.9530    5.5040   13.8440 N.am  264  AZM264     -0.1528
      9  O1        -5.5460    1.1270   18.3740 O.2   264  AZM264     -0.1483
     10  O2        -7.3980    1.1650   16.8250 O.2   264  AZM264     -0.1483
     11  O3        -7.2150    5.6130   13.6650 O.2   264  AZM264     -0.2729
     12  S1        -5.9610    0.9490   16.9910 S.O2  264  AZM264      0.1178
     13  S2        -6.0580    3.4610   15.2370 S.2   264  AZM264     -0.0087
@<TRIPOS>BOND
     1     4     3    1
     2     3    11    2
     3     3     8   am
     4     8     2    1
     5     2     6   ar
     6     2    13   ar
     7     6     7   ar
     8    13     1   ar
     9     7     1   ar
    10     1    12    1
    11     5    12    1
    12    10    12    2
    13    12     9    2
