@<TRIPOS>MOLECULE
1zsh_IHP_A_1.pdb
 36 36 0 0 0
SMALL
GASTEIGER

@<TRIPOS>ATOM
      1  C1       -22.6290   58.7760    4.4350 C.3   601  IHP601      0.1863
      2  C2       -21.2710   58.7300    3.7170 C.3   601  IHP601      0.1863
      3  C3       -20.8320   58.0500    2.4180 C.3   601  IHP601      0.1863
      4  C4       -21.7020   57.0570    1.7820 C.3   601  IHP601      0.1863
      5  C5       -22.7620   56.4560    2.7610 C.3   601  IHP601      0.1863
      6  C6       -23.5290   57.5240    3.7940 C.3   601  IHP601      0.1863
      7  O11      -23.3080   60.1250    4.7940 O.3   601  IHP601     -0.2675
      8  P1       -23.5890   60.6800    6.4700 P.3   601  IHP601      0.5327
      9  O21      -24.4410   61.9750    6.5510 O.2   601  IHP601     -0.2224
     10  O31      -24.3460   59.5730    7.1630 O.3   601  IHP601     -0.1145
     11  O41      -22.1850   60.7840    7.1170 O.3   601  IHP601     -0.1145
     12  O12      -20.3410   59.7870    3.7660 O.3   601  IHP601     -0.2675
     13  P2       -20.6580   61.3630    4.1660 P.3   601  IHP601      0.5327
     14  O22      -21.2580   62.3870    3.1030 O.2   601  IHP601     -0.2224
     15  O32      -19.9880   61.9530    5.4340 O.3   601  IHP601     -0.1145
     16  O42      -19.2000   61.2890    3.5730 O.3   601  IHP601     -0.1145
     17  O13      -19.9100   58.9860    1.7010 O.3   601  IHP601     -0.2675
     18  P3       -18.3030   58.5860    2.0050 P.3   601  IHP601      0.5327
     19  O23      -18.1400   58.3410    3.5340 O.3   601  IHP601     -0.1145
     20  O33      -17.4690   59.7810    1.4910 O.3   601  IHP601     -0.1145
     21  O43      -17.9960   57.3640    1.1250 O.2   601  IHP601     -0.2224
     22  O14      -20.9010   55.8950    1.2750 O.3   601  IHP601     -0.2675
     23  P4       -20.6870   55.6850   -0.3450 P.3   601  IHP601      0.5327
     24  O24      -19.2050   55.4540   -0.5660 O.3   601  IHP601     -0.1145
     25  O34      -21.2800   57.0190   -0.9190 O.2   601  IHP601     -0.2224
     26  O44      -21.5530   54.4790   -0.7260 O.3   601  IHP601     -0.1145
     27  O15      -23.7370   55.6880    2.0080 O.3   601  IHP601     -0.2675
     28  P5       -23.7100   54.0200    2.0190 P.3   601  IHP601      0.5327
     29  O25      -22.2750   53.6630    1.6230 O.3   601  IHP601     -0.1145
     30  O35      -24.8210   53.7310    0.9790 O.2   601  IHP601     -0.2224
     31  O45      -24.0060   53.4500    3.4170 O.3   601  IHP601     -0.1145
     32  O16      -24.0190   56.7340    4.8650 O.3   601  IHP601     -0.2675
     33  P6       -25.2350   57.3670    5.7360 P.3   601  IHP601      0.5327
     34  O26      -26.6990   57.4650    5.3140 O.2   601  IHP601     -0.2224
     35  O36      -24.7860   57.4510    7.1890 O.3   601  IHP601     -0.1145
     36  O46      -25.5280   55.7500    5.9900 O.3   601  IHP601     -0.1145
@<TRIPOS>BOND
     1    25    23    2
     2    26    23    1
     3    24    23    1
     4    23    22    1
     5    30    28    2
     6    21    18    2
     7    22     4    1
     8    20    18    1
     9    29    28    1
    10    17    18    1
    11    17     3    1
    12     4     3    1
    13     4     5    1
    14    18    19    1
    15    27    28    1
    16    27     5    1
    17    28    31    1
    18     3     2    1
    19     5     6    1
    20    14    13    2
    21    16    13    1
    22     2    12    1
    23     2     1    1
    24    12    13    1
    25     6     1    1
    26     6    32    1
    27    13    15    1
    28     1     7    1
    29     7     8    1
    30    32    33    1
    31    34    33    2
    32    33    36    1
    33    33    35    1
    34     8     9    2
    35     8    11    1
    36     8    10    1
