@<TRIPOS>MOLECULE
1zsj_709_A_1.pdb
 24 26 0 0 0
SMALL
GASTEIGER

@<TRIPOS>ATOM
      1  C1        12.0490   50.7110   22.0880 C.ar  301  709301      0.0013
      2  C2        11.6000   49.3430   22.3230 C.ar  301  709301      0.0003
      3  C3        11.3940   48.4930   21.2640 C.ar  301  709301      0.0080
      4  C4        11.6130   48.8890   19.8570 C.ar  301  709301      0.0975
      5  C5        12.0480   50.1770   19.5680 C.ar  301  709301      0.0093
      6  C6        12.3000   51.1580   20.6390 C.ar  301  709301      0.0156
      7  C7        12.7630   52.5400   20.3740 C.ar  301  709301      0.0736
      8  C8        12.9580   53.3890   21.5040 C.ar  301  709301      0.0166
      9  C9        12.7060   52.9400   22.9070 C.ar  301  709301      0.0013
     10  C10       12.2790   51.6630   23.1790 C.ar  301  709301      0.0001
     11  C11       11.3520   47.9250   18.7550 C.2   301  709301      0.4766
     12  N12       11.3480   46.5350   18.9820 N.pl3 301  709301      0.2047
     13  N13       11.0900   48.3410   17.5620 N.pl3 301  709301      0.2047
     14  N14       12.9940   52.9110   18.9710 N.am  301  709301     -0.1755
     15  C15       12.5540   54.0440   18.3230 C.2   301  709301      0.2688
     16  C16       11.4320   54.9740   18.8770 C.ar  301  709301      0.0545
     17  O17       13.0940   54.3380   17.2480 O.2   301  709301     -0.2680
     18  C18       10.0230   54.5160   18.9500 C.ar  301  709301      0.0045
     19  C19        8.9950   55.3920   19.4750 C.ar  301  709301      0.0034
     20  C20        9.3330   56.6980   19.9280 C.ar  301  709301      0.0417
     21  C21       10.6860   57.1990   19.8830 C.ar  301  709301      0.1919
     22  C22       11.7610   56.3540   19.3650 C.ar  301  709301      0.0215
     23  C23       13.2410   56.9370   19.3350 C.3   301  709301      0.0345
     24  O24       10.9330   58.4860   20.3450 O.3   301  709301     -0.2869
@<TRIPOS>BOND
     1    17    15    2
     2    13    11    2
     3    15    16    1
     4    15    14   am
     5    11    12    1
     6    11     4    1
     7    16    18   ar
     8    16    22   ar
     9    18    19   ar
    10    14     7    1
    11    23    22    1
    12    22    21   ar
    13    19    20   ar
    14     5     4   ar
    15     5     6   ar
    16     4     3   ar
    17    21    20   ar
    18    21    24    1
    19     7     6   ar
    20     7     8   ar
    21     6     1   ar
    22     3     2   ar
    23     8     9   ar
    24     1     2   ar
    25     1    10   ar
    26     9    10   ar
