@<TRIPOS>MOLECULE
1zsk_421_A_1.pdb
 28 30 0 0 0
SMALL
GASTEIGER

@<TRIPOS>ATOM
      1  C1         9.7320   72.7990   82.6140 C.ar  301  421301      0.0015
      2  C2        11.1100   72.3490   82.8610 C.ar  301  421301      0.0003
      3  C3        11.9540   72.0900   81.7980 C.ar  301  421301      0.0080
      4  C4        11.5260   72.2530   80.3580 C.ar  301  421301      0.0975
      5  C5        10.2220   72.6830   80.0520 C.ar  301  421301      0.0093
      6  C6         9.2470   72.9870   81.1310 C.ar  301  421301      0.0156
      7  C7         7.8560   73.4630   80.8690 C.ar  301  421301      0.0738
      8  C8         7.0220   73.7000   82.0160 C.ar  301  421301      0.0230
      9  C9         7.4960   73.5090   83.4260 C.ar  301  421301      0.0769
     10  C10        8.7900   73.0780   83.7060 C.ar  301  421301      0.0065
     11  C11       12.4720   71.9520   79.2610 C.2   301  421301      0.4766
     12  N12       13.8610   71.9740   79.4640 N.pl3 301  421301      0.2047
     13  N13       12.0270   71.6600   78.0770 N.pl3 301  421301      0.2047
     14  N14        7.4800   73.6280   79.4570 N.am  301  421301     -0.1755
     15  C15        6.3390   73.2250   78.8350 C.2   301  421301      0.2688
     16  C16        5.4200   72.1390   79.4300 C.ar  301  421301      0.0545
     17  O17        6.0410   73.7710   77.7540 O.2   301  421301     -0.2680
     18  C18        5.8680   70.7030   79.4920 C.ar  301  421301      0.0045
     19  C19        4.9820   69.6850   80.0650 C.ar  301  421301      0.0034
     20  C20        3.6790   70.0570   80.5490 C.ar  301  421301      0.0417
     21  C21        3.2000   71.4370   80.5150 C.ar  301  421301      0.1919
     22  C22        4.0490   72.5120   79.9440 C.ar  301  421301      0.0215
     23  C23        3.4900   74.0240   79.9250 C.3   301  421301      0.0345
     24  O24        1.9400   71.6970   81.0000 O.3   301  421301     -0.2869
     25  C25        6.5320   73.7980   84.4960 C.2   301  421301      0.3414
     26  O26        5.3820   74.1550   84.2880 O.2   301  421301     -0.2449
     27  O27        7.1140   73.6190   85.7100 O.3   301  421301     -0.4413
     28  C28        6.2920   73.2420   86.8270 C.3   301  421301      0.2560
@<TRIPOS>BOND
     1    17    15    2
     2    13    11    2
     3    15    16    1
     4    15    14   am
     5    11    12    1
     6    11     4    1
     7    16    18   ar
     8    16    22   ar
     9    14     7    1
    10    18    19   ar
    11    23    22    1
    12    22    21   ar
    13     5     4   ar
    14     5     6   ar
    15    19    20   ar
    16     4     3   ar
    17    21    20   ar
    18    21    24    1
    19     7     6   ar
    20     7     8   ar
    21     6     1   ar
    22     3     2   ar
    23     8     9   ar
    24     1     2   ar
    25     1    10   ar
    26     9    10   ar
    27     9    25    1
    28    26    25    2
    29    25    27    1
    30    27    28    1
