@<TRIPOS>MOLECULE
1zsl_624_A_1.pdb
 38 40 0 0 0
SMALL
GASTEIGER

@<TRIPOS>ATOM
      1  CX       111.0420   25.8710   51.6540 C.3   900  624900      0.2173
      2  CY       110.7070   24.4050   51.8540 C.3   900  624900      0.1321
      3  CZ       110.6280   26.7910   52.8380 C.ar  900  624900      0.1203
      4  OX       112.5050   25.8930   51.4720 O.3   900  624900     -0.2142
      5  N02      109.2400   24.3940   51.9380 N.am  900  624900     -0.2025
      6  C06      111.1510   23.5410   50.6310 C.3   900  624900      0.0284
      7  C07      110.8520   22.0680   50.8600 C.3   900  624900      0.0488
      8  C08      110.5010   21.3240   49.5970 C.3   900  624900      0.2205
      9  N09      110.8040   19.9230   49.8850 N.pl3 900  624900     -0.0865
     10  C10      111.0600   18.9040   49.0390 C.cat 900  624900      0.5346
     11  N11      111.0720   19.0520   47.6960 N.pl3 900  624900      0.1354
     12  NP2      111.3130   17.7030   49.5820 N.pl3 900  624900      0.1354
     13  C18      108.4550   23.7890   52.7970 C.2   900  624900      0.2646
     14  O19      108.8480   23.0960   53.7400 O.2   900  624900     -0.2712
     15  C20      106.9960   24.0050   52.4770 C.3   900  624900      0.1971
     16  N21      106.1060   23.2600   53.4170 N.ar  900  624900     -0.2703
     17  C22      105.9540   21.8880   53.2070 C.ar  900  624900      0.2787
     18  C23      105.1310   21.0450   53.9970 C.ar  900  624900      0.1407
     19  C24      104.4960   21.6940   55.0910 C.ar  900  624900      0.1214
     20  N25      104.6380   23.0340   55.3440 N.ar  900  624900     -0.2252
     21  C26      105.4450   23.7840   54.5310 C.ar  900  624900      0.1465
     22  O27      106.5360   21.3120   52.2540 O.2   900  624900     -0.2655
     23  N28      105.0650   19.6500   53.6720 N.pl3 900  624900     -0.2334
     24  C30      104.3160   18.6100   54.3900 C.3   900  624900      0.0928
     25  C31      105.1410   18.0760   55.5920 C.3   900  624900      0.0233
     26  C32      104.0070   17.4900   53.4030 C.3   900  624900      0.0233
     27  C33      105.5060   25.1900   54.9650 C.ar  900  624900      0.0351
     28  C34      106.7480   25.6130   55.5750 C.ar  900  624900      0.0039
     29  C35      106.9040   26.9420   56.0520 C.ar  900  624900      0.0123
     30  C36      105.8480   27.9040   55.9420 C.ar  900  624900      0.0682
     31  C37      104.5720   27.5050   55.3280 C.ar  900  624900      0.0683
     32  C38      104.4240   26.1370   54.8410 C.ar  900  624900      0.0152
     33 CL1       106.1990   29.4480   56.5760 Cl    900  624900     -0.0814
     34 CL2       103.2420   28.5780   55.1650 Cl    900  624900     -0.0814
     35  N45      109.4180   27.2210   53.0190 N.ar  900  624900     -0.2386
     36  C46      109.3800   28.0310   54.1470 C.ar  900  624900      0.1061
     37  C47      110.6190   28.1550   54.7610 C.ar  900  624900      0.0573
     38  S48      111.8060   27.2910   53.9530 S.2   900  624900     -0.0677
@<TRIPOS>BOND
     1    11    10    1
     2    10    12    1
     3    10     9    2
     4     8     9    1
     5     8     7    1
     6     6     7    1
     7     6     2    1
     8     4     1    1
     9     1     2    1
    10     1     3    1
    11     2     5    1
    12     5    13   am
    13    22    17    2
    14    15    13    1
    15    15    16    1
    16    13    14    2
    17     3    35   ar
    18     3    38   ar
    19    35    36   ar
    20    17    16   ar
    21    17    18   ar
    22    26    24    1
    23    16    21   ar
    24    23    18    1
    25    23    24    1
    26    38    37   ar
    27    18    19   ar
    28    36    37   ar
    29    24    25    1
    30    21    27    1
    31    21    20   ar
    32    32    27   ar
    33    32    31   ar
    34    27    28   ar
    35    19    20   ar
    36    34    31    1
    37    31    30   ar
    38    28    29   ar
    39    30    29   ar
    40    30    33    1
