@<TRIPOS>MOLECULE
1zsn_TN2_A_1.pdb
 19 20 0 0 0
SMALL
GASTEIGER

@<TRIPOS>ATOM
      1  O19       54.6040   87.6300   32.4940 O.2   500  TN2500     -0.1261
      2  N17       54.5190   88.8450   32.4970 N.pl3 500  TN2500      0.0577
      3  O18       55.3930   89.4870   31.9460 O.2   500  TN2500     -0.1261
      4  C14       53.4320   89.4960   33.1170 C.ar  500  TN2500      0.1439
      5  C13       52.6820   88.8640   34.1190 C.ar  500  TN2500      0.0385
      6  C11       51.6080   89.5270   34.7120 C.ar  500  TN2500      0.0937
      7 CL12       50.5840   88.7880   35.9860 Cl    500  TN2500     -0.0790
      8  C15       53.0950   90.7910   32.7210 C.ar  500  TN2500      0.0273
      9  C16       52.0210   91.4400   33.3220 C.ar  500  TN2500      0.0401
     10  C10       51.2760   90.8060   34.3220 C.ar  500  TN2500      0.1560
     11  O9        50.2020   91.4020   34.9540 O.3   500  TN2500     -0.4494
     12  C6        49.8840   92.7150   34.7240 C.ar  500  TN2500      0.1840
     13  C4        48.9770   93.0620   33.7110 C.ar  500  TN2500      0.2307
     14  O5        48.3790   92.1330   32.9230 O.3   500  TN2500     -0.2833
     15  C3        48.6650   94.3950   33.4930 C.ar  500  TN2500      0.0566
     16  C7        50.4830   93.7070   35.5060 C.ar  500  TN2500      0.0417
     17  C8        50.1700   95.0480   35.2780 C.ar  500  TN2500      0.0147
     18  C2        49.2620   95.3750   34.2740 C.ar  500  TN2500      0.0611
     19 CL20       48.8150   97.0690   33.9490 Cl    500  TN2500     -0.0821
@<TRIPOS>BOND
     1     3     2    2
     2     1     2    2
     3     2     4    1
     4     8     4   ar
     5     8     9   ar
     6    14    13    1
     7     4     5   ar
     8     9    10   ar
     9    15    13   ar
    10    15    18   ar
    11    13    12   ar
    12    19    18    1
    13     5     6   ar
    14    18    17   ar
    15    10     6   ar
    16    10    11    1
    17     6     7    1
    18    12    11    1
    19    12    16   ar
    20    17    16   ar
