@<TRIPOS>MOLECULE
1zsn_NAD_A_1.pdb
 44 48 0 0 0
SMALL
GASTEIGER

@<TRIPOS>ATOM
      1  PA        50.7360   88.3040   40.3990 P.3   450  NAD450      0.2189
      2  O1A       52.2290   88.1790   40.4580 O.2   450  NAD450     -0.5170
      3  O2A       49.9220   88.4290   41.6640 O.3   450  NAD450     -0.4371
      4  O5B       50.1660   87.0110   39.6260 O.3   450  NAD450     -0.3112
      5  C5B       50.8540   86.4170   38.5470 C.3   450  NAD450      0.1813
      6  C4B       51.0600   84.9810   38.9520 C.3   450  NAD450      0.1821
      7  O4B       51.2080   84.1940   37.7900 O.3   450  NAD450     -0.3135
      8  C3B       52.3610   84.7350   39.7030 C.3   450  NAD450      0.2184
      9  O3B       52.1910   84.9560   41.1050 O.3   450  NAD450     -0.2174
     10  C2B       52.6830   83.2850   39.4250 C.3   450  NAD450      0.2570
     11  O2B       52.1810   82.4690   40.4960 O.3   450  NAD450     -0.2130
     12  C1B       51.7870   82.9720   38.2520 C.3   450  NAD450      0.3186
     13  N9A       52.4050   82.2170   37.1330 N.pl3 450  NAD450     -0.1439
     14  C8A       53.2070   82.7350   36.1680 C.3   450  NAD450      0.3377
     15  N7A       53.5520   81.7620   35.2700 N.2   450  NAD450     -0.2095
     16  C5A       52.9550   80.6030   35.6580 C.2   450  NAD450      0.2526
     17  C6A       52.9150   79.2990   35.1730 C.2   450  NAD450      0.4393
     18  N6A       53.6150   78.9860   34.0440 N.pl3 450  NAD450      0.2180
     19  N1A       52.1770   78.3710   35.8580 N.2   450  NAD450      0.0021
     20  C2A       51.4850   78.6730   36.9810 C.3   450  NAD450      0.5254
     21  N3A       51.4770   79.9150   37.5010 N.2   450  NAD450     -0.0055
     22  C4A       52.1860   80.9100   36.8890 C.2   450  NAD450      0.3518
     23  O3        50.3920   89.5810   39.4550 O.3   450  NAD450     -0.2703
     24  PN        48.8960   90.1170   39.1360 P.3   450  NAD450      0.2189
     25  O1N       49.0700   91.3600   38.3120 O.2   450  NAD450     -0.5170
     26  O2N       48.0730   90.1860   40.3890 O.3   450  NAD450     -0.4371
     27  O5D       48.3650   88.9270   38.1910 O.3   450  NAD450     -0.3112
     28  C5D       47.0300   88.4270   38.2540 C.3   450  NAD450      0.1813
     29  C4D       46.2650   88.6860   36.9520 C.3   450  NAD450      0.1799
     30  O4D       45.7630   90.0380   36.9170 O.3   450  NAD450     -0.3327
     31  C3D       47.1640   88.5320   35.7350 C.3   450  NAD450      0.2158
     32  O3D       46.4970   87.8220   34.7020 O.3   450  NAD450     -0.2175
     33  C2D       47.3900   89.9460   35.2760 C.3   450  NAD450      0.2309
     34  O2D       47.6730   89.8900   33.8920 O.3   450  NAD450     -0.2158
     35  C1D       46.0530   90.5910   35.6320 C.3   450  NAD450      0.2263
     36  N1N       46.0790   92.0530   35.6920 N.pl3 450  NAD450     -0.2787
     37  C2N       46.8830   92.6990   36.5660 C.3   450  NAD450      0.1244
     38  C3N       46.9220   94.0980   36.6350 C.2   450  NAD450      0.0544
     39  C7N       47.8400   94.8280   37.5890 C.2   450  NAD450      0.2818
     40  O7N       48.0300   96.1250   37.4250 O.2   450  NAD450     -0.2670
     41  N7N       48.4700   94.2600   38.5210 N.am  450  NAD450     -0.0839
     42  C4N       46.0990   94.8100   35.7700 C.2   450  NAD450      0.0033
     43  C5N       45.2730   94.1250   34.8780 C.2   450  NAD450      0.0157
     44  C6N       45.2790   92.7340   34.8570 C.2   450  NAD450      0.0633
@<TRIPOS>BOND
     1    34    33    1
     2    18    17    1
     3    32    31    1
     4    44    43    2
     5    44    36    1
     6    43    42    1
     7    17    16    1
     8    17    19    2
     9    15    16    2
    10    15    14    1
    11    33    35    1
    12    33    31    1
    13    35    36    1
    14    35    30    1
    15    16    22    1
    16    36    37    1
    17    31    29    1
    18    42    38    2
    19    19    20    1
    20    14    13    1
    21    37    38    1
    22    38    39    1
    23    22    13    1
    24    22    21    2
    25    30    29    1
    26    29    28    1
    27    20    21    1
    28    13    12    1
    29    40    39    2
    30    39    41   am
    31     7    12    1
    32     7     6    1
    33    27    28    1
    34    27    24    1
    35    12    10    1
    36    25    24    2
    37     5     6    1
    38     5     4    1
    39     6     8    1
    40    24    23    1
    41    24    26    1
    42    10     8    1
    43    10    11    1
    44    23     1    1
    45     4     1    1
    46     8     9    1
    47     1     2    2
    48     1     3    1
