@<TRIPOS>MOLECULE
1zsq_PIB_A_1.pdb
 35 35 0 0 0
SMALL
GASTEIGER

@<TRIPOS>ATOM
      1  C1        36.1240   57.5830  -55.6260 C.3   3632  PIB3632     0.1873
      2  C2        37.6700   57.3290  -55.6910 C.3   3632  PIB3632     0.2120
      3  C3        37.8810   55.7310  -55.9160 C.3   3632  PIB3632     0.1918
      4  C4        37.1800   55.2830  -57.2550 C.3   3632  PIB3632     0.2148
      5  C5        35.6190   55.5150  -57.1080 C.3   3632  PIB3632     0.2173
      6  C6        35.3820   57.0710  -56.9120 C.3   3632  PIB3632     0.2147
      7  O1        35.9180   59.0280  -55.4350 O.3   3632  PIB3632    -0.3111
      8  O2        38.2290   58.0560  -56.8300 O.3   3632  PIB3632    -0.2177
      9  O3        39.2710   55.5920  -55.9330 O.3   3632  PIB3632    -0.2673
     10  O4        37.3870   53.8820  -57.4200 O.3   3632  PIB3632    -0.2176
     11  O5        34.9650   55.1310  -58.2990 O.3   3632  PIB3632    -0.2175
     12  O6        33.9610   57.3150  -56.7610 O.3   3632  PIB3632    -0.2176
     13  P1        35.8470   59.7430  -54.0110 P.3   3632  PIB3632     0.2142
     14  O11       35.9770   61.3190  -54.1680 O.2   3632  PIB3632    -0.5172
     15  O12       37.0160   59.2390  -53.0810 O.3   3632  PIB3632    -0.4373
     16  O13       34.4210   59.4030  -53.3180 O.3   3632  PIB3632    -0.3100
     17  P3        40.1270   55.1770  -54.6690 P.3   3632  PIB3632     0.5327
     18  O31       40.3640   53.6320  -54.6080 O.3   3632  PIB3632    -0.1145
     19  O32       39.3680   55.6440  -53.4270 O.3   3632  PIB3632    -0.1145
     20  O33       41.5680   55.8400  -54.9080 O.2   3632  PIB3632    -0.2224
     21  C7        33.2710   59.0890  -54.0820 C.3   3632  PIB3632     0.1964
     22  C8        32.0660   59.4960  -53.2770 C.3   3632  PIB3632     0.2420
     23  C9        31.0080   59.8190  -54.3600 C.3   3632  PIB3632     0.2543
     24  C10       29.0710   61.0510  -55.3730 C.2   3632  PIB3632     0.3171
     25  C11       28.2050   62.2790  -55.0750 C.3   3632  PIB3632     0.1096
     26  C12       26.9350   62.0310  -54.2120 C.3   3632  PIB3632     0.0116
     27  C13       27.2380   61.1730  -52.9640 C.3   3632  PIB3632     0.0006
     28  C14       31.1400   58.4970  -51.0680 C.2   3632  PIB3632     0.3171
     29  C15       31.2100   57.1660  -50.2700 C.3   3632  PIB3632     0.1096
     30  C16       31.0580   55.7830  -50.9640 C.3   3632  PIB3632     0.0116
     31  C17       30.6010   54.6660  -50.0060 C.3   3632  PIB3632     0.0006
     32  O14       31.8070   58.4200  -52.2930 O.3   3632  PIB3632    -0.4457
     33  O15       29.9810   60.8270  -54.2920 O.3   3632  PIB3632    -0.4444
     34  O16       28.9190   60.3880  -56.4450 O.2   3632  PIB3632    -0.2501
     35  O17       30.6340   59.4710  -50.5710 O.2   3632  PIB3632    -0.2501
@<TRIPOS>BOND
     1    11     5    1
     2    10     4    1
     3     4     5    1
     4     4     3    1
     5     5     6    1
     6     6    12    1
     7     6     1    1
     8     8     2    1
     9    34    24    2
    10     9     3    1
    11     9    17    1
    12     3     2    1
    13     2     1    1
    14     1     7    1
    15     7    13    1
    16    24    25    1
    17    24    33    1
    18    25    26    1
    19    20    17    2
    20    17    18    1
    21    17    19    1
    22    23    33    1
    23    23    22    1
    24    26    27    1
    25    14    13    2
    26    21    16    1
    27    21    22    1
    28    13    16    1
    29    13    15    1
    30    22    32    1
    31    32    28    1
    32    28    35    2
    33    28    29    1
    34    30    29    1
    35    30    31    1
