@<TRIPOS>MOLECULE
1zsx_NAP_A_1.pdb
 48 52 0 0 0
SMALL
GASTEIGER

@<TRIPOS>ATOM
      1  PA         8.3280  -38.9150   21.6520 P.3   800  NAP800      0.2189
      2  O1A        7.7270  -39.4350   20.4040 O.2   800  NAP800     -0.5170
      3  O2A        9.7850  -38.9150   21.7320 O.3   800  NAP800     -0.4371
      4  O5B        7.6280  -39.7550   22.7850 O.3   800  NAP800     -0.3112
      5  C5B        8.1590  -39.5280   24.0990 C.3   800  NAP800      0.1813
      6  C4B        7.7060  -40.6660   24.9870 C.3   800  NAP800      0.1820
      7  O4B        8.3550  -41.8640   24.5600 O.3   800  NAP800     -0.3136
      8  C3B        8.1100  -40.4770   26.4450 C.3   800  NAP800      0.2157
      9  O3B        7.1360  -39.7870   27.1910 O.3   800  NAP800     -0.2175
     10  C2B        8.3320  -41.9140   26.8860 C.3   800  NAP800      0.2314
     11  O2B        7.0840  -42.5520   27.0780 O.3   800  NAP800     -0.2630
     12  C1B        8.9430  -42.5670   25.6790 C.3   800  NAP800      0.3158
     13  N9A       10.4030  -42.4530   25.6250 N.pl3 800  NAP800     -0.1439
     14  C8A       11.1330  -41.3000   25.4230 C.3   800  NAP800      0.3377
     15  N7A       12.4300  -41.6060   25.3850 N.2   800  NAP800     -0.2095
     16  C5A       12.5580  -42.9510   25.5840 C.2   800  NAP800      0.2526
     17  C6A       13.6680  -43.8090   25.6590 C.2   800  NAP800      0.4393
     18  N6A       14.9210  -43.3940   25.5380 N.pl3 800  NAP800      0.2180
     19  N1A       13.4530  -45.1470   25.8500 N.2   800  NAP800      0.0021
     20  C2A       12.1780  -45.6390   25.9950 C.3   800  NAP800      0.5254
     21  N3A       11.0840  -44.8050   25.9290 N.2   800  NAP800     -0.0055
     22  C4A       11.2890  -43.4800   25.7330 C.2   800  NAP800      0.3518
     23  O3         7.7500  -37.4240   21.9440 O.3   800  NAP800     -0.2703
     24  PN         6.3050  -36.9190   22.3910 P.3   800  NAP800      0.2189
     25  O1N        6.3240  -36.7740   23.8580 O.3   800  NAP800     -0.4371
     26  O2N        5.2000  -37.5550   21.6760 O.2   800  NAP800     -0.5170
     27  O5D        6.4090  -35.4210   21.8420 O.3   800  NAP800     -0.3112
     28  C5D        7.4440  -34.5570   22.3050 C.3   800  NAP800      0.1813
     29  C4D        6.9000  -33.1360   22.5040 C.3   800  NAP800      0.1799
     30  O4D        6.4410  -32.7200   21.2290 O.3   800  NAP800     -0.3327
     31  C3D        5.6920  -32.9910   23.3690 C.3   800  NAP800      0.2158
     32  O3D        5.9450  -32.8800   24.7490 O.3   800  NAP800     -0.2175
     33  C2D        5.0790  -31.7070   22.8100 C.3   800  NAP800      0.2309
     34  O2D        5.7620  -30.5670   23.3390 O.3   800  NAP800     -0.2158
     35  C1D        5.3580  -31.8220   21.3370 C.3   800  NAP800      0.2263
     36  N1N        4.1500  -32.2630   20.6290 N.pl3 800  NAP800     -0.2787
     37  C2N        3.4700  -31.3300   19.9060 C.3   800  NAP800      0.1244
     38  C3N        2.3010  -31.7080   19.2810 C.2   800  NAP800      0.0544
     39  C7N        1.5750  -30.7170   18.4560 C.2   800  NAP800      0.2818
     40  O7N        0.3020  -31.0500   18.1080 O.2   800  NAP800     -0.2670
     41  N7N        2.1620  -29.6260   18.0240 N.am  800  NAP800     -0.0839
     42  C4N        1.7790  -33.0230   19.3670 C.2   800  NAP800      0.0033
     43  C5N        2.5060  -33.9540   20.1020 C.2   800  NAP800      0.0157
     44  C6N        3.6800  -33.5590   20.7170 C.2   800  NAP800      0.0633
     45  P2B        6.6450  -43.5730   28.2450 P.3   800  NAP800      0.5328
     46  O1X        6.2320  -44.8040   27.5120 O.2   800  NAP800     -0.2224
     47  O2X        7.8390  -43.8000   29.1430 O.3   800  NAP800     -0.1145
     48  O3X        5.5180  -43.0030   29.0370 O.3   800  NAP800     -0.1145
@<TRIPOS>BOND
     1    41    39   am
     2    40    39    2
     3    39    38    1
     4    38    42    2
     5    38    37    1
     6    42    43    1
     7    37    36    1
     8    43    44    2
     9     2     1    2
    10    36    44    1
    11    36    35    1
    12    30    35    1
    13    30    29    1
    14    35    33    1
    15     1     3    1
    16     1    23    1
    17     1     4    1
    18    26    24    2
    19    27    28    1
    20    27    24    1
    21    23    24    1
    22    28    29    1
    23    24    25    1
    24    29    31    1
    25     4     5    1
    26    33    34    1
    27    33    31    1
    28    31    32    1
    29     5     6    1
    30     7     6    1
    31     7    12    1
    32     6     8    1
    33    15    14    1
    34    15    16    2
    35    14    13    1
    36    18    17    1
    37    16    17    1
    38    16    22    1
    39    13    12    1
    40    13    22    1
    41    17    19    2
    42    12    10    1
    43    22    21    2
    44    19    20    1
    45    21    20    1
    46     8    10    1
    47     8     9    1
    48    10    11    1
    49    11    45    1
    50    46    45    2
    51    45    48    1
    52    45    47    1
