@<TRIPOS>MOLECULE
1zt9_TRP_A_1.pdb
 15 16 0 0 0
SMALL
GASTEIGER

@<TRIPOS>ATOM
      1  N         84.4820   65.3210   -8.2580 N.3   1001  TRP1001    -0.1205
      2  CA        84.0620   66.6440   -8.7190 C.3   1001  TRP1001     0.1984
      3  C         85.1260   67.6670   -8.3610 C.2   1001  TRP1001     0.3822
      4  O         85.9340   67.3500   -7.4910 O.co2 1001  TRP1001    -0.2440
      5  CB        82.7500   67.0510   -8.0620 C.3   1001  TRP1001     0.0549
      6  CG        81.8990   67.9470   -8.8820 C.2   1001  TRP1001    -0.0138
      7  CD1       81.8330   69.3090   -8.8140 C.2   1001  TRP1001     0.0907
      8  CD2       80.9430   67.5530   -9.8680 C.3   1001  TRP1001     0.0819
      9  NE1       80.9200   69.7850   -9.7230 N.2   1001  TRP1001    -0.2482
     10  CE2       80.3510   68.7260  -10.3740 C.2   1001  TRP1001     0.0665
     11  CE3       80.5380   66.3260  -10.3970 C.2   1001  TRP1001    -0.0164
     12  CZ2       79.3740   68.7050  -11.3660 C.2   1001  TRP1001     0.0153
     13  CZ3       79.5610   66.3170  -11.3880 C.2   1001  TRP1001    -0.0038
     14  CH2       78.9900   67.4970  -11.8450 C.2   1001  TRP1001     0.0009
     15  OXT       85.1280   68.7600   -8.9360 O.co2 1001  TRP1001    -0.2440
@<TRIPOS>BOND
     1    14    13    1
     2    14    12    2
     3    13    11    2
     4    12    10    1
     5    11     8    1
     6    10     8    1
     7    10     9    2
     8     8     6    1
     9     9     7    1
    10    15     3   ar
    11     6     7    2
    12     6     5    1
    13     2     3    1
    14     2     1    1
    15     2     5    1
    16     3     4   ar
