@<TRIPOS>MOLECULE
1ztf_XYA_A_1.pdb
 19 21 0 0 0
SMALL
GASTEIGER

@<TRIPOS>ATOM
      1  O5'       30.0700   21.0400    7.6700 O.3   300  XYA300     -0.2176
      2  C5'       31.3920   21.5560    7.3950 C.3   300  XYA300      0.2143
      3  C4'       32.0830   20.7000    6.3760 C.3   300  XYA300      0.1851
      4  O4'       33.3890   21.1960    6.1540 O.3   300  XYA300     -0.3134
      5  C1'       34.3420   20.6400    7.0670 C.3   300  XYA300      0.3186
      6  N9        34.5680   21.7110    8.1670 N.pl3 300  XYA300     -0.1439
      7  C8        33.6010   22.5920    8.4590 C.3   300  XYA300      0.3377
      8  N7        33.9690   23.4660    9.3870 N.2   300  XYA300     -0.2095
      9  C5        35.1930   23.1760    9.7630 C.2   300  XYA300      0.2526
     10  C6        36.1450   23.7670   10.7620 C.2   300  XYA300      0.4393
     11  N1        37.3650   23.2490   10.8320 N.2   300  XYA300      0.0021
     12  C2        37.6990   22.2250   10.0350 C.3   300  XYA300      0.5254
     13  N3        36.8770   21.6380    9.1560 N.2   300  XYA300     -0.0055
     14  C4        35.6220   22.0530    8.9470 C.2   300  XYA300      0.3518
     15  N6        35.8030   24.7750   11.4980 N.pl3 300  XYA300      0.2180
     16  C2'       33.6690   19.2600    7.3930 C.3   300  XYA300      0.2570
     17  O2'       34.3260   18.0760    6.8350 O.3   300  XYA300     -0.2130
     18  C3'       32.2730   19.2770    6.7720 C.3   300  XYA300      0.2186
     19  O3'       31.2400   18.8150    7.6520 O.3   300  XYA300     -0.2174
@<TRIPOS>BOND
     1     4     3    1
     2     4     5    1
     3     3    18    1
     4     3     2    1
     5    18    16    1
     6    18    19    1
     7    17    16    1
     8     5    16    1
     9     5     6    1
    10     2     1    1
    11     6     7    1
    12     6    14    1
    13     7     8    1
    14    14    13    2
    15    14     9    1
    16    13    12    1
    17     8     9    2
    18     9    10    1
    19    12    11    1
    20    10    11    2
    21    10    15    1
