@<TRIPOS>MOLECULE
1zth_ADP_A_1.pdb
 27 29 0 0 0
SMALL
GASTEIGER

@<TRIPOS>ATOM
      1  PB        15.4230    2.4390   54.4380 P.3   901  ADP901      0.5373
      2  O1B       14.3420    2.3780   53.4160 O.2   901  ADP901     -0.2221
      3  O2B       16.8340    2.2220   53.9730 O.3   901  ADP901     -0.1143
      4  O3B       15.3300    3.6900   55.3050 O.3   901  ADP901     -0.1143
      5  PA        14.7650   -0.1900   55.5460 P.3   901  ADP901      0.2231
      6  O1A       14.1230   -0.4790   56.8940 O.3   901  ADP901     -0.4370
      7  O2A       14.0690   -0.5190   54.2300 O.2   901  ADP901     -0.5169
      8  O3A       15.1990    1.3590   55.6490 O.3   901  ADP901     -0.2261
      9  O5'       16.1110   -1.0340   55.5280 O.3   901  ADP901     -0.3111
     10  C5'       17.0140   -0.9080   54.4450 C.3   901  ADP901      0.1813
     11  C4'       17.5620   -2.2840   54.0710 C.3   901  ADP901      0.1821
     12  O4'       18.2190   -2.8920   55.1730 O.3   901  ADP901     -0.3135
     13  C3'       16.4260   -3.2230   53.7170 C.3   901  ADP901      0.2184
     14  O3'       16.1800   -3.0260   52.3400 O.3   901  ADP901     -0.2174
     15  C2'       17.1520   -4.5290   53.8900 C.3   901  ADP901      0.2570
     16  O2'       17.9780   -4.6180   52.7430 O.3   901  ADP901     -0.2130
     17  C1'       18.0080   -4.2880   55.1350 C.3   901  ADP901      0.3186
     18  N9        17.2410   -4.7130   56.3270 N.pl3 901  ADP901     -0.1439
     19  C8        16.3140   -3.9990   56.9850 C.3   901  ADP901      0.3377
     20  N7        15.8310   -4.7100   57.9990 N.2   901  ADP901     -0.2095
     21  C5        16.3770   -5.9200   57.9990 C.2   901  ADP901      0.2526
     22  C6        16.2880   -7.1270   58.8180 C.2   901  ADP901      0.4393
     23  N6        15.3880   -7.2020   59.8400 N.pl3 901  ADP901      0.2180
     24  N1        17.0760   -8.1770   58.4540 N.2   901  ADP901      0.0021
     25  C2        17.9360   -8.1220   57.4260 C.3   901  ADP901      0.5254
     26  N3        18.0640   -7.0270   56.6420 N.2   901  ADP901     -0.0055
     27  C4        17.3560   -5.9180   56.8900 C.2   901  ADP901      0.3518
@<TRIPOS>BOND
     1    14    13    1
     2    16    15    1
     3     2     1    2
     4    13    15    1
     5    13    11    1
     6    15    17    1
     7     3     1    1
     8    11    10    1
     9    11    12    1
    10     7     5    2
    11     1     4    1
    12     1     8    1
    13    10     9    1
    14    17    12    1
    15    17    18    1
    16     9     5    1
    17     5     8    1
    18     5     6    1
    19    18    27    1
    20    18    19    1
    21    26    27    2
    22    26    25    1
    23    27    21    1
    24    19    20    1
    25    25    24    1
    26    20    21    2
    27    21    22    1
    28    24    22    2
    29    22    23    1
