@<TRIPOS>MOLECULE
1ztj_632_A_1.pdb
 36 38 0 0 0
SMALL
GASTEIGER

@<TRIPOS>ATOM
      1  CX         9.5450   71.7430   85.4590 C.3   321  632321      0.2173
      2  CY         9.5110   72.1890   83.9730 C.3   321  632321      0.1321
      3  CZ         8.1870   71.8760   86.1490 C.ar  321  632321      0.1203
      4  OX         9.9430   70.3720   85.5310 O.3   321  632321     -0.2142
      5  N5         9.5330   73.6470   83.9030 N.am  321  632321     -0.2025
      6  C6        10.7500   71.7540   83.1920 C.3   321  632321      0.0284
      7  C7        10.6920   72.2240   81.7440 C.3   321  632321      0.0488
      8  C8        11.9240   71.8260   80.9770 C.3   321  632321      0.2205
      9  N9        11.7190   72.0290   79.5610 N.pl3 321  632321     -0.0865
     10  C10       12.6360   71.6110   78.5810 C.cat 321  632321      0.5346
     11  N11       13.8660   71.3510   78.8470 N.pl3 321  632321      0.1354
     12  N12       12.1800   71.4780   77.2600 N.pl3 321  632321      0.1354
     13  C13        8.4780   74.3990   83.6380 C.2   321  632321      0.2646
     14  O14        7.3480   73.9240   83.4270 O.2   321  632321     -0.2712
     15  C15        8.7200   75.9100   83.5810 C.3   321  632321      0.1976
     16  C16        8.3930   79.7750   75.3420 C.ar  321  632321     -0.0000
     17  C17        8.8940   79.5430   76.6400 C.ar  321  632321     -0.0003
     18  C18        8.2000   78.6880   77.5390 C.ar  321  632321     -0.0026
     19  C19        6.9910   78.0570   77.1370 C.ar  321  632321     -0.0007
     20  C20        6.5000   78.2990   75.8490 C.ar  321  632321     -0.0026
     21  C21        7.1950   79.1560   74.9500 C.ar  321  632321     -0.0003
     22  C22        6.2270   77.1430   78.0350 C.3   321  632321      0.1388
     23  N23        7.0490   76.4320   78.9770 N.pl3 321  632321     -0.2268
     24  C24        6.9180   76.7200   80.3680 C.ar  321  632321      0.1411
     25  C25        5.8760   77.5100   80.9220 C.ar  321  632321      0.1219
     26  N26        5.7550   77.7730   82.2370 N.ar  321  632321     -0.2195
     27  C27        6.6860   77.2500   83.0710 C.ar  321  632321      0.1740
     28  N28        7.7410   76.4680   82.6460 N.ar  321  632321     -0.2654
     29  C29        7.8470   76.2170   81.2900 C.ar  321  632321      0.2791
     30  O30        8.7660   75.5200   80.8150 O.2   321  632321     -0.2654
     31  S31        6.4450   77.6500   84.7550 S.3   321  632321     -0.0763
     32  C32        5.9520   76.1730   85.6870 C.3   321  632321      0.0772
     33  N33        7.9600   72.8450   86.9520 N.ar  321  632321     -0.2386
     34  C34        6.6330   72.7400   87.4640 C.ar  321  632321      0.1061
     35  C35        5.9590   71.6350   86.9620 C.ar  321  632321      0.0573
     36  S36        6.9290   70.7500   85.8910 S.2   321  632321     -0.0677
@<TRIPOS>BOND
     1    21    16   ar
     2    21    20   ar
     3    16    17   ar
     4    20    19   ar
     5    17    18   ar
     6    19    18   ar
     7    19    22    1
     8    12    10    1
     9    22    23    1
    10    10    11    1
    11    10     9    2
    12    23    24    1
    13     9     8    1
    14    24    25   ar
    15    24    29   ar
    16    30    29    2
    17    25    26   ar
    18     8     7    1
    19    29    28   ar
    20     7     6    1
    21    26    27   ar
    22    28    27   ar
    23    28    15    1
    24    27    31    1
    25     6     2    1
    26    14    13    2
    27    15    13    1
    28    13     5   am
    29     5     2    1
    30     2     1    1
    31    31    32    1
    32     1     4    1
    33     1     3    1
    34    36     3   ar
    35    36    35   ar
    36     3    33   ar
    37    33    34   ar
    38    35    34   ar
