@<TRIPOS>MOLECULE
1ztk_62A_A_1.pdb
 34 36 0 0 0
SMALL
GASTEIGER

@<TRIPOS>ATOM
      1  CX        11.2720   51.4400   25.4860 C.2   321  62A321      0.2162
      2  CY        11.9450   51.5960   24.0940 C.3   321  62A321      0.1588
      3  CZ        11.5530   52.5760   26.4560 C.ar  321  62A321      0.1471
      4  OX        10.2980   50.7010   25.5980 O.2   321  62A321     -0.2874
      5  N1        13.3850   51.5580   24.1570 N.am  321  62A321     -0.1976
      6  C2        11.4630   50.5480   23.0470 C.3   321  62A321      0.0334
      7  C3        12.0290   50.7270   21.6210 C.3   321  62A321      0.0492
      8  C4        11.9270   49.4150   20.8270 C.3   321  62A321      0.2205
      9  N5        11.6890   49.6770   19.3930 N.pl3 321  62A321     -0.0865
     10  C6        11.5410   48.7580   18.4130 C.cat 321  62A321      0.5346
     11  N7        11.3270   49.1590   17.1520 N.pl3 321  62A321      0.1354
     12  N8        11.6030   47.4440   18.7050 N.pl3 321  62A321      0.1354
     13  C9        14.1760   52.5800   23.7930 C.2   321  62A321      0.2649
     14  O10       13.7480   53.6550   23.3760 O.2   321  62A321     -0.2712
     15  C11       15.6620   52.3220   23.9110 C.3   321  62A321      0.1971
     16  N12       16.4310   53.1600   22.9570 N.ar  321  62A321     -0.2703
     17  C13       17.1810   54.2450   23.3510 C.ar  321  62A321      0.1465
     18  N14       17.9020   55.0240   22.5070 N.ar  321  62A321     -0.2251
     19  C15       17.8930   54.7340   21.1820 C.ar  321  62A321      0.1234
     20  C16       17.1530   53.6540   20.6540 C.ar  321  62A321      0.1641
     21  C17       16.4220   52.8810   21.6090 C.ar  321  62A321      0.2807
     22  N18       17.1240   53.3380   19.2640 N.pl3 321  62A321     -0.1214
     23  C19       17.2260   54.6380   24.7820 C.ar  321  62A321      0.0339
     24  C20       18.2650   54.1980   25.6510 C.ar  321  62A321      0.0030
     25  C21       18.2620   54.5950   27.0300 C.ar  321  62A321     -0.0002
     26  C22       17.2190   55.4330   27.5380 C.ar  321  62A321     -0.0043
     27  C23       16.1740   55.8820   26.6740 C.ar  321  62A321     -0.0218
     28  C24       16.1910   55.4790   25.3070 C.ar  321  62A321     -0.0013
     29  C25       15.0650   56.7760   27.1920 C.3   321  62A321      0.0310
     30  O26       15.7600   51.9250   21.1570 O.2   321  62A321     -0.2654
     31  N27       12.5870   52.6420   27.2230 N.ar  321  62A321     -0.2338
     32  C28       12.5510   53.8200   27.9830 C.ar  321  62A321      0.1065
     33  C29       11.4350   54.5910   27.7150 C.ar  321  62A321      0.0576
     34  S30       10.4440   53.8740   26.5460 S.2   321  62A321     -0.0630
@<TRIPOS>BOND
     1    11    10    1
     2    10    12    1
     3    10     9    2
     4    22    20    1
     5     9     8    1
     6    20    19   ar
     7    20    21   ar
     8     8     7    1
     9    30    21    2
    10    19    18   ar
    11    21    16   ar
    12     7     6    1
    13    18    17   ar
    14    16    17   ar
    15    16    15    1
    16     6     2    1
    17    17    23    1
    18    14    13    2
    19    13    15    1
    20    13     5   am
    21     2     5    1
    22     2     1    1
    23    23    28   ar
    24    23    24   ar
    25    28    27   ar
    26     1     4    2
    27     1     3    1
    28    24    25   ar
    29     3    34   ar
    30     3    31   ar
    31    34    33   ar
    32    27    29    1
    33    27    26   ar
    34    25    26   ar
    35    31    32   ar
    36    33    32   ar
