@<TRIPOS>MOLECULE
1ztl_737_A_1.pdb
 34 36 0 0 0
SMALL
GASTEIGER

@<TRIPOS>ATOM
      1  CX        11.4220   51.4440   25.4140 C.3   248  737248      0.2173
      2  CY        11.9270   51.5540   23.9610 C.3   248  737248      0.1321
      3  CZ        11.6450   52.7090   26.2750 C.ar  248  737248      0.1203
      4  OX        10.0280   51.2190   25.4360 O.3   248  737248     -0.2142
      5  N05       13.3610   51.6740   24.0220 N.am  248  737248     -0.2025
      6  C06       11.6320   50.2750   23.1770 C.3   248  737248      0.0284
      7  C07       12.1500   50.3600   21.7440 C.3   248  737248      0.0488
      8  C08       11.8710   49.0890   20.9710 C.3   248  737248      0.2205
      9  N09       11.7960   49.4420   19.5660 N.pl3 248  737248     -0.0865
     10  C10       11.5350   48.5310   18.5140 C.cat 248  737248      0.5346
     11  N11       11.1770   49.0530   17.2560 N.pl3 248  737248      0.1354
     12  N12       11.6020   47.2610   18.6610 N.pl3 248  737248      0.1354
     13  C13       14.1140   52.7290   23.9690 C.2   248  737248      0.2646
     14  O14       13.6950   53.8770   23.8510 O.2   248  737248     -0.2712
     15  C15       15.5940   52.4080   24.0720 C.3   248  737248      0.1971
     16  N16       16.2690   53.2590   23.1000 N.ar  248  737248     -0.2703
     17  C17       16.9510   54.4100   23.4490 C.ar  248  737248      0.1465
     18  N18       17.5800   55.2090   22.5470 N.ar  248  737248     -0.2251
     19  C19       17.5430   54.8560   21.2270 C.ar  248  737248      0.1234
     20  C20       16.8750   53.7000   20.7580 C.ar  248  737248      0.1641
     21  C21       16.2430   52.9200   21.7650 C.ar  248  737248      0.2807
     22  N22       16.8240   53.3150   19.3780 N.pl3 248  737248     -0.1214
     23  C23       17.0210   54.8480   24.8850 C.ar  248  737248      0.0339
     24  C24       18.1390   54.4760   25.6790 C.ar  248  737248      0.0030
     25  C25       18.2130   54.8740   27.0450 C.ar  248  737248     -0.0002
     26  C26       17.1730   55.6510   27.6390 C.ar  248  737248     -0.0043
     27  C27       16.0390   56.0430   26.8680 C.ar  248  737248     -0.0218
     28  C28       15.9690   55.6360   25.4890 C.ar  248  737248     -0.0013
     29  C29       14.9320   56.8750   27.4970 C.3   248  737248      0.0310
     30  O30       15.6440   51.9000   21.3850 O.2   248  737248     -0.2654
     31  N31       12.8130   53.0200   26.6810 N.ar  248  737248     -0.2386
     32  C32       12.7560   54.1800   27.4320 C.ar  248  737248      0.1061
     33  C33       11.4830   54.6930   27.5480 C.ar  248  737248      0.0573
     34  S34       10.3480   53.7460   26.7290 S.2   248  737248     -0.0677
@<TRIPOS>BOND
     1    11    10    1
     2    10    12    1
     3    10     9    2
     4    22    20    1
     5     9     8    1
     6    20    19   ar
     7    20    21   ar
     8     8     7    1
     9    19    18   ar
    10    30    21    2
    11     7     6    1
    12    21    16   ar
    13    18    17   ar
    14    16    17   ar
    15    16    15    1
    16     6     2    1
    17    17    23    1
    18    14    13    2
    19     2     5    1
    20     2     1    1
    21    13     5   am
    22    13    15    1
    23    23    28   ar
    24    23    24   ar
    25     1     4    1
    26     1     3    1
    27    28    27   ar
    28    24    25   ar
    29     3    31   ar
    30     3    34   ar
    31    31    32   ar
    32    34    33   ar
    33    27    29    1
    34    27    26   ar
    35    25    26   ar
    36    32    33   ar
