@<TRIPOS>MOLECULE
1ztq_033_A_1.pdb
 35 38 0 0 0
SMALL
GASTEIGER

@<TRIPOS>ATOM
      1  C1        24.9600   72.5750   49.6490 C.ar  601  033601      0.0002
      2  C2        24.8400   71.2790   49.0370 C.ar  601  033601      0.0031
      3  C3        24.2120   71.1820   47.7530 C.ar  601  033601      0.0377
      4  C4        23.6910   72.3300   47.0780 C.ar  601  033601      0.1455
      5  C5        23.8220   73.6280   47.7040 C.ar  601  033601      0.0375
      6  C6        24.4500   73.7450   48.9890 C.ar  601  033601      0.0031
      7  C7        16.1290   69.4050   33.0630 C.3   601  033601      0.0290
      8  C8        16.4870   68.8660   31.6790 C.3   601  033601      0.0021
      9  C9        15.9630   70.9410   32.9880 C.3   601  033601      0.0021
     10  C11       23.9740   70.0510   46.9620 C.ar  601  033601      0.0453
     11  C12       23.3170   70.6640   45.8410 C.ar  601  033601      0.2004
     12  O13       23.1450   72.0300   45.8970 O.2   601  033601     -0.4488
     13  C14       22.8970   69.8510   44.7730 C.2   601  033601      0.3037
     14  N15       21.9880   70.4250   43.8970 N.am  601  033601     -0.1728
     15  C16       21.5640   69.8670   42.7010 C.ar  601  033601      0.0738
     16  O17       23.3350   68.6890   44.6540 O.2   601  033601     -0.2646
     17  C18       21.7420   70.6470   41.5180 C.ar  601  033601      0.0166
     18  C19       21.3290   70.1390   40.2530 C.ar  601  033601      0.0013
     19  C20       20.7280   68.8320   40.1400 C.ar  601  033601      0.0001
     20  C21       20.5540   68.0550   41.3350 C.ar  601  033601      0.0013
     21  C22       20.9640   68.5580   42.6050 C.ar  601  033601      0.0166
     22  C27       20.2880   68.3130   38.7850 C.ar  601  033601      0.0001
     23  C28       21.1440   68.4370   37.6250 C.ar  601  033601      0.0014
     24  C29       20.7180   67.9580   36.3400 C.ar  601  033601      0.0200
     25  C30       19.4280   67.3440   36.2020 C.ar  601  033601      0.1236
     26  C31       18.5750   67.2120   37.3470 C.ar  601  033601      0.0200
     27  C32       18.9990   67.6890   38.6240 C.ar  601  033601      0.0014
     28  S37       18.8750   66.7620   34.5920 S.O2  601  033601      0.0773
     29  N38       17.3670   67.5280   34.1670 N.3   601  033601     -0.0677
     30  O39       19.7720   67.2060   33.5680 O.2   601  033601     -0.1516
     31  O40       18.5610   65.3630   34.6140 O.2   601  033601     -0.1516
     32  C41       17.2260   69.0040   34.0730 C.3   601  033601      0.2001
     33  C42       16.9180   69.5840   35.4460 C.2   601  033601      0.3822
     34  O45       15.7950   69.4820   35.9730 O.co2 601  033601     -0.2440
     35  O50       17.8140   70.1440   36.0850 O.co2 601  033601     -0.2440
@<TRIPOS>BOND
     1     8     7    1
     2     9     7    1
     3     7    32    1
     4    30    28    2
     5    32    29    1
     6    32    33    1
     7    29    28    1
     8    28    31    2
     9    28    25    1
    10    33    34   ar
    11    33    35   ar
    12    25    24   ar
    13    25    26   ar
    14    24    23   ar
    15    26    27   ar
    16    23    22   ar
    17    27    22   ar
    18    22    19    1
    19    19    18   ar
    20    19    20   ar
    21    18    17   ar
    22    20    21   ar
    23    17    15   ar
    24    21    15   ar
    25    15    14    1
    26    14    13   am
    27    16    13    2
    28    13    11    1
    29    11    12   ar
    30    11    10   ar
    31    12     4   ar
    32    10     3   ar
    33     4     5   ar
    34     4     3   ar
    35     5     6   ar
    36     3     2   ar
    37     6     1   ar
    38     2     1   ar
