@<TRIPOS>MOLECULE
1ztu_BLA_A_1.pdb
 43 46 0 0 0
SMALL
GASTEIGER

@<TRIPOS>ATOM
      1  CHA       33.4180   41.3780   21.8460 C.3   328  BLA328      0.1170
      2  NA        35.7270   41.3580   20.9470 N.2   328  BLA328     -0.4104
      3  C1A       34.7340   41.9910   21.5470 C.2   328  BLA328      0.1114
      4  C2A       35.0520   43.3720   21.9250 C.2   328  BLA328      0.0024
      5  C3A       36.4470   43.5270   21.4300 C.2   328  BLA328      0.0021
      6  C4A       36.7810   42.1880   20.8480 C.2   328  BLA328      0.1114
      7  CMA       37.3190   44.7490   21.5150 C.3   328  BLA328      0.0331
      8  CAA       34.0550   44.2690   22.6430 C.3   328  BLA328      0.0402
      9  CBA       34.6510   45.3920   23.4810 C.3   328  BLA328      0.1188
     10  CGA       35.3680   45.0290   24.7570 C.2   328  BLA328      0.3652
     11  O1A       36.3380   45.7340   25.0720 O.co2 328  BLA328     -0.2456
     12  O2A       34.9970   44.0940   25.4790 O.co2 328  BLA328     -0.2456
     13  CHB       38.0190   41.6860   20.1600 C.3   328  BLA328      0.1181
     14  NB        39.8500   42.8630   21.5330 N.2   328  BLA328     -0.3372
     15  C1B       39.3950   42.2380   20.4170 C.2   328  BLA328      0.1257
     16  C2B       40.4990   42.1000   19.4090 C.2   328  BLA328      0.0168
     17  C3B       41.6710   42.7240   20.0280 C.2   328  BLA328      0.0929
     18  C4B       41.1510   43.1560   21.3280 C.1   328  BLA328      0.2041
     19  CMB       40.4430   41.4640   18.0440 C.3   328  BLA328      0.0342
     20  OB        41.8710   43.7590   22.1890 O.2   328  BLA328     -0.2093
     21  CAB       43.0290   42.8600   19.4260 C.2   328  BLA328      0.0124
     22  CBB       44.0430   43.4400   20.0360 C.2   328  BLA328      0.0008
     23  NC        35.0250   36.7680   19.6250 N.2   328  BLA328     -0.3375
     24  C1C       35.8610   35.9080   19.0080 C.1   328  BLA328      0.2000
     25  C2C       35.3230   34.5660   18.7250 C.2   328  BLA328      0.0710
     26  C3C       33.9670   34.6730   19.2760 C.2   328  BLA328      0.0125
     27  C4C       33.8960   36.0570   19.8050 C.2   328  BLA328      0.1254
     28  CMC       35.9560   33.3840   18.0580 C.3   328  BLA328      0.0445
     29  OC        37.0530   36.2120   18.6560 O.2   328  BLA328     -0.2096
     30  CAC       32.9630   33.5610   19.3150 C.3   328  BLA328      0.0291
     31  CBC       31.6710   33.8150   18.5610 C.3   328  BLA328      0.0051
     32  CHD       32.7060   36.6410   20.4620 C.3   328  BLA328      0.1181
     33  ND        33.4180   38.9950   21.0150 N.2   328  BLA328     -0.4104
     34  C1D       32.4910   37.9970   21.0250 C.2   328  BLA328      0.1114
     35  C2D       31.2060   38.3710   21.6500 C.2   328  BLA328      0.0021
     36  C3D       31.4200   39.7720   22.0600 C.2   328  BLA328      0.0024
     37  C4D       32.8070   40.0450   21.6210 C.2   328  BLA328      0.1114
     38  CMD       29.9910   37.5100   21.8140 C.3   328  BLA328      0.0331
     39  CAD       30.4670   40.7120   22.7640 C.3   328  BLA328      0.0402
     40  CBD       30.9480   40.9570   24.1980 C.3   328  BLA328      0.1188
     41  CGD       29.8560   41.5880   25.0250 C.2   328  BLA328      0.3652
     42  O1D       29.0480   40.8360   25.5860 O.co2 328  BLA328     -0.2456
     43  O2D       29.8020   42.8290   25.1340 O.co2 328  BLA328     -0.2456
@<TRIPOS>BOND
     1    19    16    1
     2    28    25    1
     3    31    30    1
     4    29    24    2
     5    25    24    1
     6    25    26    2
     7    24    23    2
     8    26    30    1
     9    26    27    1
    10    16    17    2
    11    16    15    1
    12    21    17    1
    13    21    22    2
    14    23    27    2
    15    27    32    1
    16    17    18    1
    17    13    15    1
    18    13     6    1
    19    15    14    2
    20    32    34    1
    21     6     2    2
    22     6     5    1
    23     2     3    2
    24    33    34    2
    25    33    37    2
    26    34    35    1
    27    18    14    2
    28    18    20    2
    29     5     7    1
    30     5     4    2
    31     3     1    1
    32     3     4    1
    33    37     1    1
    34    37    36    1
    35    35    38    1
    36    35    36    2
    37     4     8    1
    38    36    39    1
    39     8     9    1
    40    39    40    1
    41     9    10    1
    42    40    41    1
    43    10    11   ar
    44    10    12   ar
    45    41    43   ar
    46    41    42   ar
