@<TRIPOS>MOLECULE
1ztz_III_P_1.pdb
 19 18 0 0 0
SMALL
GASTEIGER

@<TRIPOS>ATOM
      1  N         34.1410    0.8570   -1.2310 N.3     1  ALA1       -0.1231
      2  CA        33.9400    0.3750    0.1600 C.3     1  ALA1        0.1694
      3  C         34.1770    1.5310    1.1240 C.2     1  ALA1        0.2593
      4  O         33.2990    1.9400    1.8800 O.2     1  ALA1       -0.2718
      5  CB        34.8660   -0.8040    0.4610 C.3     1  ALA1        0.0304
      6  N         35.4010    2.0430    1.1220 N.am    2  GLY2       -0.1942
      7  CA        35.6770    3.3200    1.7650 C.3     2  GLY2        0.2014
      8  C         35.5020    4.2740    0.6050 C.2     2  GLY2        0.2639
      9  O         34.4880    4.9580    0.5180 O.2     2  GLY2       -0.2714
     10  N         36.5040    4.2900   -0.2700 N.am    3  ALA3       -0.1963
     11  CA        36.4000    4.7010   -1.6680 C.3     3  ALA3        0.1728
     12  C         36.0560    6.1670   -1.9180 C.2     3  ALA3        0.2616
     13  O         35.9450    6.5830   -3.0780 O.2     3  ALA3       -0.2715
     14  CB        35.4690    3.7680   -2.4360 C.3     3  ALA3        0.0334
     15  N         35.9260    6.9140   -0.8230 N.am    4  ALA4       -0.1977
     16  CA        35.4780    8.3050   -0.8210 C.3     4  ALA4        0.1597
     17  C         35.0100    8.8130    0.5460 C.2     4  ALA4        0.2287
     18  O         35.5000    9.8350    1.0430 O.2     4  ALA4       -0.2864
     19  CB        34.3980    8.5090   -1.8610 C.3     4  ALA4        0.0319
@<TRIPOS>BOND
     1    13    12    2
     2    14    11    1
     3    12    11    1
     4    12    15   am
     5    19    16    1
     6    11    10    1
     7     1     2    1
     8    15    16    1
     9    16    17    1
    10    10     8   am
    11     2     5    1
    12     2     3    1
    13     9     8    2
    14    17    18    2
    15     8     7    1
    16     6     3   am
    17     6     7    1
    18     3     4    2
