@<TRIPOS>MOLECULE
1ztz_CB5_B_1.pdb
 23 42 0 0 0
SMALL
GASTEIGER

@<TRIPOS>ATOM
      1  B7        39.9220    4.7330   -3.6990 B     1002  CB51002     0.0000
      2 CO         40.1950    2.7220   -3.3600 Co.oh 1002  CB51002     0.0000
      3  B24       40.6580    2.9780   -1.3810 B     1002  CB51002     0.0000
      4  B29       39.6610    2.1690   -0.1460 B     1002  CB51002     0.0000
      5  B25       41.3470    1.5950   -0.4530 B     1002  CB51002     0.0000
      6  B30       40.0060    0.4180   -0.2110 B     1002  CB51002     0.0000
      7  B32       38.5220    1.0710   -1.0040 B     1002  CB51002     0.0000
      8  B31       39.5200   -0.2020   -1.8220 B     1002  CB51002     0.0000
      9  B26       41.2460    0.1240   -1.4770 B     1002  CB51002     0.0000
     10  C22       40.5040    0.6980   -2.9050 C.3   1002  CB51002     0.0000
     11  B27       38.9150    1.1880   -2.7400 B     1002  CB51002     0.0000
     12  B8        38.8630    3.6280   -4.5770 B     1002  CB51002     0.0000
     13  B4        39.8840    2.3860   -5.3530 B     1002  CB51002     0.0000
     14  B9        39.2520    3.7560   -6.3200 B     1002  CB51002     0.0000
     15  B5        40.9440    3.2120   -6.5460 B     1002  CB51002     0.0000
     16  B12       39.2660    5.2260   -5.2860 B     1002  CB51002     0.0000
     17  B11       40.9770    5.5900   -4.8650 B     1002  CB51002     0.0000
     18  B6        42.0190    4.3440   -5.6420 B     1002  CB51002     0.0000
     19  C2        41.5060    4.2060   -4.0210 C.3   1002  CB51002     0.0000
     20  C1        41.4880    2.8780   -4.9820 C.3   1002  CB51002     0.0000
     21  B28       38.9360    2.6520   -1.7210 B     1002  CB51002     0.0000
     22  C21       41.4840    1.6810   -2.1250 C.3   1002  CB51002     0.0000
     23  B10       40.5660    4.9640   -6.4960 B     1002  CB51002     0.0000
@<TRIPOS>BOND
     1    15    23    1
     2    15    14    1
     3    15    13    1
     4    15    20    1
     5    23    14    1
     6    23    16    1
     7    23    17    1
     8    14    13    1
     9    14    12    1
    10    18    20    1
    11    18    19    1
    12    13    20    1
    13    13    12    1
    14    16    17    1
    15    16    12    1
    16    16     1    1
    17    20    19    1
    18    17    19    1
    19    17     1    1
    20    12     1    1
    21    19     1    1
    22    10    11    1
    23    10    22    1
    24    10     8    1
    25    10     9    1
    26    11     8    1
    27    11    21    1
    28    11     7    1
    29    22     9    1
    30    22     3    1
    31    22     5    1
    32     8     9    1
    33     8     6    1
    34    21     3    1
    35    21     7    1
    36    21     4    1
    37     9     5    1
    38     3     5    1
    39     3     4    1
    40     7     4    1
    41     5     6    1
    42     6     4    1
