@<TRIPOS>MOLECULE
1zu0_CBS_A_1.pdb
 29 30 0 0 0
SMALL
GASTEIGER

@<TRIPOS>ATOM
      1  C1A        2.1770  -35.4810   11.4860 C.3   901  CBS901      0.2586
      2  C2A        3.3290  -35.3030   12.4790 C.3   901  CBS901      0.1842
      3  C3A        4.5770  -36.0010   11.9020 C.3   901  CBS901      0.2094
      4  C4A        4.2640  -37.4940   11.6920 C.3   901  CBS901      0.2136
      5  C5A        3.0650  -37.5980   10.6920 C.3   901  CBS901      0.1834
      6  C6A        2.6240  -39.0240   10.4140 C.3   901  CBS901      0.2142
      7  C7A        3.4270  -33.2720   13.8640 C.2   901  CBS901      0.2420
      8  C8A        3.7140  -31.7820   13.9120 C.3   901  CBS901      0.0964
      9  N2A        3.5800  -33.8680   12.6710 N.am  901  CBS901     -0.1992
     10  O1A        1.0380  -34.8820   12.0050 O.3   901  CBS901     -0.3264
     11  O3A        5.6520  -35.8680   12.8160 O.3   901  CBS901     -0.2183
     12  O4A        5.4410  -38.1650   11.1450 O.3   901  CBS901     -0.2176
     13  O5A        1.9050  -36.8910   11.2300 O.3   901  CBS901     -0.3262
     14  O6A        2.3890  -39.7510   11.6120 O.3   901  CBS901     -0.2176
     15  O7A        3.0700  -33.8690   14.9010 O.2   901  CBS901     -0.2733
     16  C1B       -2.9540  -33.9140   10.9480 C.3   901  CBS901      0.2917
     17  C2B       -2.5050  -35.3660   10.6280 C.3   901  CBS901      0.1870
     18  C3B       -1.1870  -35.7330   11.3610 C.3   901  CBS901      0.2063
     19  C4B       -0.1030  -34.6470   11.1460 C.3   901  CBS901      0.1795
     20  C5B       -0.6890  -33.2650   11.5160 C.3   901  CBS901      0.1803
     21  C6B        0.2940  -32.1130   11.3150 C.3   901  CBS901      0.2141
     22  C7B       -4.4180  -36.7860   10.1270 C.2   901  CBS901      0.2420
     23  C8B       -5.4760  -37.7490   10.6660 C.3   901  CBS901      0.0964
     24  N2B       -3.5530  -36.2930   11.0260 N.am  901  CBS901     -0.1991
     25  O1B       -4.0200  -33.5610   10.1360 O.3   901  CBS901     -0.1879
     26  O3B       -0.7090  -36.9830   10.8550 O.3   901  CBS901     -0.2184
     27  O5B       -1.8660  -32.9840   10.7030 O.3   901  CBS901     -0.3243
     28  O6B        0.6900  -32.0280    9.9560 O.3   901  CBS901     -0.2176
     29  O7B       -4.3970  -36.4990    8.9170 O.2   901  CBS901     -0.2733
@<TRIPOS>BOND
     1    29    22    2
     2    28    21    1
     3    22    23    1
     4    22    24   am
     5    25    16    1
     6     6     5    1
     7     6    14    1
     8    17    16    1
     9    17    24    1
    10    17    18    1
    11     5    13    1
    12     5     4    1
    13    27    16    1
    14    27    20    1
    15    26    18    1
    16    12     4    1
    17    19    18    1
    18    19    20    1
    19    19    10    1
    20    13     1    1
    21    21    20    1
    22     1    10    1
    23     1     2    1
    24     4     3    1
    25     3     2    1
    26     3    11    1
    27     2     9    1
    28     9     7   am
    29     7     8    1
    30     7    15    2
