@<TRIPOS>MOLECULE
1zua_NAP_X_1.pdb
 48 52 0 0 0
SMALL
GASTEIGER

@<TRIPOS>ATOM
      1  PA       -31.8170   25.7450   -1.1750 P.3   350  NAP350      0.2189
      2  O1A      -32.5560   26.9210   -0.7010 O.3   350  NAP350     -0.4371
      3  O2A      -30.8530   25.8710   -2.3090 O.2   350  NAP350     -0.5170
      4  O5B      -32.9080   24.6110   -1.3990 O.3   350  NAP350     -0.3112
      5  C5B      -32.5020   23.2920   -1.8190 C.3   350  NAP350      0.1813
      6  C4B      -33.7390   22.4360   -1.9170 C.3   350  NAP350      0.1820
      7  O4B      -34.5970   22.9570   -2.9590 O.3   350  NAP350     -0.3136
      8  C3B      -33.4880   20.9430   -2.2130 C.3   350  NAP350      0.2157
      9  O3B      -34.4250   20.1740   -1.4530 O.3   350  NAP350     -0.2175
     10  C2B      -33.8130   20.8550   -3.7160 C.3   350  NAP350      0.2314
     11  O2B      -34.2830   19.5940   -4.0790 O.3   350  NAP350     -0.2630
     12  C1B      -34.9250   21.8990   -3.8790 C.3   350  NAP350      0.3158
     13  N9A      -34.9370   22.5020   -5.1850 N.pl3 350  NAP350     -0.1439
     14  C8A      -33.8500   22.9760   -5.8880 C.3   350  NAP350      0.3377
     15  N7A      -34.2100   23.5250   -7.0620 N.2   350  NAP350     -0.2095
     16  C5A      -35.6070   23.4120   -7.0950 C.2   350  NAP350      0.2526
     17  C6A      -36.5120   23.7370   -8.0720 C.2   350  NAP350      0.4393
     18  N6A      -36.2230   24.3530   -9.2140 N.pl3 350  NAP350      0.2180
     19  N1A      -37.8220   23.4720   -7.8010 N.2   350  NAP350      0.0021
     20  C2A      -38.1700   22.8590   -6.6340 C.3   350  NAP350      0.5254
     21  N3A      -37.3320   22.4840   -5.6840 N.2   350  NAP350     -0.0055
     22  C4A      -36.0210   22.7570   -5.9410 C.2   350  NAP350      0.3518
     23  O3       -31.0640   25.1180    0.1270 O.3   350  NAP350     -0.2703
     24  PN       -29.5970   25.0060    0.7310 P.3   350  NAP350      0.2189
     25  O1N      -28.9580   23.7830    0.2200 O.2   350  NAP350     -0.5170
     26  O2N      -29.7400   25.2210    2.1840 O.3   350  NAP350     -0.4371
     27  O5D      -28.8240   26.3100    0.2210 O.3   350  NAP350     -0.3112
     28  C5D      -28.0830   26.3600   -1.0330 C.3   350  NAP350      0.1813
     29  C4D      -26.5820   26.1740   -0.7940 C.3   350  NAP350      0.1799
     30  O4D      -26.0780   27.2650    0.0090 O.3   350  NAP350     -0.3327
     31  C3D      -26.1750   24.9280   -0.0280 C.3   350  NAP350      0.2158
     32  O3D      -26.3260   23.7360   -0.7380 O.3   350  NAP350     -0.2175
     33  C2D      -24.7540   25.3200    0.3190 C.3   350  NAP350      0.2309
     34  O2D      -23.9280   25.1960   -0.8240 O.3   350  NAP350     -0.2158
     35  C1D      -24.9460   26.8130    0.7570 C.3   350  NAP350      0.2263
     36  N1N      -25.2320   27.0040    2.1860 N.pl3 350  NAP350     -0.2787
     37  C2N      -24.2130   27.5730    2.9380 C.3   350  NAP350      0.1244
     38  C3N      -24.3820   27.7330    4.3010 C.2   350  NAP350      0.0544
     39  C7N      -23.2990   28.4570    5.0190 C.2   350  NAP350      0.2818
     40  O7N      -23.3800   28.4250    6.2950 O.2   350  NAP350     -0.2670
     41  N7N      -22.3600   29.1270    4.4030 N.am  350  NAP350     -0.0839
     42  C4N      -25.5810   27.3470    4.9010 C.2   350  NAP350      0.0033
     43  C5N      -26.6000   26.8010    4.1210 C.2   350  NAP350      0.0157
     44  C6N      -26.4380   26.6720    2.7730 C.2   350  NAP350      0.0633
     45  P2B      -33.4130   18.4900   -4.9030 P.3   350  NAP350      0.5328
     46  O1X      -31.9530   18.7150   -4.5860 O.3   350  NAP350     -0.1145
     47  O2X      -34.0100   17.2070   -4.4190 O.3   350  NAP350     -0.1145
     48  O3X      -33.6970   18.7380   -6.3510 O.2   350  NAP350     -0.2224
@<TRIPOS>BOND
     1    18    17    1
     2    17    19    2
     3    17    16    1
     4    19    20    1
     5    16    15    2
     6    16    22    1
     7    15    14    1
     8    20    21    1
     9    48    45    2
    10    22    21    2
    11    22    13    1
    12    14    13    1
    13    13    12    1
    14    45    46    1
    15    45    47    1
    16    45    11    1
    17    11    10    1
    18    12    10    1
    19    12     7    1
    20    10     8    1
    21     7     6    1
    22     3     1    2
    23     8     6    1
    24     8     9    1
    25     6     5    1
    26     5     4    1
    27     4     1    1
    28     1     2    1
    29     1    23    1
    30    28    29    1
    31    28    27    1
    32    34    33    1
    33    29    31    1
    34    29    30    1
    35    32    31    1
    36    31    33    1
    37    30    35    1
    38    23    24    1
    39    25    24    2
    40    27    24    1
    41    33    35    1
    42    24    26    1
    43    35    36    1
    44    36    44    1
    45    36    37    1
    46    44    43    2
    47    37    38    1
    48    43    42    1
    49    38    42    2
    50    38    39    1
    51    41    39   am
    52    39    40    2
