@<TRIPOS>MOLECULE
1zua_TOL_X_1.pdb
 24 25 0 0 0
SMALL
GASTEIGER

@<TRIPOS>ATOM
      1  C1       -24.9180   23.8560   14.9570 C.3   1320  TOL1320     0.4214
      2  F1       -24.6340   22.6530   15.3900 F     1320  TOL1320    -0.1657
      3  F2       -24.4990   24.7310   15.8390 F     1320  TOL1320    -0.1657
      4  F3       -26.2400   23.9870   15.1230 F     1320  TOL1320    -0.1657
      5  C2       -24.5220   24.0800   13.5540 C.ar  1320  TOL1320     0.1053
      6  C3       -23.5970   25.0990   13.2060 C.ar  1320  TOL1320     0.1426
      7  O1       -23.0760   25.8580   14.1790 O.3   1320  TOL1320    -0.4715
      8  C4       -22.0920   26.8310   13.8110 C.3   1320  TOL1320     0.2525
      9  C5       -23.2390   25.3300   11.8640 C.ar  1320  TOL1320     0.0368
     10  C6       -23.7710   24.5280   10.8840 C.ar  1320  TOL1320     0.0032
     11  C7       -24.6510   23.4900   11.1480 C.ar  1320  TOL1320     0.0019
     12  C8       -25.1830   22.6190   10.1160 C.ar  1320  TOL1320     0.0200
     13  C9       -26.0490   21.5730   10.4090 C.ar  1320  TOL1320     0.0018
     14  C10      -26.4240   21.3950   11.7500 C.ar  1320  TOL1320     0.0001
     15  C11      -25.9520   22.2150   12.7790 C.ar  1320  TOL1320     0.0001
     16  C12      -25.0520   23.2590   12.5170 C.ar  1320  TOL1320     0.0069
     17  C13      -24.7170   22.7990    8.7070 C.2   1320  TOL1320     0.0848
     18  S1       -23.4080   21.9010    8.1590 S.2   1320  TOL1320    -0.0347
     19  N1       -25.3220   23.7160    7.9860 N.am  1320  TOL1320    -0.2910
     20  C14      -26.3670   24.6430    8.5080 C.3   1320  TOL1320     0.1132
     21  C15      -24.8660   24.0420    6.6070 C.3   1320  TOL1320     0.2069
     22  C16      -23.6350   24.9860    6.6150 C.2   1320  TOL1320     0.3847
     23  O2       -23.1610   25.2250    5.4930 O.co2 1320  TOL1320    -0.2437
     24  O3       -23.2530   25.4260    7.7130 O.co2 1320  TOL1320    -0.2437
@<TRIPOS>BOND
     1    23    22   ar
     2    21    22    1
     3    21    19    1
     4    22    24   ar
     5    19    20    1
     6    19    17    1
     7    18    17    2
     8    17    12    1
     9    12    13   ar
    10    12    11   ar
    11    13    14   ar
    12    10    11   ar
    13    10     9   ar
    14    11    16   ar
    15    14    15   ar
    16     9     6   ar
    17    16    15   ar
    18    16     5   ar
    19     6     5   ar
    20     6     7    1
    21     5     1    1
    22     8     7    1
    23     1     4    1
    24     1     2    1
    25     1     3    1
