@<TRIPOS>MOLECULE
1zuc_T98_A_1.pdb
 21 23 0 0 0
SMALL
GASTEIGER

@<TRIPOS>ATOM
      1  C1        27.9100   -8.7070   13.2440 C.3   201  T98201      0.0495
      2  C2        27.0420   -7.6010   12.6150 C.3   201  T98201      0.1671
      3  C3        27.5070   -7.3030   11.2130 C.2   201  T98201      0.0415
      4  C4        27.2660   -8.1820   10.1470 C.2   201  T98201     -0.0145
      5  C5        27.7170   -7.8830    8.8510 C.3   201  T98201      0.0821
      6  C6        28.4620   -6.7160    8.6060 C.2   201  T98201     -0.0135
      7  C7        28.7080   -5.8390    9.6620 C.2   201  T98201      0.0290
      8  C8        28.2110   -6.1310   10.9450 C.2   201  T98201      0.1434
      9  N1        28.4590   -5.2270   11.9780 N.2   201  T98201     -0.3307
     10  C9        28.0470   -5.4560   13.2670 C.1   201  T98201      0.1941
     11  S1        28.3710   -4.4440   14.5110 S.2   201  T98201      0.0631
     12  O1        27.3360   -6.5590   13.5750 O.3   201  T98201     -0.4191
     13  C10       27.4520   -8.9030    7.8370 C.ar  201  T98201      0.0455
     14  C11       26.3970   -9.8090    7.7550 C.ar  201  T98201      0.0156
     15  C12       26.6740  -10.6270    6.6380 C.ar  201  T98201      0.0290
     16  C13       27.8810  -10.2380    6.1080 C.ar  201  T98201      0.1294
     17  N2        28.3410   -9.1820    6.8320 N.ar  201  T98201     -0.3203
     18  C14       29.6380   -8.5450    6.5510 C.3   201  T98201      0.1308
     19  C15       28.5950  -10.7450    4.9860 C.1   201  T98201      0.1179
     20  N3        29.2160  -11.1420    4.0840 N.1   201  T98201     -0.1893
     21  C16       25.5470   -7.9140   12.6530 C.3   201  T98201      0.0495
@<TRIPOS>BOND
     1    20    19    3
     2    19    16    1
     3    16    15   ar
     4    16    17   ar
     5    18    17    1
     6    15    14   ar
     7    17    13   ar
     8    14    13   ar
     9    13     5    1
    10     6     5    1
    11     6     7    2
    12     5     4    1
    13     7     8    1
    14     4     3    2
    15     8     3    1
    16     8     9    2
    17     3     2    1
    18     9    10    2
    19     2    21    1
    20     2     1    1
    21     2    12    1
    22    10    12    1
    23    10    11    2
