@<TRIPOS>MOLECULE
1zui_SKM_A_1.pdb
 12 12 0 0 0
SMALL
GASTEIGER

@<TRIPOS>ATOM
      1  O12       39.3110    5.5890    2.2860 O.3   2001  SKM2001    -0.2173
      2  C8        39.8230    5.4560    3.7090 C.3   2001  SKM2001     0.2167
      3  C6        40.8540    4.4680    3.2300 C.3   2001  SKM2001     0.1896
      4  O7        41.6360    4.3780    4.4530 O.3   2001  SKM2001    -0.2200
      5  C5        41.9940    4.8610    2.3920 C.3   2001  SKM2001     0.0684
      6  C4        42.3360    6.3560    2.4950 C.2   2001  SKM2001     0.0584
      7  C1        43.1920    6.9930    1.3640 C.2   2001  SKM2001     0.3837
      8  O2        43.6590    6.2630    0.3510 O.co2 2001  SKM2001    -0.2409
      9  O3        43.4850    8.2310    1.6440 O.co2 2001  SKM2001    -0.2409
     10  C10       41.3960    7.3880    3.1930 C.2   2001  SKM2001     0.0111
     11  C9        40.2050    6.9400    4.0130 C.3   2001  SKM2001     0.2066
     12  O11       39.1180    7.9210    3.8970 O.3   2001  SKM2001    -0.2155
@<TRIPOS>BOND
     1     8     7   ar
     2     7     9   ar
     3     7     6    1
     4     1     2    1
     5     5     6    1
     6     5     3    1
     7     6    10    2
     8    10    11    1
     9     3     2    1
    10     3     4    1
    11     2    11    1
    12    12    11    1
