@<TRIPOS>MOLECULE
1zun_AGS_A_1.pdb
 31 33 0 0 0
SMALL
GASTEIGER

@<TRIPOS>ATOM
      1  PG        32.5140   54.6510   75.4270 P.3   600  AGS600      0.4340
      2  S1G       32.3150   56.2560   76.7180 S.3   600  AGS600      0.0416
      3  O2G       31.4790   53.5260   75.8690 O.3   600  AGS600     -0.1305
      4  O3G       33.9920   54.0730   75.5020 O.2   600  AGS600     -0.2423
      5  PB        33.1920   55.1990   72.7190 P.3   600  AGS600      0.2262
      6  O1B       34.1710   53.9470   72.7450 O.3   600  AGS600     -0.4369
      7  O2B       32.3980   55.2330   71.3430 O.2   600  AGS600     -0.5168
      8  O3B       32.1420   55.1460   73.9370 O.3   600  AGS600     -0.2405
      9  PA        35.5320   56.7240   73.2460 P.3   600  AGS600      0.2189
     10  O1A       35.8530   58.1560   73.8570 O.2   600  AGS600     -0.5170
     11  O2A       36.0250   55.5740   74.2260 O.3   600  AGS600     -0.4371
     12  O3A       33.9560   56.6000   72.9390 O.3   600  AGS600     -0.2701
     13  O5'       36.2540   56.5670   71.8160 O.3   600  AGS600     -0.3112
     14  C5'       36.6830   57.7230   71.0990 C.3   600  AGS600      0.1813
     15  C4'       36.1590   57.7010   69.6670 C.3   600  AGS600      0.1821
     16  O4'       37.1920   57.2230   68.7980 O.3   600  AGS600     -0.3135
     17  C3'       34.9380   56.8050   69.4750 C.3   600  AGS600      0.2184
     18  O3'       33.7410   57.5060   69.1720 O.3   600  AGS600     -0.2174
     19  C2'       35.3160   55.8210   68.3860 C.3   600  AGS600      0.2570
     20  O2'       34.5150   56.0670   67.2450 O.3   600  AGS600     -0.2130
     21  C1'       36.7700   56.0920   68.0360 C.3   600  AGS600      0.3186
     22  N9        37.4910   54.8870   68.5280 N.pl3 600  AGS600     -0.1439
     23  C8        38.0300   54.7090   69.7590 C.3   600  AGS600      0.3377
     24  N7        38.6090   53.4820   69.9320 N.2   600  AGS600     -0.2095
     25  C5        38.4430   52.8170   68.7750 C.2   600  AGS600      0.2526
     26  C6        38.7640   51.4970   68.1710 C.2   600  AGS600      0.4393
     27  N6        39.4330   50.5630   68.8910 N.pl3 600  AGS600      0.2180
     28  N1        38.3840   51.2390   66.8950 N.2   600  AGS600      0.0021
     29  C2        37.7200   52.1250   66.1270 C.3   600  AGS600      0.5254
     30  N3        37.3660   53.3500   66.5540 N.2   600  AGS600     -0.0055
     31  C4        37.7190   53.7360   67.8990 C.2   600  AGS600      0.3518
@<TRIPOS>BOND
     1    29    30    1
     2    29    28    1
     3    30    31    2
     4    28    26    2
     5    20    19    1
     6    31    22    1
     7    31    25    1
     8    21    19    1
     9    21    22    1
    10    21    16    1
    11    26    25    1
    12    26    27    1
    13    19    17    1
    14    22    23    1
    15    25    24    2
    16    16    15    1
    17    18    17    1
    18    17    15    1
    19    15    14    1
    20    23    24    1
    21    14    13    1
    22     7     5    2
    23    13     9    1
    24     5     6    1
    25     5    12    1
    26     5     8    1
    27    12     9    1
    28     9    10    2
    29     9    11    1
    30     8     1    1
    31     1     4    2
    32     1     3    1
    33     1     2    1
