@<TRIPOS>MOLECULE
1zun_GDP_B_1.pdb
 28 30 0 0 0
SMALL
GASTEIGER

@<TRIPOS>ATOM
      1  PB        38.8610   87.5340   83.8080 P.3   599  GDP599      0.5373
      2  O1B       37.9680   88.2260   82.7980 O.2   599  GDP599     -0.2221
      3  O2B       38.6750   86.0390   83.7160 O.3   599  GDP599     -0.1143
      4  O3B       40.3130   87.8680   83.5640 O.3   599  GDP599     -0.1143
      5  O3A       38.4490   88.0570   85.2710 O.3   599  GDP599     -0.2261
      6  PA        38.2410   87.0460   86.4990 P.3   599  GDP599      0.2231
      7  O1A       39.4210   86.1150   86.6330 O.3   599  GDP599     -0.4370
      8  O2A       36.9520   86.2730   86.3550 O.2   599  GDP599     -0.5169
      9  O5'       38.1830   88.0830   87.7270 O.3   599  GDP599     -0.3111
     10  C5'       39.3620   88.7610   88.1720 C.3   599  GDP599      0.1813
     11  C4'       39.1640   89.2580   89.6000 C.3   599  GDP599      0.1799
     12  O4'       38.0200   90.1150   89.6560 O.3   599  GDP599     -0.3326
     13  C3'       38.9010   88.1030   90.5560 C.3   599  GDP599      0.2158
     14  O3'       39.5920   88.3470   91.7870 O.3   599  GDP599     -0.2175
     15  C2'       37.4010   88.1470   90.7670 C.3   599  GDP599      0.2310
     16  O2'       37.0200   87.6640   92.0540 O.3   599  GDP599     -0.2158
     17  C1'       37.0770   89.6230   90.6110 C.3   599  GDP599      0.2293
     18  N9        35.6720   89.8430   90.1750 N.pl3 599  GDP599     -0.2354
     19  C8        35.0570   89.3330   89.0910 C.3   599  GDP599      0.2246
     20  N7        33.7660   89.7460   89.0110 N.2   599  GDP599     -0.2322
     21  C5        33.5350   90.5440   90.0690 C.2   599  GDP599      0.2182
     22  C6        32.3890   91.3190   90.6100 C.1   599  GDP599      0.2372
     23  O6        31.2790   91.3360   90.0320 O.2   599  GDP599     -0.2069
     24  N1        32.5870   92.0120   91.7410 N.2   599  GDP599     -0.2485
     25  C2        33.7650   92.0260   92.3930 C.1   599  GDP599      0.2531
     26  N2        33.8820   92.7500   93.5300 N.pl3 599  GDP599     -0.0226
     27  N3        34.8490   91.3420   91.9600 N.2   599  GDP599     -0.3074
     28  C4        34.7960   90.6010   90.8310 C.2   599  GDP599      0.2300
@<TRIPOS>BOND
     1     2     1    2
     2     4     1    1
     3     3     1    1
     4     1     5    1
     5     5     6    1
     6     8     6    2
     7     6     7    1
     8     6     9    1
     9     9    10    1
    10    10    11    1
    11    20    19    1
    12    20    21    2
    13    19    18    1
    14    11    12    1
    15    11    13    1
    16    12    17    1
    17    23    22    2
    18    21    22    1
    19    21    28    1
    20    18    17    1
    21    18    28    1
    22    13    15    1
    23    13    14    1
    24    22    24    2
    25    17    15    1
    26    15    16    1
    27    28    27    2
    28    24    25    2
    29    27    25    2
    30    25    26    1
