@<TRIPOS>MOLECULE
1zur_R1F_A_1.pdb
 18 19 0 0 0
SMALL
GASTEIGER

@<TRIPOS>ATOM
      1  SD        29.6830   10.9360  -12.1610 S.3   1131  R1F1131    -0.0773
      2  CE        28.7270    9.7760  -13.0910 C.3   1131  R1F1131     0.0917
      3  C3        28.9380    9.8380  -14.6000 C.2   1131  R1F1131    -0.0203
      4  C2        28.5210   10.9890  -15.5040 C.3   1131  R1F1131     0.0887
      5  C9        26.9940   11.0220  -15.6150 C.3   1131  R1F1131     0.0227
      6  C8        28.9590   12.3990  -15.1010 C.3   1131  R1F1131     0.0227
      7  N1        29.1080   10.5960  -16.7810 N.4   1131  R1F1131    -0.1311
      8  O1        29.1030   11.3140  -17.7800 O.3   1131  R1F1131    -0.1175
      9  C4        29.5080    8.8510  -15.3150 C.2   1131  R1F1131    -0.0128
     10  C5        29.7050    9.2660  -16.7580 C.3   1131  R1F1131     0.0912
     11  C6        29.0470    8.3250  -17.7620 C.3   1131  R1F1131     0.0230
     12  C7        31.1940    9.3230  -17.1040 C.3   1131  R1F1131     0.0230
     13  C10       29.9000    7.4750  -14.8190 C.ar  1131  R1F1131    -0.0032
     14  C11       28.9640    6.4350  -14.8770 C.ar  1131  R1F1131    -0.0003
     15  C12       29.2990    5.1490  -14.4370 C.ar  1131  R1F1131    -0.0000
     16  C13       30.5760    4.8930  -13.9320 C.ar  1131  R1F1131    -0.0000
     17  C14       31.5160    5.9240  -13.8710 C.ar  1131  R1F1131    -0.0000
     18  C15       31.1790    7.2070  -14.3150 C.ar  1131  R1F1131    -0.0003
@<TRIPOS>BOND
     1     8     7    1
     2    11    10    1
     3    12    10    1
     4     7    10    1
     5     7     4    1
     6    10     9    1
     7     5     4    1
     8     4     6    1
     9     4     3    1
    10     9    13    1
    11     9     3    2
    12    14    13   ar
    13    14    15   ar
    14    13    18   ar
    15     3     2    1
    16    15    16   ar
    17    18    17   ar
    18    16    17   ar
    19     2     1    1
