@<TRIPOS>MOLECULE
1zuw_DGL_A_1.pdb
 10 9 0 0 0
SMALL
GASTEIGER

@<TRIPOS>ATOM
      1  N          4.6000    0.7100   26.5070 N.3   1301  DGL1301    -0.1208
      2  CA         4.5270    1.3220   27.8630 C.3   1301  DGL1301     0.1949
      3  C          5.4240    2.5620   27.9470 C.2   1301  DGL1301     0.3819
      4  O          5.8380    2.9130   29.0720 O.co2 1301  DGL1301    -0.2441
      5  CB         3.0780    1.6960   28.1890 C.3   1301  DGL1301     0.0424
      6  CG         2.1980    0.4820   28.4450 C.3   1301  DGL1301     0.1161
      7  CD         2.7970   -0.3750   29.5310 C.2   1301  DGL1301     0.3649
      8  OE1        2.6740    0.0330   30.7090 O.co2 1301  DGL1301    -0.2457
      9  OE2        3.4110   -1.4280   29.2040 O.co2 1301  DGL1301    -0.2457
     10  OXT        5.7090    3.1550   26.8830 O.co2 1301  DGL1301    -0.2441
@<TRIPOS>BOND
     1     1     2    1
     2    10     3   ar
     3     2     3    1
     4     2     5    1
     5     3     4   ar
     6     5     6    1
     7     6     7    1
     8     9     7   ar
     9     7     8   ar
