@<TRIPOS>MOLECULE
1zvi_HEM_A_1.pdb
 43 50 0 0 0
SMALL
GASTEIGER

@<TRIPOS>ATOM
      1  CHA       44.6370    4.4520   26.2470 C.2   900  HEM900      0.0000
      2  CHB       47.6700    0.7990   25.6250 C.2   900  HEM900      0.0000
      3  CHC       48.9300    2.5640   21.3860 C.2   900  HEM900      0.0000
      4  CHD       46.6620    6.6140   22.3660 C.2   900  HEM900      0.0000
      5  C1A       45.2200    3.1880   26.3680 C.2   900  HEM900      0.0000
      6  C2A       44.8050    2.1200   27.2700 C.2   900  HEM900      0.0000
      7  C3A       45.7340    1.1620   27.1910 C.2   900  HEM900      0.0000
      8  C4A       46.6770    1.5950   26.1590 C.2   900  HEM900      0.0000
      9  CMA       45.6860   -0.1680   27.9570 C.3   900  HEM900      0.0000
     10  CAA       43.4900    1.9890   28.0070 C.3   900  HEM900      0.0000
     11  CBA       42.2850    2.0490   27.0890 C.3   900  HEM900      0.0000
     12  CGA       40.9910    1.8990   27.8450 C.2   900  HEM900      0.0000
     13  O1A       39.9200    2.2070   27.2730 O.co2 900  HEM900      0.0000
     14  O2A       41.0470    1.4610   29.0120 O.co2 900  HEM900      0.0000
     15  C1B       48.4100    1.0030   24.4860 C.ar  900  HEM900      0.0000
     16  C2B       49.3140    0.0220   23.9200 C.ar  900  HEM900      0.0000
     17  C3B       49.7360    0.5180   22.7270 C.ar  900  HEM900      0.0000
     18  C4B       49.0080    1.8090   22.5570 C.ar  900  HEM900      0.0000
     19  CMB       49.7060   -1.3420   24.5120 C.3   900  HEM900      0.0000
     20  CAB       50.6020   -0.1800   21.8550 C.3   900  HEM900      0.0000
     21  CBB       51.5490    0.3570   20.9800 C.3   900  HEM900      0.0000
     22  C1C       48.3080    3.7880   21.1770 C.2   900  HEM900      0.0000
     23  C2C       48.4290    4.6120   19.9520 C.2   900  HEM900      0.0000
     24  C3C       47.9560    5.8520   20.2510 C.2   900  HEM900      0.0000
     25  C4C       47.4450    5.7180   21.6610 C.2   900  HEM900      0.0000
     26  CMC       48.8870    4.1100   18.5870 C.3   900  HEM900      0.0000
     27  CAC       47.9370    6.9880   19.4600 C.3   900  HEM900      0.0000
     28  CBC       48.9500    7.3880   18.6050 C.3   900  HEM900      0.0000
     29  C1D       45.9910    6.4010   23.5680 C.ar  900  HEM900      0.0000
     30  C2D       44.9690    7.3080   24.0610 C.ar  900  HEM900      0.0000
     31  C3D       44.3480    6.6670   25.0600 C.ar  900  HEM900      0.0000
     32  C4D       45.0050    5.3960   25.2730 C.ar  900  HEM900      0.0000
     33  CMD       44.6450    8.7350   23.5840 C.3   900  HEM900      0.0000
     34  CAD       43.1160    7.2140   25.7610 C.3   900  HEM900      0.0000
     35  CBD       41.8520    6.6820   25.1200 C.3   900  HEM900      0.0000
     36  CGD       40.6130    7.2130   25.7890 C.2   900  HEM900      0.0000
     37  O1D       39.5020    6.7740   25.4220 O.co2 900  HEM900      0.0000
     38  O2D       40.7560    8.0720   26.6840 O.co2 900  HEM900      0.0000
     39  NA        46.3310    2.8060   25.6580 N.2   900  HEM900      0.0000
     40  NB        48.2850    2.1130   23.6830 N.ar  900  HEM900      0.0000
     41  NC        47.6950    4.4890   22.1680 N.2   900  HEM900      0.0000
     42  ND        46.0440    5.2240   24.3530 N.ar  900  HEM900      0.0000
     43 FE         47.3250    3.8820   24.1980 Fe    900  HEM900      0.0000
@<TRIPOS>BOND
     1    26    23    1
     2    28    27    1
     3    27    24    1
     4    23    24    2
     5    23    22    1
     6    24    25    1
     7    21    20    1
     8    22     3    2
     9    22    41    1
    10     3    18    1
    11    25    41    2
    12    25     4    1
    13    20    17    1
    14    41    43    1
    15     4    29    2
    16    18    17   ar
    17    18    40   ar
    18    17    16   ar
    19    29    30   ar
    20    29    42   ar
    21    33    30    1
    22    40    43    1
    23    40    15   ar
    24    16    15   ar
    25    16    19    1
    26    30    31   ar
    27    43    42    1
    28    43    39    1
    29    42    32   ar
    30    15     2    1
    31    31    32   ar
    32    31    34    1
    33    35    34    1
    34    35    36    1
    35    32     1    2
    36    37    36   ar
    37     2     8    2
    38    39     8    1
    39    39     5    2
    40    36    38   ar
    41     8     7    1
    42     1     5    1
    43     5     6    1
    44    11    12    1
    45    11    10    1
    46     7     6    2
    47     7     9    1
    48     6    10    1
    49    13    12   ar
    50    12    14   ar
