@<TRIPOS>MOLECULE
1zvi_H4B_A_1.pdb
 17 18 0 0 0
SMALL
GASTEIGER

@<TRIPOS>ATOM
      1  N1        41.2360    3.0820   33.2980 N.2   901  H4B901     -0.2683
      2  C2        41.3270    2.6470   32.0000 C.1   901  H4B901      0.2608
      3  N2        42.4570    2.2650   31.4520 N.pl3 901  H4B901     -0.0220
      4  N3        40.1960    2.6210   31.2750 N.2   901  H4B901     -0.2474
      5  C4        38.9140    3.0030   31.7350 C.1   901  H4B901      0.2441
      6  O4        37.9570    2.9330   30.9740 O.2   901  H4B901     -0.2063
      7  C4A       38.8910    3.4450   33.0830 C.2   901  H4B901      0.2463
      8  C8A       40.0370    3.4800   33.8670 C.1   901  H4B901      0.1270
      9  N5        37.5980    3.8530   33.6380 N.2   901  H4B901     -0.2460
     10  N8        40.0210    3.8860   35.1610 N.2   901  H4B901     -0.2054
     11  C6        37.7590    4.8460   34.8000 C.3   901  H4B901      0.1627
     12  C7        38.7510    4.2960   35.8010 C.3   901  H4B901      0.1643
     13  C9        36.3320    5.1430   35.3150 C.3   901  H4B901      0.2063
     14  O9        35.6620    3.9590   35.7280 O.3   901  H4B901     -0.2183
     15  C10       36.3100    6.1240   36.5170 C.3   901  H4B901      0.1842
     16  C11       34.9330    6.4150   36.9720 C.3   901  H4B901      0.0383
     17  O10       36.9900    7.3000   36.0780 O.3   901  H4B901     -0.2204
@<TRIPOS>BOND
     1     6     5    2
     2     4     5    2
     3     4     2    2
     4     3     2    1
     5     5     7    1
     6     2     1    2
     7     7     9    2
     8     7     8    1
     9     1     8    2
    10     9    11    1
    11     8    10    2
    12    11    13    1
    13    11    12    1
    14    10    12    1
    15    13    14    1
    16    13    15    1
    17    17    15    1
    18    15    16    1
