@<TRIPOS>MOLECULE
1zvl_H4B_A_1.pdb
 17 18 0 0 0
SMALL
GASTEIGER

@<TRIPOS>ATOM
      1  N1        15.8860   53.2990   34.2260 N.2   900  H4B900     -0.2683
      2  C2        15.7330   53.7350   32.9400 C.1   900  H4B900      0.2608
      3  N2        14.5510   53.8940   32.3870 N.pl3 900  H4B900     -0.0220
      4  N3        16.8640   54.0070   32.2300 N.2   900  H4B900     -0.2474
      5  C4        18.2000   53.8800   32.7100 C.1   900  H4B900      0.2441
      6  O4        19.1400   54.1620   31.9630 O.2   900  H4B900     -0.2063
      7  C4A       18.2790   53.4210   34.0540 C.2   900  H4B900      0.2463
      8  C8A       17.1430   53.1350   34.8200 C.1   900  H4B900      0.1270
      9  N5        19.6110   53.2650   34.6430 N.2   900  H4B900     -0.2460
     10  N8        17.2220   52.7100   36.1010 N.2   900  H4B900     -0.2054
     11  C6        19.6400   52.2330   35.7540 C.3   900  H4B900      0.1627
     12  C7        18.5430   52.5420   36.7520 C.3   900  H4B900      0.1643
     13  C9        21.0900   52.2500   36.2580 C.3   900  H4B900      0.2063
     14  O9        21.4780   53.5480   36.6640 O.3   900  H4B900     -0.2183
     15  C10       21.3270   51.2760   37.4400 C.3   900  H4B900      0.1842
     16  C11       22.7320   51.2790   37.9140 C.3   900  H4B900      0.0383
     17  O10       20.9210   49.9940   36.9720 O.3   900  H4B900     -0.2204
@<TRIPOS>BOND
     1     6     5    2
     2     4     5    2
     3     4     2    2
     4     3     2    1
     5     5     7    1
     6     2     1    2
     7     7     9    2
     8     7     8    1
     9     1     8    2
    10     9    11    1
    11     8    10    2
    12    11    13    1
    13    11    12    1
    14    10    12    1
    15    13    14    1
    16    13    15    1
    17    17    15    1
    18    15    16    1
