@<TRIPOS>MOLECULE
1zvl_HEM_A_1.pdb
 43 50 0 0 0
SMALL
GASTEIGER

@<TRIPOS>ATOM
      1 FE         10.3080   51.4490   24.7830 Fe    800  HEM800      0.0000
      2  CHA       13.1140   51.4910   26.7230 C.2   800  HEM800      0.0000
      3  CHB        9.2870   54.3540   26.3010 C.2   800  HEM800      0.0000
      4  CHC        8.3960   52.3080   22.0000 C.2   800  HEM800      0.0000
      5  CHD       11.5540   48.8460   22.9320 C.2   800  HEM800      0.0000
      6  NA        11.0540   52.6860   26.2390 N.2   800  HEM800      0.0000
      7  C1A       12.2380   52.5340   26.9470 C.2   800  HEM800      0.0000
      8  C2A       12.3670   53.5280   27.9790 C.2   800  HEM800      0.0000
      9  C3A       11.2250   54.2440   27.9510 C.2   800  HEM800      0.0000
     10  C4A       10.4320   53.7490   26.8200 C.2   800  HEM800      0.0000
     11  CMA       10.9360   55.4100   28.9050 C.3   800  HEM800      0.0000
     12  CAA       13.5730   53.9790   28.7780 C.3   800  HEM800      0.0000
     13  CBA       14.7840   54.2330   27.9140 C.3   800  HEM800      0.0000
     14  CGA       15.9850   54.6450   28.7150 C.2   800  HEM800      0.0000
     15  O1A       17.1030   54.5750   28.1660 O.co2 800  HEM800      0.0000
     16  O2A       15.8140   55.0510   29.8850 O.co2 800  HEM800      0.0000
     17  NB         8.9900   52.8920   24.3630 N.ar  800  HEM800      0.0000
     18  C1B        8.6010   53.9690   25.1670 C.ar  800  HEM800      0.0000
     19  C2B        7.4720   54.6950   24.6030 C.ar  800  HEM800      0.0000
     20  C3B        7.2320   54.1280   23.3750 C.ar  800  HEM800      0.0000
     21  C4B        8.2040   53.0290   23.2120 C.ar  800  HEM800      0.0000
     22  CMB        6.6370   55.7330   25.3280 C.3   800  HEM800      0.0000
     23  CAB        6.2930   54.5250   22.4250 C.2   800  HEM800      0.0000
     24  CBB        5.0330   53.9940   22.3830 C.2   800  HEM800      0.0000
     25  NC        10.0970   50.7490   22.7410 N.2   800  HEM800      0.0000
     26  C1C        9.2960   51.2720   21.7590 C.2   800  HEM800      0.0000
     27  C2C        9.3650   50.4920   20.5580 C.2   800  HEM800      0.0000
     28  C3C       10.1850   49.4290   20.8200 C.2   800  HEM800      0.0000
     29  C4C       10.6410   49.6150   22.2000 C.2   800  HEM800      0.0000
     30  CMC        8.7210   50.8390   19.2160 C.3   800  HEM800      0.0000
     31  CAC       10.5710   48.4190   19.9170 C.3   800  HEM800      0.0000
     32  CBC        9.7230   47.7710   19.0300 C.3   800  HEM800      0.0000
     33  ND        11.8830   50.3500   24.9170 N.ar  800  HEM800      0.0000
     34  C1D       12.1720   49.2030   24.1540 C.ar  800  HEM800      0.0000
     35  C2D       13.4190   48.6120   24.5910 C.ar  800  HEM800      0.0000
     36  C3D       13.9190   49.3920   25.5900 C.ar  800  HEM800      0.0000
     37  C4D       12.9640   50.4740   25.7940 C.ar  800  HEM800      0.0000
     38  CMD       14.0710   47.3700   24.0260 C.3   800  HEM800      0.0000
     39  CAD       15.2680   49.1600   26.2540 C.3   800  HEM800      0.0000
     40  CBD       16.2340   50.3280   26.0850 C.3   800  HEM800      0.0000
     41  CGD       17.6210   49.9860   26.5700 C.2   800  HEM800      0.0000
     42  O1D       18.5050   50.8730   26.5740 O.co2 800  HEM800      0.0000
     43  O2D       17.8140   48.8090   26.9410 O.co2 800  HEM800      0.0000
@<TRIPOS>BOND
     1    32    31    1
     2    30    27    1
     3    31    28    1
     4    27    28    2
     5    27    26    1
     6    28    29    1
     7    26     4    2
     8    26    25    1
     9     4    21    1
    10    29    25    2
    11    29     5    1
    12    24    23    2
    13    23    20    1
    14    25     1    1
    15     5    34    2
    16    21    20   ar
    17    21    17   ar
    18    20    19   ar
    19    38    35    1
    20    34    35   ar
    21    34    33   ar
    22    17     1    1
    23    17    18   ar
    24    35    36   ar
    25    19    18   ar
    26    19    22    1
    27     1    33    1
    28     1     6    1
    29    33    37   ar
    30    18     3    1
    31    36    37   ar
    32    36    39    1
    33    37     2    2
    34    40    39    1
    35    40    41    1
    36     6    10    1
    37     6     7    2
    38     3    10    2
    39    41    42   ar
    40    41    43   ar
    41     2     7    1
    42    10     9    1
    43     7     8    1
    44    13    14    1
    45    13    12    1
    46     9     8    2
    47     9    11    1
    48     8    12    1
    49    15    14   ar
    50    14    16   ar
