@<TRIPOS>MOLECULE
1zvl_ARG_A_1.pdb
 12 11 0 0 0
SMALL
GASTEIGER

@<TRIPOS>ATOM
      1  N         16.6230   57.1500   26.3200 N.3   901  ARG901     -0.1208
      2  CA        16.9090   57.5840   24.9210 C.3   901  ARG901      0.1944
      3  C         16.9340   59.1120   24.8390 C.2   901  ARG901      0.3819
      4  O         16.1340   59.7420   25.5590 O.co2 901  ARG901     -0.2441
      5  CB        15.8410   57.0160   23.9820 C.3   901  ARG901      0.0343
      6  CG        15.6800   55.5080   24.0870 C.3   901  ARG901      0.0490
      7  CD        14.4400   55.0360   23.3490 C.3   901  ARG901      0.2205
      8  NE        13.2510   55.7370   23.8150 N.pl3 901  ARG901     -0.0865
      9  CZ        12.0140   55.4330   23.4440 C.cat 901  ARG901      0.5346
     10  NH1       11.8030   54.4310   22.5950 N.pl3 901  ARG901      0.1354
     11  NH2       10.9880   56.1300   23.9190 N.pl3 901  ARG901      0.1354
     12  OXT       17.7620   59.6590   24.0750 O.co2 901  ARG901     -0.2441
@<TRIPOS>BOND
     1    10     9    1
     2     7     8    1
     3     7     6    1
     4     9     8    2
     5     9    11    1
     6     5     6    1
     7     5     2    1
     8    12     3   ar
     9     3     2    1
    10     3     4   ar
    11     2     1    1
