@<TRIPOS>MOLECULE
1zvq_GDP_A_1.pdb
 28 30 0 0 0
SMALL
GASTEIGER

@<TRIPOS>ATOM
      1  PB        -7.4260   14.4690   21.4030 P.3   180  GDP180      0.5373
      2  O1B       -6.2670   14.5570   22.3820 O.3   180  GDP180     -0.1143
      3  O2B       -7.6770   15.8480   20.8510 O.3   180  GDP180     -0.1143
      4  O3B       -6.9980   13.5000   20.3180 O.2   180  GDP180     -0.2221
      5  O3A       -8.7100   13.9120   22.1990 O.3   180  GDP180     -0.2261
      6  PA       -10.2650   14.3070   22.0100 P.3   180  GDP180      0.2231
      7  O1A      -10.5780   15.6500   22.5750 O.3   180  GDP180     -0.4370
      8  O2A      -10.6200   14.1410   20.5530 O.2   180  GDP180     -0.5169
      9  O5'      -10.9930   13.1690   22.8550 O.3   180  GDP180     -0.3111
     10  C5'      -10.7670   11.7910   22.5590 C.3   180  GDP180      0.1813
     11  C4'      -11.9080   10.9950   23.1390 C.3   180  GDP180      0.1799
     12  O4'      -11.8960   11.1120   24.5520 O.3   180  GDP180     -0.3326
     13  C3'      -13.2410   11.5880   22.6920 C.3   180  GDP180      0.2158
     14  O3'      -14.1600   10.5060   22.5300 O.3   180  GDP180     -0.2175
     15  C2'      -13.6990   12.4630   23.8450 C.3   180  GDP180      0.2310
     16  O2'      -15.1240   12.4780   23.9540 O.3   180  GDP180     -0.2158
     17  C1'      -13.0980   11.7240   25.0230 C.3   180  GDP180      0.2293
     18  N9       -12.7350   12.5940   26.1580 N.pl3 180  GDP180     -0.2354
     19  C8       -11.9090   13.6570   26.1410 C.3   180  GDP180      0.2246
     20  N7       -11.8170   14.1750   27.3790 N.2   180  GDP180     -0.2322
     21  C5       -12.5580   13.4210   28.2040 C.2   180  GDP180      0.2182
     22  C6       -12.8790   13.3860   29.6530 C.1   180  GDP180      0.2372
     23  O6       -12.4160   14.2400   30.4330 O.2   180  GDP180     -0.2069
     24  N1       -13.6870   12.4270   30.1040 N.2   180  GDP180     -0.2485
     25  C2       -14.2320   11.4960   29.2850 C.1   180  GDP180      0.2531
     26  N2       -15.0430   10.5520   29.8060 N.pl3 180  GDP180     -0.0226
     27  N3       -13.9660   11.4430   27.9670 N.2   180  GDP180     -0.3074
     28  C4       -13.1620   12.3740   27.3860 C.2   180  GDP180      0.2300
@<TRIPOS>BOND
     1     4     1    2
     2     8     6    2
     3     3     1    1
     4     1     5    1
     5     1     2    1
     6     6     5    1
     7     6     7    1
     8     6     9    1
     9    14    13    1
    10    10     9    1
    11    10    11    1
    12    13    11    1
    13    13    15    1
    14    11    12    1
    15    15    16    1
    16    15    17    1
    17    12    17    1
    18    17    18    1
    19    19    18    1
    20    19    20    1
    21    18    28    1
    22    20    21    2
    23    28    27    2
    24    28    21    1
    25    27    25    2
    26    21    22    1
    27    25    26    1
    28    25    24    2
    29    22    24    2
    30    22    23    2
