@<TRIPOS>MOLECULE
1zvr_3PI_A_1.pdb
 39 39 0 0 0
SMALL
GASTEIGER

@<TRIPOS>ATOM
      1  C1        36.1590   57.4790   75.6790 C.3   3632  3PI3632     0.1872
      2  C2        37.7260   57.0670   75.5830 C.3   3632  3PI3632     0.2120
      3  C3        37.7770   55.4390   75.2680 C.3   3632  3PI3632     0.1917
      4  C4        37.0240   55.0720   73.9150 C.3   3632  3PI3632     0.2121
      5  C5        35.4920   55.5760   74.0360 C.3   3632  3PI3632     0.1917
      6  C6        35.3400   57.1340   74.3020 C.3   3632  3PI3632     0.2120
      7  O1        36.0490   58.8360   75.8790 O.3   3632  3PI3632    -0.3111
      8  O2        38.3510   57.8540   74.4650 O.3   3632  3PI3632    -0.2177
      9  O3        39.2060   54.9850   75.2570 O.3   3632  3PI3632    -0.2673
     10  O4        37.0830   53.7230   73.7050 O.3   3632  3PI3632    -0.2177
     11  O5        34.8110   55.3580   72.8310 O.3   3632  3PI3632    -0.2673
     12  O6        34.0640   57.4840   74.4370 O.3   3632  3PI3632    -0.2177
     13  P1        35.8540   59.6430   77.2620 P.3   3632  3PI3632     0.2142
     14  O11       35.7710   61.1480   76.8520 O.2   3632  3PI3632    -0.5172
     15  O12       37.0490   59.4350   78.2470 O.3   3632  3PI3632    -0.4373
     16  O13       34.4190   59.4720   77.9110 O.3   3632  3PI3632    -0.3101
     17  P3        40.1920   54.8550   76.5220 P.3   3632  3PI3632     0.5327
     18  O31       40.5910   53.3430   76.7090 O.3   3632  3PI3632    -0.1145
     19  O32       39.4830   55.3560   77.8540 O.3   3632  3PI3632    -0.1145
     20  O33       41.4880   55.7000   76.2010 O.2   3632  3PI3632    -0.2224
     21  P5        34.0640   53.9920   72.3890 P.3   3632  3PI3632     0.5327
     22  O51       34.7420   52.7860   72.9600 O.3   3632  3PI3632    -0.1145
     23  O52       34.1020   53.9850   70.9090 O.2   3632  3PI3632    -0.2224
     24  O53       32.6440   53.9570   72.8390 O.3   3632  3PI3632    -0.1145
     25  C7        33.3740   59.0730   77.0540 C.3   3632  3PI3632     0.1951
     26  C8        32.1930   59.2790   77.8740 C.3   3632  3PI3632     0.2281
     27  C9        31.1990   59.8930   77.0070 C.3   3632  3PI3632     0.1909
     28  C10       29.5320   61.5750   76.2260 C.3   3632  3PI3632     0.2690
     29  C11       28.1880   61.4680   76.7510 C.3   3632  3PI3632     0.0644
     30  C12       28.0530   61.9530   78.2360 C.3   3632  3PI3632     0.0053
     31  C13       26.5090   61.8810   78.4430 C.3   3632  3PI3632     0.0002
     32  C14       32.3330   56.8580   79.0440 C.2   3632  3PI3632     0.3170
     33  C15       31.5820   56.1110   80.1660 C.3   3632  3PI3632     0.1096
     34  C16       30.7830   57.0120   81.1100 C.3   3632  3PI3632     0.0116
     35  C17       30.1990   56.1280   82.1570 C.3   3632  3PI3632     0.0006
     36  O14       31.6640   58.0870   78.7880 O.3   3632  3PI3632    -0.4470
     37  O15       30.1290   60.7130   77.4060 O.3   3632  3PI3632    -0.3245
     38  O16       29.6640   61.4880   75.1990 O.3   3632  3PI3632    -0.1899
     39  O17       33.3000   56.3220   78.4570 O.2   3632  3PI3632    -0.2501
@<TRIPOS>BOND
     1    23    21    2
     2    21    11    1
     3    21    24    1
     4    21    22    1
     5    11     5    1
     6    10     4    1
     7     4     5    1
     8     4     3    1
     9     5     6    1
    10     6    12    1
    11     6     1    1
    12     8     2    1
    13    38    28    1
    14     9     3    1
    15     9    17    1
    16     3     2    1
    17     2     1    1
    18     1     7    1
    19     7    13    1
    20    20    17    2
    21    28    29    1
    22    28    37    1
    23    17    18    1
    24    17    19    1
    25    29    30    1
    26    14    13    2
    27    27    37    1
    28    27    26    1
    29    25    26    1
    30    25    16    1
    31    13    16    1
    32    13    15    1
    33    26    36    1
    34    30    31    1
    35    39    32    2
    36    36    32    1
    37    32    33    1
    38    33    34    1
    39    34    35    1
