@<TRIPOS>MOLECULE
1zvw_PRP_A_1.pdb
 22 22 0 0 0
SMALL
GASTEIGER

@<TRIPOS>ATOM
      1  C1        52.0360   21.4290   45.2200 C.3   3966  PRP3966     0.2742
      2  C2        52.4360   22.7850   44.6410 C.3   3966  PRP3966     0.2408
      3  C3        51.2750   23.2210   43.7670 C.3   3966  PRP3966     0.2167
      4  C4        50.3880   21.9820   43.6580 C.3   3966  PRP3966     0.1808
      5  C5        50.1980   21.5110   42.2190 C.3   3966  PRP3966     0.1859
      6  O1        51.5530   21.6930   46.5460 O.3   3966  PRP3966    -0.2857
      7  O2        52.6750   23.7410   45.7020 O.3   3966  PRP3966    -0.2149
      8  O3        50.5780   24.3010   44.4060 O.3   3966  PRP3966    -0.2175
      9  O4        50.9920   20.9120   44.3980 O.3   3966  PRP3966    -0.3255
     10  O5        51.4620   21.4090   41.5390 O.3   3966  PRP3966    -0.2675
     11  P         51.4750   21.4240   39.9250 P.3   3966  PRP3966     0.5327
     12  O1P       50.7640   20.1280   39.5900 O.3   3966  PRP3966    -0.1145
     13  O2P       50.6990   22.6440   39.5010 O.2   3966  PRP3966    -0.2224
     14  O3P       52.9390   21.4910   39.5800 O.3   3966  PRP3966    -0.1145
     15  PA        50.8130   20.6830   47.5790 P.3   3966  PRP3966     0.2249
     16  O1A       51.4390   19.3110   47.4180 O.2   3966  PRP3966    -0.5169
     17  O2A       50.8760   21.3550   48.9330 O.3   3966  PRP3966    -0.4370
     18  O3A       49.3050   20.8440   46.9770 O.3   3966  PRP3966    -0.2260
     19  PB        47.9830   19.8860   46.9490 P.3   3966  PRP3966     0.5373
     20  O1B       47.3700   20.2940   45.5760 O.2   3966  PRP3966    -0.2221
     21  O2B       47.2080   20.3610   48.1590 O.3   3966  PRP3966    -0.1143
     22  O3B       48.4300   18.4240   47.0390 O.3   3966  PRP3966    -0.1143
@<TRIPOS>BOND
     1    13    11    2
     2    14    11    1
     3    12    11    1
     4    11    10    1
     5    10     5    1
     6     5     4    1
     7     4     3    1
     8     4     9    1
     9     3     8    1
    10     3     2    1
    11     9     1    1
    12     2     1    1
    13     2     7    1
    14     1     6    1
    15    20    19    2
    16     6    15    1
    17    19    18    1
    18    19    22    1
    19    19    21    1
    20    18    15    1
    21    16    15    2
    22    15    17    1
