@<TRIPOS>MOLECULE
1zvx_FIN_A_1.pdb
 26 27 0 0 0
SMALL
GASTEIGER

@<TRIPOS>ATOM
      1  C14       -1.1900   22.3760    5.5780 C.ar  994  FIN994      0.0002
      2  C15       -0.2200   21.2840    5.5370 C.ar  994  FIN994      0.0031
      3  C16        0.1980   20.7060    4.2360 C.ar  994  FIN994      0.0369
      4  C17       -0.3690   21.2300    2.9850 C.ar  994  FIN994      0.1387
      5  C1        -1.3300   22.3140    3.0300 C.ar  994  FIN994      0.0369
      6  C2        -1.7470   22.8920    4.3240 C.ar  994  FIN994      0.0031
      7  O1         0.0160   20.6800    1.6880 O.3   994  FIN994     -0.4714
      8  C3         0.6930   19.4200    1.5690 C.3   994  FIN994      0.2525
      9  C4        -1.6310   22.9410    6.8970 C.ar  994  FIN994      0.0001
     10  C5        -0.8140   22.7560    8.1060 C.ar  994  FIN994      0.0014
     11  C6        -1.2770   23.2820    9.3780 C.ar  994  FIN994      0.0200
     12  C7        -2.5740   24.0070    9.4550 C.ar  994  FIN994      0.1236
     13  C8        -3.3680   24.2050    8.2630 C.ar  994  FIN994      0.0200
     14  C9        -2.9180   23.6810    6.9950 C.ar  994  FIN994      0.0014
     15  S1        -3.1450   24.6220   11.0000 S.O2  994  FIN994      0.0772
     16  O2        -4.5850   24.6930   10.8850 O.2   994  FIN994     -0.1516
     17  O3        -2.6490   23.6950   11.9740 O.2   994  FIN994     -0.1516
     18  N1        -2.6120   26.1290   11.3960 N.3   994  FIN994     -0.0719
     19  C10       -3.1340   27.2710   10.8750 C.3   994  FIN994      0.1490
     20  C11       -3.7190   28.1300   12.0500 C.3   994  FIN994      0.0249
     21  C12       -4.9370   27.5370   12.6770 C.3   994  FIN994      0.0020
     22  C13       -2.7510   28.4510   13.2100 C.3   994  FIN994      0.0020
     23  P1        -1.8220   28.0970   10.0800 P.3   994  FIN994      0.1347
     24  O4        -2.1310   29.5680    9.9040 O.3   994  FIN994     -0.3562
     25  O5        -0.5650   27.9580   10.8700 O.3   994  FIN994     -0.3562
     26  O6        -1.6540   27.4670    8.8220 O.2   994  FIN994     -0.4587
@<TRIPOS>BOND
     1     8     7    1
     2     7     4    1
     3     4     5   ar
     4     4     3   ar
     5     5     6   ar
     6     3     2   ar
     7     6     1   ar
     8     2     1   ar
     9     1     9    1
    10     9    14   ar
    11     9    10   ar
    12    14    13   ar
    13    10    11   ar
    14    13    12   ar
    15    26    23    2
    16    11    12   ar
    17    12    15    1
    18    24    23    1
    19    23    25    1
    20    23    19    1
    21    19    18    1
    22    19    20    1
    23    16    15    2
    24    15    18    1
    25    15    17    2
    26    20    21    1
    27    20    22    1
