@<TRIPOS>MOLECULE
1zw1_TN5_A_1.pdb
 17 18 0 0 0
SMALL
GASTEIGER

@<TRIPOS>ATOM
      1 CL13       49.1400   97.5560   33.8720 Cl    500  TN5500     -0.0821
      2  C12       49.4910   95.9950   34.1220 C.ar  500  TN5500      0.0611
      3  C11       50.4840   95.6490   35.1660 C.ar  500  TN5500      0.0147
      4  C10       50.8350   94.1880   35.4350 C.ar  500  TN5500      0.0417
      5  C9        50.1770   93.0880   34.6440 C.ar  500  TN5500      0.1840
      6  C8        49.1870   93.4560   33.5970 C.ar  500  TN5500      0.2307
      7  O2        48.5890   92.4820   32.8770 O.3   500  TN5500     -0.2833
      8  C7        48.8380   94.9220   33.3320 C.ar  500  TN5500      0.0566
      9  O1        50.5340   91.7450   34.9340 O.3   500  TN5500     -0.4494
     10  C1        51.6570   91.0400   34.2910 C.ar  500  TN5500      0.1560
     11  C6        52.6390   91.6040   33.2010 C.ar  500  TN5500      0.0398
     12  C5        53.6750   90.8170   32.6760 C.ar  500  TN5500      0.0212
     13  C4        53.9270   89.4520   33.0820 C.ar  500  TN5500      0.0901
     14  N1        55.1780   88.5210   32.4410 N.pl3 500  TN5500     -0.1280
     15  C3        53.0090   88.7720   34.1680 C.ar  500  TN5500      0.0325
     16  C2        51.8730   89.5520   34.7800 C.ar  500  TN5500      0.0934
     17 CL14       50.8850   88.8510   35.9470 Cl    500  TN5500     -0.0790
@<TRIPOS>BOND
     1    14    13    1
     2    12    13   ar
     3    12    11   ar
     4     7     6    1
     5    13    15   ar
     6    11    10   ar
     7     8     6   ar
     8     8     2   ar
     9     6     5   ar
    10     1     2    1
    11     2     3   ar
    12    15    16   ar
    13    10    16   ar
    14    10     9    1
    15     5     9    1
    16     5     4   ar
    17    16    17    1
    18     3     4   ar
