@<TRIPOS>MOLECULE
1zw1_NAD_A_1.pdb
 44 48 0 0 0
SMALL
GASTEIGER

@<TRIPOS>ATOM
      1  PA        50.6970   88.2770   40.6240 P.3   450  NAD450      0.2189
      2  O1A       50.1070   88.0150   41.9750 O.3   450  NAD450     -0.4371
      3  O2A       52.1840   88.5500   40.5210 O.2   450  NAD450     -0.5170
      4  O5B       50.2640   86.9460   39.7720 O.3   450  NAD450     -0.3112
      5  C5B       50.8800   86.3810   38.5950 C.3   450  NAD450      0.1813
      6  C4B       50.9440   84.9040   38.7190 C.3   450  NAD450      0.1821
      7  O4B       51.1380   84.2080   37.4570 O.3   450  NAD450     -0.3135
      8  C3B       52.1060   84.4380   39.5930 C.3   450  NAD450      0.2184
      9  O3B       51.5780   84.3610   40.9450 O.3   450  NAD450     -0.2174
     10  C2B       52.5490   83.0890   38.9850 C.3   450  NAD450      0.2570
     11  O2B       52.3850   82.0620   39.9340 O.3   450  NAD450     -0.2130
     12  C1B       51.6200   82.8960   37.7660 C.3   450  NAD450      0.3186
     13  N9A       52.3270   82.3060   36.5870 N.pl3 450  NAD450     -0.1439
     14  C8A       53.1800   82.6250   35.5300 C.3   450  NAD450      0.3377
     15  N7A       53.5150   81.6330   34.7160 N.2   450  NAD450     -0.2095
     16  C5A       52.8420   80.5450   35.2520 C.2   450  NAD450      0.2526
     17  C6A       52.7720   79.1930   34.8670 C.2   450  NAD450      0.4393
     18  N6A       53.4150   78.7100   33.8100 N.pl3 450  NAD450      0.2180
     19  N1A       51.9970   78.3280   35.6250 N.2   450  NAD450      0.0021
     20  C2A       51.3200   78.7920   36.7230 C.3   450  NAD450      0.5254
     21  N3A       51.3060   80.0590   37.1940 N.2   450  NAD450     -0.0055
     22  C4A       52.0980   80.9210   36.4100 C.2   450  NAD450      0.3518
     23  O3        50.2100   89.4890   39.8120 O.3   450  NAD450     -0.2703
     24  PN        48.8710   90.0500   39.3940 P.3   450  NAD450      0.2189
     25  O1N       47.9060   90.2380   40.5120 O.3   450  NAD450     -0.4371
     26  O2N       49.2300   91.2330   38.5720 O.2   450  NAD450     -0.5170
     27  O5D       48.4200   89.0780   38.2210 O.3   450  NAD450     -0.3112
     28  C5D       47.1710   88.3880   38.1700 C.3   450  NAD450      0.1813
     29  C4D       46.4190   88.7500   36.8490 C.3   450  NAD450      0.1799
     30  O4D       45.9530   90.1460   36.8940 O.3   450  NAD450     -0.3327
     31  C3D       47.3260   88.6320   35.6210 C.3   450  NAD450      0.2158
     32  O3D       46.7320   87.8270   34.6440 O.3   450  NAD450     -0.2175
     33  C2D       47.5220   90.0340   35.1960 C.3   450  NAD450      0.2309
     34  O2D       47.8420   90.1760   33.8470 O.3   450  NAD450     -0.2158
     35  C1D       46.2070   90.6380   35.5710 C.3   450  NAD450      0.2263
     36  N1N       46.1050   92.0900   35.5130 N.pl3 450  NAD450     -0.2787
     37  C2N       46.9320   92.8620   36.3960 C.3   450  NAD450      0.1244
     38  C3N       46.9930   94.2550   36.4970 C.2   450  NAD450      0.0544
     39  C7N       47.8370   95.0670   37.3950 C.2   450  NAD450      0.2818
     40  O7N       47.8210   96.4020   37.3910 O.2   450  NAD450     -0.2670
     41  N7N       48.7020   94.5840   38.2840 N.am  450  NAD450     -0.0839
     42  C4N       46.0790   94.8200   35.5720 C.2   450  NAD450      0.0033
     43  C5N       45.1890   94.1520   34.6280 C.2   450  NAD450      0.0157
     44  C6N       45.2270   92.7010   34.6190 C.2   450  NAD450      0.0633
@<TRIPOS>BOND
     1    18    17    1
     2    34    33    1
     3    44    43    2
     4    44    36    1
     5    43    42    1
     6    32    31    1
     7    15    16    2
     8    15    14    1
     9    17    16    1
    10    17    19    2
    11    33    35    1
    12    33    31    1
    13    16    22    1
    14    36    35    1
    15    36    37    1
    16    14    13    1
    17    35    30    1
    18    42    38    2
    19    31    29    1
    20    19    20    1
    21    37    38    1
    22    22    13    1
    23    22    21    2
    24    38    39    1
    25    13    12    1
    26    20    21    1
    27    29    30    1
    28    29    28    1
    29    40    39    2
    30    39    41   am
    31     7    12    1
    32     7     6    1
    33    12    10    1
    34    28    27    1
    35    27    24    1
    36    26    24    2
    37     5     6    1
    38     5     4    1
    39     6     8    1
    40    10     8    1
    41    10    11    1
    42    24    23    1
    43    24    25    1
    44     8     9    1
    45     4     1    1
    46    23     1    1
    47     3     1    2
    48     1     2    1
