@<TRIPOS>MOLECULE
1zw5_IPR_A_1.pdb
 14 13 0 0 0
SMALL
GASTEIGER

@<TRIPOS>ATOM
      1  P11        8.0920   35.2680   -1.8730 P.3   900  IPR900      0.5373
      2  O14        8.9700   36.2010   -1.0580 O.3   900  IPR900     -0.1143
      3  O12        8.1730   33.8000   -1.5670 O.3   900  IPR900     -0.1143
      4  O13        6.6850   35.8260   -1.9150 O.2   900  IPR900     -0.2221
      5  O10        8.7530   35.3330   -3.3490 O.3   900  IPR900     -0.2261
      6  P7         8.1730   34.9700   -4.8110 P.3   900  IPR900      0.2230
      7  O8         6.8530   34.2640   -4.6950 O.3   900  IPR900     -0.4370
      8  O9         8.3410   36.2000   -5.6750 O.2   900  IPR900     -0.5169
      9  O6         9.2360   33.9790   -5.4700 O.3   900  IPR900     -0.3135
     10  C5        10.5850   34.4320   -5.6540 C.3   900  IPR900      0.1535
     11  C4        11.4110   33.5880   -6.6180 C.3   900  IPR900      0.0545
     12  C2        10.7430   33.3410   -7.9320 C.2   900  IPR900     -0.0414
     13  C1        10.3970   32.1230   -8.2760 C.2   900  IPR900     -0.0090
     14  C3        10.4910   34.4610   -8.8950 C.3   900  IPR900      0.0264
@<TRIPOS>BOND
     1    14    12    1
     2    13    12    2
     3    12    11    1
     4    11    10    1
     5     8     6    2
     6    10     9    1
     7     9     6    1
     8     6     7    1
     9     6     5    1
    10     5     1    1
    11     4     1    2
    12     1     3    1
    13     1     2    1
