@<TRIPOS>MOLECULE
1zw5_ZOL_A_1.pdb
 16 16 0 0 0
SMALL
GASTEIGER

@<TRIPOS>ATOM
      1  O17       17.3480   33.9430   -8.8600 O.3   901  ZOL901     -0.3552
      2  P14       16.1440   34.1960   -9.6610 P.3   901  ZOL901      0.1531
      3  O16       16.0210   33.0190  -10.6360 O.2   901  ZOL901     -0.4572
      4  O15       16.0430   35.5460  -10.3420 O.3   901  ZOL901     -0.3552
      5  C8        14.9540   34.2900   -8.2760 C.3   901  ZOL901      0.2364
      6  P9        15.3580   35.6930   -7.1820 P.3   901  ZOL901      0.1531
      7  O10       14.4650   35.6890   -5.9680 O.3   901  ZOL901     -0.3552
      8  O11       16.8340   35.6120   -6.7370 O.3   901  ZOL901     -0.3552
      9  O12       15.0420   36.9090   -7.9430 O.2   901  ZOL901     -0.4572
     10  O13       13.6410   34.5000   -8.7870 O.3   901  ZOL901     -0.2088
     11  C7        14.9210   33.0430   -7.3350 C.3   901  ZOL901      0.1520
     12  N15       14.5910   31.7640   -7.9840 N.ar  901  ZOL901     -0.3043
     13  C16       13.7130   31.5570   -8.9780 C.ar  901  ZOL901      0.1787
     14  N17       13.7180   30.2550   -9.2930 N.ar  901  ZOL901     -0.2223
     15  C18       14.5700   29.6330   -8.4590 C.ar  901  ZOL901      0.1193
     16  C19       15.1240   30.5850   -7.6440 C.ar  901  ZOL901      0.0981
@<TRIPOS>BOND
     1     3     2    2
     2     4     2    1
     3     2     1    1
     4     2     5    1
     5    14    13   ar
     6    14    15   ar
     7    13    12   ar
     8    10     5    1
     9    15    16   ar
    10     5    11    1
    11     5     6    1
    12    12    16   ar
    13    12    11    1
    14     9     6    2
    15     6     8    1
    16     6     7    1
