@<TRIPOS>MOLECULE
1zw6_GNP_A_1.pdb
 32 34 0 0 0
SMALL
GASTEIGER

@<TRIPOS>ATOM
      1  PG        34.1870  -12.2430   67.3460 P.3   268  GNP268      0.4884
      2  O1G       35.2440  -12.6540   68.3900 O.3   268  GNP268     -0.1240
      3  O2G       33.3390  -11.0820   67.7420 O.3   268  GNP268     -0.1240
      4  O3G       33.3930  -13.4860   66.9770 O.2   268  GNP268     -0.2331
      5  N3B       35.1080  -11.7920   66.0300 N.3   268  GNP268     -0.0163
      6  PB        34.6490  -11.0490   64.6760 P.3   268  GNP268      0.4669
      7  O1B       34.2870  -12.0700   63.6500 O.2   268  GNP268     -0.2351
      8  O2B       33.5970  -10.0480   65.0070 O.3   268  GNP268     -0.1253
      9  O3A       35.9300  -10.2680   64.1650 O.3   268  GNP268     -0.2360
     10  PA        36.1960   -8.7020   64.0830 P.3   268  GNP268      0.2220
     11  O1A       35.2240   -8.0950   63.1540 O.2   268  GNP268     -0.5170
     12  O2A       36.4080   -8.1860   65.4700 O.3   268  GNP268     -0.4370
     13  O5'       37.5750   -8.6950   63.2890 O.3   268  GNP268     -0.3111
     14  C5'       38.7050   -9.3690   63.8080 C.3   268  GNP268      0.1813
     15  C4'       39.9760   -8.7070   63.3250 C.3   268  GNP268      0.1799
     16  O4'       40.0760   -8.8940   61.8850 O.3   268  GNP268     -0.3326
     17  C3'       40.0960   -7.2040   63.5780 C.3   268  GNP268      0.2158
     18  O3'       41.4370   -6.8530   63.8880 O.3   268  GNP268     -0.2175
     19  C2'       39.6820   -6.6040   62.2350 C.3   268  GNP268      0.2310
     20  O2'       40.2680   -5.3590   61.9640 O.3   268  GNP268     -0.2158
     21  C1'       40.1680   -7.6510   61.2400 C.3   268  GNP268      0.2293
     22  N9        39.4070   -7.6820   60.0110 N.pl3 268  GNP268     -0.2354
     23  C8        38.0480   -7.8800   59.9050 C.3   268  GNP268      0.2246
     24  N7        37.5970   -7.8370   58.6770 N.2   268  GNP268     -0.2322
     25  C5        38.7540   -7.6150   57.9260 C.2   268  GNP268      0.2182
     26  C6        38.9200   -7.4930   56.5110 C.1   268  GNP268      0.2372
     27  O6        38.0540   -7.5660   55.6250 O.2   268  GNP268     -0.2069
     28  N1        40.2500   -7.2990   56.1650 N.2   268  GNP268     -0.2485
     29  C2        41.3100   -7.1940   57.0540 C.1   268  GNP268      0.2531
     30  N2        42.5320   -6.9840   56.5210 N.pl3 268  GNP268     -0.0226
     31  N3        41.1810   -7.3110   58.3690 N.2   268  GNP268     -0.3074
     32  C4        39.8820   -7.5100   58.7300 C.2   268  GNP268      0.2300
@<TRIPOS>BOND
     1    27    26    2
     2    28    26    2
     3    28    29    2
     4    26    25    1
     5    30    29    1
     6    29    31    2
     7    25    24    2
     8    25    32    1
     9    31    32    2
    10    24    23    1
    11    32    22    1
    12    23    22    1
    13    22    21    1
    14    21    16    1
    15    21    19    1
    16    16    15    1
    17    20    19    1
    18    19    17    1
    19    11    10    2
    20    13    14    1
    21    13    10    1
    22    15    17    1
    23    15    14    1
    24    17    18    1
    25     7     6    2
    26    10     9    1
    27    10    12    1
    28     9     6    1
    29     6     8    1
    30     6     5    1
    31     5     1    1
    32     4     1    2
    33     1     3    1
    34     1     2    1
