@<TRIPOS>MOLECULE
1zw9_H64_A_1.pdb
 28 31 0 0 0
SMALL
GASTEIGER

@<TRIPOS>ATOM
      1  C97       47.3100   37.8410   -6.3170 C.3   1001  H641001     0.0188
      2  C95       48.4710   37.4230   -7.2240 C.3   1001  H641001     0.0729
      3  C96       47.9830   37.1330   -8.6450 C.3   1001  H641001     0.0188
      4  N94       49.1330   36.2260   -6.6830 N.3   1001  H641001    -0.2193
      5  C93       50.0670   36.6130   -5.6150 C.3   1001  H641001     0.0929
      6  C92       50.9990   35.4460   -5.2840 C.3   1001  H641001     0.0701
      7  C91       52.0920   35.9120   -4.3190 C.3   1001  H641001     0.2120
      8  N9        53.0970   34.8560   -4.1220 N.pl3 1001  H641001    -0.1367
      9  C4        54.1730   34.6740   -4.8790 C.2   1001  H641001     0.3676
     10  N3        54.6530   35.2870   -5.9730 N.2   1001  H641001    -0.0039
     11  C2        55.7850   34.8880   -6.5260 C.3   1001  H641001     0.5255
     12  N1        56.4720   33.8770   -6.0210 N.2   1001  H641001     0.0030
     13  C6        56.0510   33.2170   -4.9310 C.2   1001  H641001     0.4517
     14  N6        56.7590   32.1980   -4.4500 N.pl3 1001  H641001     0.2193
     15  C5        54.8650   33.6070   -4.3190 C.2   1001  H641001     0.3070
     16  N7        54.1870   33.1830   -3.2540 N.2   1001  H641001    -0.3444
     17  C8        53.1090   33.9550   -3.1440 C.2   1001  H641001     0.3087
     18  S         51.9120   33.8360   -1.8710 S.3   1001  H641001    -0.0129
     19  C1'       52.2250   35.2930   -0.9480 C.ar  1001  H641001     0.0446
     20  C6'       53.5030   35.8430   -0.9140 C.ar  1001  H641001     0.0473
     21  C5'       53.7540   36.9980   -0.1770 C.ar  1001  H641001     0.1770
     22  O3'       54.8840   37.7210    0.0410 O.3   1001  H641001    -0.4346
     23  C'2       54.6230   38.3100    1.3220 C.3   1001  H641001     0.4294
     24  O1'       53.2440   38.6790    1.1840 O.3   1001  H641001    -0.4346
     25  C4'       52.7200   37.6040    0.5320 C.ar  1001  H641001     0.1769
     26  C3'       51.4420   37.0550    0.5020 C.ar  1001  H641001     0.0474
     27  C2'       51.1930   35.9010   -0.2370 C.ar  1001  H641001     0.0439
     28 BR         49.4490   35.1640   -0.2540 Br    1001  H641001    -0.0484
@<TRIPOS>BOND
     1     3     2    1
     2     2     4    1
     3     2     1    1
     4     4     5    1
     5    11    12    1
     6    11    10    1
     7    12    13    2
     8    10     9    2
     9     5     6    1
    10     6     7    1
    11    13    14    1
    12    13    15    1
    13     9    15    1
    14     9     8    1
    15    15    16    2
    16     7     8    1
    17     8    17    1
    18    16    17    2
    19    17    18    1
    20    18    19    1
    21    19    20   ar
    22    19    27   ar
    23    20    21   ar
    24    28    27    1
    25    27    26   ar
    26    21    22    1
    27    21    25   ar
    28    22    23    1
    29    26    25   ar
    30    25    24    1
    31    24    23    1
