@<TRIPOS>MOLECULE
1zwh_RDE_A_1.pdb
 12 12 0 0 0
SMALL
GASTEIGER

@<TRIPOS>ATOM
      1  OAQ       19.7790   -2.2300   -6.9670 O.co2 1001  RDE1001    -0.2404
      2  CAR       18.7410   -2.2440   -6.2740 C.2   1001  RDE1001     0.3909
      3  OAE       17.7270   -1.5570   -6.5240 O.co2 1001  RDE1001    -0.2404
      4  CAX       18.6870   -3.1780   -5.0620 C.ar  1001  RDE1001     0.1196
      5  CAK       17.7070   -2.9750   -4.0980 C.ar  1001  RDE1001     0.0244
      6  CAV       17.6340   -3.8100   -2.9850 C.ar  1001  RDE1001     0.0969
      7 CLAH       16.4200   -3.5180   -1.7870 Cl    1001  RDE1001    -0.0789
      8  CAT       18.5420   -4.8520   -2.8380 C.ar  1001  RDE1001     0.2093
      9  OAF       18.4660   -5.6790   -1.7600 O.3   1001  RDE1001    -0.2856
     10  CAI       19.5260   -5.0560   -3.8010 C.ar  1001  RDE1001     0.0851
     11  CAU       19.6010   -4.2200   -4.9120 C.ar  1001  RDE1001     0.2053
     12  OAG       20.5700   -4.4280   -5.8430 O.3   1001  RDE1001    -0.2862
@<TRIPOS>BOND
     1     1     2   ar
     2     3     2   ar
     3     2     4    1
     4    12    11    1
     5     4    11   ar
     6     4     5   ar
     7    11    10   ar
     8     5     6   ar
     9    10     8   ar
    10     6     8   ar
    11     6     7    1
    12     8     9    1
