@<TRIPOS>MOLECULE
1zwl_FMN_A_1.pdb
 31 33 0 0 0
SMALL
GASTEIGER

@<TRIPOS>ATOM
      1  N1         3.7380   22.9540   27.9890 N.2   199  FMN199     -0.2887
      2  C2         3.9490   23.1900   29.3320 C.1   199  FMN199      0.3669
      3  O2         3.6260   22.3260   30.1600 O.2   199  FMN199     -0.1744
      4  N3         4.5220   24.3970   29.7170 N.2   199  FMN199     -0.2300
      5  C4         4.8880   25.3540   28.7740 C.1   199  FMN199      0.2513
      6  O4         5.5510   26.3390   29.1280 O.2   199  FMN199     -0.2057
      7  C4A        4.6670   25.0860   27.4150 C.2   199  FMN199      0.2703
      8  N5         5.0260   25.9950   26.4320 N.2   199  FMN199     -0.3885
      9  C5A        4.7960   25.7020   25.0990 C.2   199  FMN199      0.1233
     10  C6         5.1510   26.6210   24.1210 C.3   199  FMN199      0.0606
     11  C7         4.9430   26.3580   22.7690 C.3   199  FMN199      0.0111
     12  C7M        5.8440   27.1120   21.8320 C.3   199  FMN199      0.0008
     13  C8         4.3430   25.1410   22.3880 C.3   199  FMN199      0.0238
     14  C8M        4.0620   24.7720   20.9530 C.3   199  FMN199      0.0047
     15  C9         3.9880   24.2290   23.3780 C.2   199  FMN199     -0.0093
     16  C9A        4.2060   24.4960   24.7320 C.2   199  FMN199      0.0750
     17  N10        3.8500   23.5830   25.7210 N.pl3 199  FMN199     -0.2548
     18  C10        4.0910   23.8750   27.0410 C.2   199  FMN199      0.2449
     19  C1'        3.0370   22.3600   25.4100 C.3   199  FMN199      0.1336
     20  C2'        1.5880   22.6980   25.0800 C.3   199  FMN199      0.2048
     21  O2'        0.9800   23.3150   26.1910 O.3   199  FMN199     -0.2185
     22  C3'        0.8520   21.4330   24.6230 C.3   199  FMN199      0.2165
     23  O3'        1.2920   21.1160   23.3130 O.3   199  FMN199     -0.2175
     24  C4'       -0.6670   21.6200   24.6060 C.3   199  FMN199      0.2147
     25  O4'       -1.2650   20.7470   25.5320 O.3   199  FMN199     -0.2176
     26  C5'       -1.2580   21.3400   23.2370 C.3   199  FMN199      0.1892
     27  O5'       -2.4450   22.0770   23.1020 O.3   199  FMN199     -0.2674
     28  P         -3.2770   21.9600   21.7290 P.3   199  FMN199      0.5327
     29  O1P       -3.2700   20.4890   21.3240 O.3   199  FMN199     -0.1145
     30  O2P       -4.7020   22.3990   21.9500 O.3   199  FMN199     -0.1145
     31  O3P       -2.6190   22.7840   20.6360 O.2   199  FMN199     -0.2224
@<TRIPOS>BOND
     1    31    28    2
     2    14    13    1
     3    29    28    1
     4    28    30    1
     5    28    27    1
     6    12    11    1
     7    13    11    1
     8    13    15    1
     9    11    10    1
    10    27    26    1
    11    26    24    1
    12    23    22    1
    13    15    16    2
    14    10     9    1
    15    24    22    1
    16    24    25    1
    17    22    20    1
    18    16     9    1
    19    16    17    1
    20    20    19    1
    21    20    21    1
    22     9     8    2
    23    19    17    1
    24    17    18    1
    25     8     7    2
    26    18     7    1
    27    18     1    2
    28     7     5    1
    29     1     2    2
    30     5     6    2
    31     5     4    2
    32     2     4    2
    33     2     3    2
