@<TRIPOS>MOLECULE
1zwp_NIM_A_1.pdb
 21 22 0 0 0
SMALL
GASTEIGER

@<TRIPOS>ATOM
      1  O4         8.1410   27.7780   -6.9650 O.2   401  NIM401     -0.1261
      2  N2         8.1570   26.5560   -6.8040 N.pl3 401  NIM401      0.0578
      3  O3         8.0500   26.1580   -5.6500 O.2   401  NIM401     -0.1261
      4  C5         8.2710   25.6740   -7.9090 C.ar  401  NIM401      0.1460
      5  C4         8.2060   24.2770   -7.8230 C.ar  401  NIM401      0.0257
      6  C3         8.3150   23.4770   -8.9690 C.ar  401  NIM401      0.0228
      7  C2         8.5430   24.0800  -10.2140 C.ar  401  NIM401      0.1251
      8  N1         8.4920   23.4960  -11.4270 N.pl3 401  NIM401     -0.0975
      9  S1         7.2690   22.5120  -11.7500 S.O2  401  NIM401      0.0751
     10  O1         7.3990   21.2210  -11.1070 O.2   401  NIM401     -0.1528
     11  O2         7.2090   22.3730  -13.1820 O.2   401  NIM401     -0.1528
     12  C1         5.9130   23.3120  -11.2360 C.3   401  NIM401      0.2016
     13  C6         8.4450   26.2430   -9.1680 C.ar  401  NIM401      0.0629
     14  C7         8.5590   25.4500  -10.3030 C.ar  401  NIM401      0.1635
     15  O5         8.7130   25.9910  -11.5540 O.3   401  NIM401     -0.4521
     16  C8         9.2750   27.2030  -11.7810 C.ar  401  NIM401      0.1454
     17  C13       10.5570   27.4740  -11.3250 C.ar  401  NIM401      0.0375
     18  C12       11.1050   28.7320  -11.5760 C.ar  401  NIM401      0.0031
     19  C11       10.3580   29.6920  -12.2730 C.ar  401  NIM401      0.0002
     20  C10        9.0760   29.3960  -12.7290 C.ar  401  NIM401      0.0031
     21  C9         8.5430   28.1400  -12.4810 C.ar  401  NIM401      0.0375
@<TRIPOS>BOND
     1    11     9    2
     2    20    21   ar
     3    20    19   ar
     4    21    16   ar
     5    19    18   ar
     6    16    15    1
     7    16    17   ar
     8     9     8    1
     9     9    12    1
    10     9    10    2
    11    18    17   ar
    12    15    14    1
    13     8     7    1
    14    14     7   ar
    15    14    13   ar
    16     7     6   ar
    17    13     4   ar
    18     6     5   ar
    19     4     5   ar
    20     4     2    1
    21     1     2    2
    22     2     3    2
