@<TRIPOS>MOLECULE
1zx1_CB1_A_1.pdb
 18 19 0 0 0
SMALL
GASTEIGER

@<TRIPOS>ATOM
      1  C        -31.6400   -7.4000  -16.3300 C.ar  233  CB1233      0.0496
      2  C1       -32.7510   -8.0230  -15.7500 C.ar  233  CB1233      0.1490
      3  C2       -33.7750   -7.2100  -15.2300 C.ar  233  CB1233      0.0804
      4  C4       -33.6600   -5.8240  -15.3060 C.ar  233  CB1233      0.0225
      5  C5       -32.5490   -5.2050  -15.8900 C.ar  233  CB1233      0.0709
      6  C8       -31.5240   -6.0010  -16.4100 C.ar  233  CB1233      0.1577
      7  N        -32.7580   -9.3700  -15.7370 N.pl3 233  CB1233      0.0579
      8  O1       -31.7040  -10.1150  -16.4150 O.2   233  CB1233     -0.1261
      9  O2       -33.7490  -10.1400  -15.0850 O.2   233  CB1233     -0.1261
     10  C3       -35.0590   -7.7390  -14.5880 C.2   233  CB1233      0.2858
     11  N1       -35.8940   -6.8150  -14.0880 N.am  233  CB1233     -0.0837
     12  O        -35.3400   -8.9290  -14.5950 O.2   233  CB1233     -0.2666
     13  N6       -32.4730   -3.8670  -15.9660 N.pl3 233  CB1233     -0.3028
     14  C7       -33.7570   -3.1400  -15.8200 C.3   233  CB1233      0.1123
     15  C9       -32.6900   -3.0880  -14.7270 C.3   233  CB1233      0.1123
     16  N3       -30.4480   -5.4710  -17.0110 N.pl3 233  CB1233      0.0590
     17  O3       -29.5100   -6.3010  -17.5950 O.2   233  CB1233     -0.1261
     18  O4       -30.2180   -4.1050  -17.1530 O.2   233  CB1233     -0.1261
@<TRIPOS>BOND
     1    17    16    2
     2    18    16    2
     3    16     6    1
     4     8     7    2
     5     6     1   ar
     6     6     5   ar
     7     1     2   ar
     8    13     5    1
     9    13    14    1
    10    13    15    1
    11     5     4   ar
    12    14    15    1
    13     2     7    1
    14     2     3   ar
    15     7     9    2
    16     4     3   ar
    17     3    10    1
    18    12    10    2
    19    10    11   am
