@<TRIPOS>MOLECULE
1zx5_LFR_A_1.pdb
 12 12 0 0 0
SMALL
GASTEIGER

@<TRIPOS>ATOM
      1  C1        65.8910   92.6880   57.9380 C.3   600  LFR600      0.2434
      2  C2        65.0430   93.3580   56.8410 C.3   600  LFR600      0.2807
      3  C3        64.4360   92.2980   55.9160 C.3   600  LFR600      0.2409
      4  C4        62.9340   92.3670   56.0800 C.3   600  LFR600      0.2168
      5  C5        62.6660   93.4760   57.0930 C.3   600  LFR600      0.1836
      6  C6        61.7580   94.5590   56.5100 C.3   600  LFR600      0.2142
      7  O1        67.2910   92.9980   57.8710 O.3   600  LFR600     -0.2148
      8  O2        65.8030   94.3120   56.0630 O.3   600  LFR600     -0.1896
      9  O3        64.7190   92.5480   54.5430 O.3   600  LFR600     -0.2149
     10  O4        62.4870   91.0980   56.5650 O.3   600  LFR600     -0.2175
     11  O5        63.9390   94.0230   57.4870 O.3   600  LFR600     -0.3253
     12  O6        61.1220   95.3600   57.5200 O.3   600  LFR600     -0.2176
@<TRIPOS>BOND
     1     9     3    1
     2     3     4    1
     3     3     2    1
     4     8     2    1
     5     4    10    1
     6     4     5    1
     7     6     5    1
     8     6    12    1
     9     2    11    1
    10     2     1    1
    11     5    11    1
    12     7     1    1
