@<TRIPOS>MOLECULE
1zxb_NAD_A_1.pdb
 44 48 0 0 0
SMALL
GASTEIGER

@<TRIPOS>ATOM
      1  PA        50.8660   88.4950   40.6570 P.3   450  NAD450      0.2189
      2  O1A       52.3780   88.3850   40.6480 O.2   450  NAD450     -0.5170
      3  O2A       50.1020   88.6930   41.9400 O.3   450  NAD450     -0.4371
      4  O5B       50.1990   87.1670   40.0710 O.3   450  NAD450     -0.3112
      5  C5B       50.5710   86.7140   38.7890 C.3   450  NAD450      0.1813
      6  C4B       50.8840   85.2690   39.0300 C.3   450  NAD450      0.1821
      7  O4B       50.8940   84.5520   37.8040 O.3   450  NAD450     -0.3135
      8  C3B       52.2670   85.1040   39.6580 C.3   450  NAD450      0.2184
      9  O3B       52.1540   84.5560   40.9810 O.3   450  NAD450     -0.2174
     10  C2B       52.9450   84.1080   38.7470 C.3   450  NAD450      0.2570
     11  O2B       53.6810   83.1160   39.4610 O.3   450  NAD450     -0.2130
     12  C1B       51.7180   83.4530   38.1640 C.3   450  NAD450      0.3186
     13  N9A       52.0730   82.4750   37.1170 N.pl3 450  NAD450     -0.1439
     14  C8A       52.8060   82.6830   35.9960 C.3   450  NAD450      0.3377
     15  N7A       52.9310   81.5200   35.2980 N.2   450  NAD450     -0.2095
     16  C5A       52.2730   80.5580   35.9890 C.2   450  NAD450      0.2526
     17  C6A       52.0390   79.2060   35.8120 C.2   450  NAD450      0.4393
     18  N6A       52.5390   78.6050   34.7130 N.pl3 450  NAD450      0.2180
     19  N1A       51.3080   78.5260   36.7430 N.2   450  NAD450      0.0021
     20  C2A       50.8020   79.1320   37.8490 C.3   450  NAD450      0.5254
     21  N3A       50.9930   80.4490   38.0900 N.2   450  NAD450     -0.0055
     22  C4A       51.7090   81.1950   37.1970 C.2   450  NAD450      0.3518
     23  O3        50.4870   89.6790   39.6000 O.3   450  NAD450     -0.2703
     24  PN        48.9920   90.2300   39.2550 P.3   450  NAD450      0.2189
     25  O1N       48.1760   90.2480   40.5180 O.3   450  NAD450     -0.4371
     26  O2N       49.1270   91.4850   38.4400 O.2   450  NAD450     -0.5170
     27  O5D       48.4170   89.0950   38.2650 O.3   450  NAD450     -0.3112
     28  C5D       47.0640   88.6620   38.3460 C.3   450  NAD450      0.1813
     29  C4D       46.3820   88.8760   36.9990 C.3   450  NAD450      0.1799
     30  O4D       45.9390   90.2320   36.8660 O.3   450  NAD450     -0.3327
     31  C3D       47.3340   88.6350   35.8480 C.3   450  NAD450      0.2158
     32  O3D       46.6850   87.8440   34.8670 O.3   450  NAD450     -0.2175
     33  C2D       47.5890   90.0160   35.2810 C.3   450  NAD450      0.2309
     34  O2D       47.9030   89.8990   33.8980 O.3   450  NAD450     -0.2158
     35  C1D       46.2900   90.7390   35.5700 C.3   450  NAD450      0.2263
     36  N1N       46.3410   92.2040   35.6320 N.pl3 450  NAD450     -0.2787
     37  C2N       47.1020   92.8490   36.5410 C.3   450  NAD450      0.1244
     38  C3N       47.1210   94.2430   36.6180 C.2   450  NAD450      0.0544
     39  C7N       47.9890   94.9450   37.6140 C.2   450  NAD450      0.2818
     40  O7N       48.3560   96.2110   37.4180 O.2   450  NAD450     -0.2670
     41  N7N       48.3950   94.3430   38.6390 N.am  450  NAD450     -0.0839
     42  C4N       46.3250   94.9800   35.7530 C.2   450  NAD450      0.0033
     43  C5N       45.5380   94.3030   34.8290 C.2   450  NAD450      0.0157
     44  C6N       45.5600   92.9080   34.7990 C.2   450  NAD450      0.0633
@<TRIPOS>BOND
     1    34    33    1
     2    18    17    1
     3    44    43    2
     4    44    36    1
     5    43    42    1
     6    32    31    1
     7    33    35    1
     8    33    31    1
     9    15    16    2
    10    15    14    1
    11    35    36    1
    12    35    30    1
    13    36    37    1
    14    42    38    2
    15    17    16    1
    16    17    19    2
    17    31    29    1
    18    16    22    1
    19    14    13    1
    20    37    38    1
    21    38    39    1
    22    19    20    1
    23    30    29    1
    24    29    28    1
    25    13    22    1
    26    13    12    1
    27    22    21    2
    28    40    39    2
    29    39    41   am
    30     7    12    1
    31     7     6    1
    32    20    21    1
    33    12    10    1
    34    27    28    1
    35    27    24    1
    36    26    24    2
    37    10    11    1
    38    10     8    1
    39     5     6    1
    40     5     4    1
    41     6     8    1
    42    24    23    1
    43    24    25    1
    44    23     1    1
    45     8     9    1
    46     4     1    1
    47     2     1    2
    48     1     3    1
