@<TRIPOS>MOLECULE
1zxb_TN3_A_1.pdb
 20 21 0 0 0
SMALL
GASTEIGER

@<TRIPOS>ATOM
      1 CL21       50.8040   88.6740   35.8920 Cl    500  TN3500     -0.0791
      2  C14       51.9720   89.5940   34.9060 C.ar  500  TN3500      0.0922
      3  C13       53.2070   89.0680   34.5880 C.ar  500  TN3500      0.0190
      4  C10       54.1160   89.8040   33.8200 C.ar  500  TN3500      0.0561
      5  C11       55.4250   89.1500   33.5270 C.2   500  TN3500      0.2649
      6  O13       55.5960   88.0370   33.9620 O.2   500  TN3500     -0.2684
      7  N20       56.3950   89.6970   32.8410 N.am  500  TN3500     -0.1998
      8  C12       57.6410   88.9900   32.5940 C.3   500  TN3500      0.1388
      9  C9        53.7930   91.0700   33.3660 C.ar  500  TN3500      0.0078
     10  C8        52.5440   91.5840   33.6990 C.ar  500  TN3500      0.0385
     11  C7        51.6320   90.8470   34.4710 C.ar  500  TN3500      0.1559
     12  O9        50.3860   91.3240   34.8300 O.3   500  TN3500     -0.4494
     13  C5        50.0690   92.6590   34.6810 C.ar  500  TN3500      0.1840
     14  C6        49.1820   93.0350   33.6810 C.ar  500  TN3500      0.2307
     15  O8        48.6270   92.1040   32.8600 O.3   500  TN3500     -0.2833
     16  C1        48.8520   94.3710   33.5100 C.ar  500  TN3500      0.0566
     17  C4        50.6430   93.6350   35.5090 C.ar  500  TN3500      0.0417
     18  C3        50.3220   94.9800   35.3290 C.ar  500  TN3500      0.0147
     19  C2        49.4170   95.3370   34.3280 C.ar  500  TN3500      0.0611
     20 CL12       48.9920   97.0460   34.0260 Cl    500  TN3500     -0.0821
@<TRIPOS>BOND
     1     8     7    1
     2     7     5   am
     3    15    14    1
     4     9    10   ar
     5     9     4   ar
     6    16    14   ar
     7    16    19   ar
     8     5     4    1
     9     5     6    2
    10    14    13   ar
    11    10    11   ar
    12     4     3   ar
    13    20    19    1
    14    19    18   ar
    15    11    12    1
    16    11     2   ar
    17     3     2   ar
    18    13    12    1
    19    13    17   ar
    20     2     1    1
    21    18    17   ar
