@<TRIPOS>MOLECULE
1zxc_IH6_A_1.pdb
 26 27 0 0 0
SMALL
GASTEIGER

@<TRIPOS>ATOM
      1  C1        -2.0730    9.4130  119.8650 C.3   478  IH6478      0.0901
      2  C2        -2.2670    9.0230  118.4700 C.1   478  IH6478     -0.0864
      3  C3        -2.3500    8.6810  117.3190 C.1   478  IH6478     -0.0439
      4  C4        -2.4220    8.3100  115.8970 C.3   478  IH6478      0.2811
      5  O1        -2.1250    9.4240  115.0330 O.3   478  IH6478     -0.4612
      6  C5        -2.9450   10.5160  114.8820 C.ar  478  IH6478      0.1401
      7  C6        -4.2890   10.3680  115.2640 C.ar  478  IH6478      0.0383
      8  C7        -5.1850   11.4320  115.1670 C.ar  478  IH6478      0.0230
      9  C8        -4.7310   12.6350  114.6410 C.ar  478  IH6478      0.1224
     10  C9        -3.3920   12.8190  114.2720 C.ar  478  IH6478      0.0230
     11  C10       -2.5030   11.7470  114.3770 C.ar  478  IH6478      0.0383
     12  S1        -5.8070   14.0280  114.5540 S.O2  478  IH6478      0.0636
     13  O2        -4.9460   15.1790  114.5730 O.2   478  IH6478     -0.1528
     14  O3        -6.6660   13.8100  115.7130 O.2   478  IH6478     -0.1528
     15  N1        -6.8700   14.1090  113.1720 N.3   478  IH6478     -0.1492
     16  C11       -7.9780   13.0970  113.0900 C.3   478  IH6478      0.1078
     17  C12       -9.1880   13.6760  112.3470 C.3   478  IH6478      0.0767
     18  S2        -8.7490   14.2060  110.6630 S.3   478  IH6478     -0.1386
     19  C13       -7.3930   15.3960  111.0520 C.3   478  IH6478      0.0601
     20  C14       -6.2940   14.6780  111.8940 C.3   478  IH6478      0.1334
     21  C15       -5.5190   13.6030  111.1310 C.2   478  IH6478      0.1037
     22  O4        -5.9900   12.5150  110.8490 O.2   478  IH6478     -0.5381
     23  N2        -4.2430   13.9760  110.7830 N.am  478  IH6478     -0.2015
     24  O5        -3.5240   13.0310  110.0660 O.3   478  IH6478     -0.4026
     25  C16       -8.0160   16.6260  111.7470 C.3   478  IH6478      0.0127
     26  C17       -6.7780   15.8940  109.7250 C.3   478  IH6478      0.0127
@<TRIPOS>BOND
     1    26    19    1
     2    24    23    1
     3    18    19    1
     4    18    17    1
     5    23    21   am
     6    22    21    2
     7    19    25    1
     8    19    20    1
     9    21    20    1
    10    20    15    1
    11    17    16    1
    12    16    15    1
    13    15    12    1
    14    10    11   ar
    15    10     9   ar
    16    11     6   ar
    17    12    13    2
    18    12     9    1
    19    12    14    2
    20     9     8   ar
    21     6     5    1
    22     6     7   ar
    23     5     4    1
    24     8     7   ar
    25     4     3    1
    26     3     2    3
    27     2     1    1
