@<TRIPOS>MOLECULE
1zxi_MCN_B_1.pdb
 44 48 0 0 0
SMALL
GASTEIGER

@<TRIPOS>ATOM
      1  N1        84.9390  145.8290  155.2250 N.am  3921  MCN3921    -0.1778
      2  C2        83.7370  145.7570  155.9920 C.1   3921  MCN3921     0.2756
      3  N3        83.7050  144.6620  156.8310 N.2   3921  MCN3921    -0.3024
      4  C4        84.6740  143.6780  156.9290 C.2   3921  MCN3921     0.2346
      5  C5        85.8660  143.7800  156.0620 C.2   3921  MCN3921     0.0687
      6  C6        86.0060  144.8500  155.2410 C.2   3921  MCN3921     0.0836
      7  O2        82.8280  146.5340  155.8030 O.2   3921  MCN3921    -0.1925
      8  N4        84.5650  142.6970  157.7880 N.pl3 3921  MCN3921    -0.0921
      9  C1'       85.1640  147.1110  154.3970 C.3   3921  MCN3921     0.2400
     10  C2D       86.3830  147.9280  155.0780 C.3   3921  MCN3921     0.2319
     11  O2'       85.8260  148.6810  156.1850 O.3   3921  MCN3921    -0.2157
     12  C3'       86.9960  148.6800  153.8510 C.3   3921  MCN3921     0.2158
     13  C4D       86.7900  147.6970  152.7140 C.3   3921  MCN3921     0.1799
     14  O4D       85.6800  146.7760  153.1120 O.3   3921  MCN3921    -0.3320
     15  O3'       86.1990  149.9160  153.6670 O.3   3921  MCN3921    -0.2175
     16  C5'       88.0660  146.8020  152.4560 C.3   3921  MCN3921     0.1813
     17  O5'       88.6050  146.4420  153.7580 O.3   3921  MCN3921    -0.3112
     18  PA        89.7270  145.3190  153.8920 P.3   3921  MCN3921     0.2189
     19  O1A       90.2980  145.4400  155.2740 O.3   3921  MCN3921    -0.4371
     20  O2A       89.1830  143.9810  153.4160 O.2   3921  MCN3921    -0.5170
     21  O3A       90.8240  145.6400  152.7420 O.3   3921  MCN3921    -0.2703
     22  PB        91.7890  146.9150  152.5760 P.3   3921  MCN3921     0.2189
     23  O1B       93.0790  146.6470  153.3030 O.3   3921  MCN3921    -0.4371
     24  O2B       90.9730  148.1460  152.8350 O.2   3921  MCN3921    -0.5170
     25  O3B       92.0020  146.8480  150.9810 O.3   3921  MCN3921    -0.3109
     26  C10       93.1520  146.2430  150.3950 C.3   3921  MCN3921     0.1837
     27  C9'       92.5820  145.3230  149.3470 C.3   3921  MCN3921     0.1762
     28  C8'       93.7180  144.8870  148.4180 C.2   3921  MCN3921     0.0473
     29  S8'       95.1960  144.2410  149.1990 S.3   3921  MCN3921    -0.0526
     30  C7'       93.6780  144.8910  147.0750 C.2   3921  MCN3921     0.0449
     31  S7'       95.0170  144.3700  146.0400 S.3   3921  MCN3921    -0.0530
     32  C6'       92.4330  145.4820  146.3290 C.3   3921  MCN3921     0.1850
     33  C7        91.2960  145.4560  147.2680 C.3   3921  MCN3921     0.2573
     34  O9'       91.6370  146.0800  148.5010 O.3   3921  MCN3921    -0.3271
     35  N5'       92.9350  146.8910  145.9320 N.2   3921  MCN3921    -0.2411
     36  C4A       91.7650  147.6850  145.6650 C.2   3921  MCN3921     0.2467
     37  N8'       90.1430  146.1750  146.6760 N.2   3921  MCN3921    -0.1763
     38  C4B       90.4230  147.3540  145.9470 C.1   3921  MCN3921     0.1293
     39  N1'       89.2860  148.1600  145.6780 N.2   3921  MCN3921    -0.2682
     40  C2'       89.5880  149.3390  145.0950 C.1   3921  MCN3921     0.2608
     41  N2'       88.5750  150.1690  144.7920 N.pl3 3921  MCN3921    -0.0220
     42  N3'       90.8700  149.7420  144.8260 N.2   3921  MCN3921    -0.2474
     43  C4'       92.0550  148.9930  145.0830 C.1   3921  MCN3921     0.2441
     44  O4'       93.1340  149.4430  144.8070 O.2   3921  MCN3921    -0.2063
@<TRIPOS>BOND
     1    41    40    1
     2    44    43    2
     3    42    43    2
     4    42    40    2
     5    43    36    1
     6    40    39    2
     7    36    35    2
     8    36    38    1
     9    39    38    2
    10    35    32    1
    11    38    37    2
    12    31    30    1
    13    32    30    1
    14    32    33    1
    15    37    33    1
    16    30    28    2
    17    33    34    1
    18    28    29    1
    19    28    27    1
    20    34    27    1
    21    27    26    1
    22    26    25    1
    23    25    22    1
    24    16    13    1
    25    16    17    1
    26    22    21    1
    27    22    24    2
    28    22    23    1
    29    13    14    1
    30    13    12    1
    31    21    18    1
    32    14     9    1
    33    20    18    2
    34    15    12    1
    35    17    18    1
    36    12    10    1
    37    18    19    1
    38     9    10    1
    39     9     1    1
    40    10    11    1
    41     1     6    1
    42     1     2   am
    43     6     5    2
    44     7     2    2
    45     2     3    2
    46     5     4    1
    47     3     4    2
    48     4     8    1
