@<TRIPOS>MOLECULE
1zxl_JP1_A_1.pdb
 25 27 0 0 0
SMALL
GASTEIGER

@<TRIPOS>ATOM
      1  C2        50.5090   92.7210   34.3140 C.ar  500  JP1500      0.1840
      2  C3        51.1650   93.7070   35.0720 C.ar  500  JP1500      0.0417
      3  C4        50.8310   95.0580   34.9620 C.ar  500  JP1500      0.0147
      4  C5        49.8170   95.4300   34.0970 C.ar  500  JP1500      0.0611
      5  C10       52.1270   90.9230   34.1070 C.ar  500  JP1500      0.1560
      6  C11       52.5610   89.7350   34.6590 C.ar  500  JP1500      0.0934
      7  C12       53.8400   89.2170   34.4290 C.ar  500  JP1500      0.0311
      8  C15       52.9900   91.6230   33.2780 C.ar  500  JP1500      0.0397
      9  C19       56.4770   88.3340   33.2050 C.2   500  JP1500      0.3276
     10  C23       59.4960   86.5700   33.0630 C.3   500  JP1500      0.1637
     11  C25       60.0840   88.7760   33.8230 C.3   500  JP1500      0.1637
     12  C26       58.6350   89.2650   33.9440 C.3   500  JP1500      0.1271
     13  O20       55.8170   87.4370   32.7170 O.2   500  JP1500     -0.2504
     14  N21       57.7310   88.1400   33.6640 N.am  500  JP1500     -0.2574
     15  O24       60.1990   87.7910   32.7940 O.3   500  JP1500     -0.3501
     16  C22       58.2760   86.8070   33.9540 C.3   500  JP1500      0.1271
     17  N17       55.9720   89.5630   33.2900 N.am  500  JP1500     -0.1622
     18  C13       54.7020   89.9290   33.5970 C.ar  500  JP1500      0.0760
     19 CL16       51.3720   88.9100   35.6970 Cl    500  JP1500     -0.0790
     20  C14       54.2610   91.1250   33.0400 C.ar  500  JP1500      0.0198
     21  O9        50.8480   91.3770   34.3990 O.3   500  JP1500     -0.4494
     22  C1        49.4980   93.1260   33.4470 C.ar  500  JP1500      0.2307
     23  O7        48.8170   92.2300   32.6790 O.3   500  JP1500     -0.2833
     24  C6        49.1610   94.4700   33.3490 C.ar  500  JP1500      0.0566
     25 CL27       49.3000   97.1290   33.8960 Cl    500  JP1500     -0.0821
@<TRIPOS>BOND
     1    23    22    1
     2    13     9    2
     3    15    10    1
     4    15    11    1
     5    20     8   ar
     6    20    18   ar
     7    10    16    1
     8     9    17   am
     9     9    14   am
    10     8     5   ar
    11    17    18    1
    12    24    22   ar
    13    24     4   ar
    14    22     1   ar
    15    18     7   ar
    16    14    12    1
    17    14    16    1
    18    11    12    1
    19    25     4    1
    20     4     3   ar
    21     5    21    1
    22     5     6   ar
    23     1    21    1
    24     1     2   ar
    25     7     6   ar
    26     6    19    1
    27     3     2   ar
