@<TRIPOS>MOLECULE
1zxl_NAD_A_1.pdb
 44 48 0 0 0
SMALL
GASTEIGER

@<TRIPOS>ATOM
      1  PA        51.5280   88.2400   40.2340 P.3   450  NAD450      0.2189
      2  O1A       53.0530   88.2000   40.2680 O.2   450  NAD450     -0.5170
      3  O2A       50.7400   87.9480   41.4870 O.3   450  NAD450     -0.4371
      4  O5B       50.9340   87.1570   39.2030 O.3   450  NAD450     -0.3112
      5  C5B       51.7510   86.3260   38.4100 C.3   450  NAD450      0.1813
      6  C4B       51.6680   84.9970   39.1080 C.3   450  NAD450      0.1821
      7  O4B       51.5560   83.9730   38.1310 O.3   450  NAD450     -0.3135
      8  C3B       52.9710   84.7830   39.8680 C.3   450  NAD450      0.2184
      9  O3B       52.6770   84.1700   41.1360 O.3   450  NAD450     -0.2174
     10  C2B       53.7680   83.8240   39.0150 C.3   450  NAD450      0.2570
     11  O2B       54.6420   83.0600   39.8700 O.3   450  NAD450     -0.2130
     12  C1B       52.6010   83.0320   38.4130 C.3   450  NAD450      0.3186
     13  N9A       52.9110   82.1730   37.2430 N.pl3 450  NAD450     -0.1439
     14  C8A       53.5850   82.4880   36.1200 C.3   450  NAD450      0.3377
     15  N7A       53.6410   81.4080   35.2950 N.2   450  NAD450     -0.2095
     16  C5A       52.9960   80.3830   35.9000 C.2   450  NAD450      0.2526
     17  C6A       52.7140   79.0630   35.6060 C.2   450  NAD450      0.4393
     18  N6A       53.1220   78.5140   34.4500 N.pl3 450  NAD450      0.2180
     19  N1A       52.0140   78.3300   36.4910 N.2   450  NAD450      0.0021
     20  C2A       51.5750   78.8220   37.6630 C.3   450  NAD450      0.5254
     21  N3A       51.8080   80.0880   38.0260 N.2   450  NAD450     -0.0055
     22  C4A       52.5080   80.9010   37.1860 C.2   450  NAD450      0.3518
     23  O3        50.9920   89.6360   39.5610 O.3   450  NAD450     -0.2703
     24  PN        49.4290   90.0820   39.3020 P.3   450  NAD450      0.2189
     25  O1N       49.4710   91.5170   38.8040 O.2   450  NAD450     -0.5170
     26  O2N       48.6010   89.6230   40.4960 O.3   450  NAD450     -0.4371
     27  O5D       48.9070   89.2330   38.0350 O.3   450  NAD450     -0.3112
     28  C5D       47.6650   88.5260   38.1100 C.3   450  NAD450      0.1813
     29  C4D       46.8670   88.7210   36.8230 C.3   450  NAD450      0.1799
     30  O4D       46.3220   90.0540   36.7650 O.3   450  NAD450     -0.3327
     31  C3D       47.7300   88.5340   35.5760 C.3   450  NAD450      0.2158
     32  O3D       47.0440   87.7100   34.6320 O.3   450  NAD450     -0.2175
     33  C2D       47.8860   89.9280   35.0060 C.3   450  NAD450      0.2309
     34  O2D       48.0260   89.8010   33.5930 O.3   450  NAD450     -0.2158
     35  C1D       46.6170   90.6550   35.4850 C.3   450  NAD450      0.2263
     36  N1N       46.6800   92.1320   35.6270 N.pl3 450  NAD450     -0.2787
     37  C2N       47.5420   92.7420   36.4750 C.3   450  NAD450      0.1244
     38  C3N       47.5840   94.1410   36.6160 C.2   450  NAD450      0.0544
     39  C7N       48.5600   94.8410   37.5520 C.2   450  NAD450      0.2818
     40  O7N       49.2180   95.9240   37.1370 O.2   450  NAD450     -0.2670
     41  N7N       48.7860   94.4400   38.7350 N.am  450  NAD450     -0.0839
     42  C4N       46.6990   94.8940   35.8550 C.2   450  NAD450      0.0033
     43  C5N       45.8170   94.2570   34.9840 C.2   450  NAD450      0.0157
     44  C6N       45.8250   92.8700   34.8990 C.2   450  NAD450      0.0633
@<TRIPOS>BOND
     1    34    33    1
     2    18    17    1
     3    32    31    1
     4    44    43    2
     5    44    36    1
     6    43    42    1
     7    33    35    1
     8    33    31    1
     9    15    16    2
    10    15    14    1
    11    35    36    1
    12    35    30    1
    13    31    29    1
    14    17    16    1
    15    17    19    2
    16    36    37    1
    17    42    38    2
    18    16    22    1
    19    14    13    1
    20    37    38    1
    21    19    20    1
    22    38    39    1
    23    30    29    1
    24    29    28    1
    25    40    39    2
    26    22    13    1
    27    22    21    2
    28    13    12    1
    29    39    41   am
    30    20    21    1
    31    27    28    1
    32    27    24    1
    33     7    12    1
    34     7     6    1
    35     5     6    1
    36     5     4    1
    37    12    10    1
    38    25    24    2
    39    10     8    1
    40    10    11    1
    41     6     8    1
    42     4     1    1
    43    24    23    1
    44    24    26    1
    45    23     1    1
    46     8     9    1
    47     1     2    2
    48     1     3    1
