@<TRIPOS>MOLECULE
1zxm_ANP_A_1.pdb
 31 33 0 0 0
SMALL
GASTEIGER

@<TRIPOS>ATOM
      1  PG        41.1300    0.5840   33.9090 P.3   901  ANP901      0.4884
      2  O1G       39.7440    0.9680   33.4790 O.3   901  ANP901     -0.1240
      3  O2G       41.9060   -0.1840   32.7550 O.2   901  ANP901     -0.2331
      4  O3G       42.0240    1.8590   34.2500 O.3   901  ANP901     -0.1240
      5  PB        39.9030   -0.3920   36.1900 P.3   901  ANP901      0.4669
      6  O1B       38.6340   -0.5980   35.4610 O.2   901  ANP901     -0.2351
      7  O2B       40.1480   -1.4050   37.2610 O.3   901  ANP901     -0.1253
      8  N3B       41.1930   -0.4640   35.1920 N.3   901  ANP901     -0.0163
      9  PA        38.9110    2.0630   37.1750 P.3   901  ANP901      0.2220
     10  O1A       37.7960    1.9120   36.2340 O.2   901  ANP901     -0.5170
     11  O2A       39.4890    3.4180   37.2420 O.3   901  ANP901     -0.4370
     12  O3A       40.1000    1.0870   36.7890 O.3   901  ANP901     -0.2360
     13  O5'       38.6940    1.6200   38.7130 O.3   901  ANP901     -0.3111
     14  C5'       37.4420    1.5600   39.1600 C.3   901  ANP901      0.1813
     15  C4'       37.0700    0.2690   39.8320 C.3   901  ANP901      0.1821
     16  O4'       35.7110    0.4520   40.0290 O.3   901  ANP901     -0.3135
     17  C3'       37.1750   -1.0690   39.1130 C.3   901  ANP901      0.2184
     18  O3'       38.4910   -1.6300   39.2770 O.3   901  ANP901     -0.2174
     19  C2'       36.0660   -1.8470   39.8400 C.3   901  ANP901      0.2570
     20  O2'       36.5820   -2.6640   40.9220 O.3   901  ANP901     -0.2130
     21  C1'       35.0980   -0.7620   40.3890 C.3   901  ANP901      0.3186
     22  N9        33.8410   -0.5830   39.5740 N.pl3 901  ANP901     -0.1439
     23  C8        33.7710    0.3380   38.5650 C.3   901  ANP901      0.3377
     24  N7        32.6050    0.3500   37.9730 N.2   901  ANP901     -0.2095
     25  C5        31.8900   -0.5660   38.5760 C.2   901  ANP901      0.2526
     26  C6        30.5900   -1.0030   38.3910 C.2   901  ANP901      0.4393
     27  N6        29.8410   -0.4510   37.4370 N.pl3 901  ANP901      0.2180
     28  N1        30.0780   -2.0370   39.2140 N.2   901  ANP901      0.0021
     29  C2        30.8950   -2.6180   40.2310 C.3   901  ANP901      0.5254
     30  N3        32.1380   -2.1620   40.3760 N.2   901  ANP901     -0.0055
     31  C4        32.6650   -1.1790   39.6040 C.2   901  ANP901      0.3518
@<TRIPOS>BOND
     1     3     1    2
     2     2     1    1
     3     1     4    1
     4     1     8    1
     5     8     5    1
     6     6     5    2
     7     5    12    1
     8     5     7    1
     9    10     9    2
    10    12     9    1
    11     9    11    1
    12     9    13    1
    13    27    26    1
    14    24    23    1
    15    24    25    2
    16    26    25    1
    17    26    28    2
    18    23    22    1
    19    25    31    1
    20    13    14    1
    21    17    18    1
    22    17    15    1
    23    17    19    1
    24    14    15    1
    25    28    29    1
    26    22    31    1
    27    22    21    1
    28    31    30    2
    29    15    16    1
    30    19    21    1
    31    19    20    1
    32    16    21    1
    33    29    30    1
