@<TRIPOS>MOLECULE
1zxn_ADP_A_1.pdb
 27 29 0 0 0
SMALL
GASTEIGER

@<TRIPOS>ATOM
      1  PB        53.5880   -2.9720   80.3260 P.3   901  ADP901      0.5373
      2  O1B       53.5640   -4.1690   81.1780 O.3   901  ADP901     -0.1143
      3  O2B       54.7480   -2.9000   79.4210 O.2   901  ADP901     -0.2221
      4  O3B       52.1990   -2.8930   79.5800 O.3   901  ADP901     -0.1143
      5  PA        52.6710   -0.5800   81.6350 P.3   901  ADP901      0.2231
      6  O1A       53.3910    0.6670   82.0380 O.3   901  ADP901     -0.4370
      7  O2A       51.7290   -0.4110   80.4820 O.2   901  ADP901     -0.5169
      8  O3A       53.7090   -1.7330   81.3280 O.3   901  ADP901     -0.2261
      9  O5'       52.0580   -1.0650   82.9770 O.3   901  ADP901     -0.3111
     10  C5'       51.3150   -2.2600   82.9190 C.3   901  ADP901      0.1813
     11  C4'       51.2570   -3.0300   84.2020 C.3   901  ADP901      0.1821
     12  O4'       50.0200   -2.6280   84.8240 O.3   901  ADP901     -0.3135
     13  C3'       51.1800   -4.5490   84.0240 C.3   901  ADP901      0.2184
     14  O3'       51.9200   -5.1760   85.1060 O.3   901  ADP901     -0.2174
     15  C2'       49.6740   -4.8240   83.9910 C.3   901  ADP901      0.2570
     16  O2'       49.3570   -6.0560   84.6360 O.3   901  ADP901     -0.2130
     17  C1'       49.0070   -3.6380   84.7190 C.3   901  ADP901      0.3186
     18  N9        47.8000   -3.0760   83.9500 N.pl3 901  ADP901     -0.1439
     19  C8        47.7570   -1.9970   83.1250 C.3   901  ADP901      0.3377
     20  N7        46.5650   -1.7460   82.5990 N.2   901  ADP901     -0.2095
     21  C5        45.7820   -2.7240   83.1140 C.2   901  ADP901      0.2526
     22  C6        44.3510   -3.0360   82.9380 C.2   901  ADP901      0.4393
     23  N6        43.5110   -2.3920   82.2080 N.pl3 901  ADP901      0.2180
     24  N1        43.9220   -4.1530   83.6600 N.2   901  ADP901      0.0021
     25  C2        44.7670   -4.9260   84.4860 C.3   901  ADP901      0.5254
     26  N3        46.0680   -4.6510   84.6490 N.2   901  ADP901     -0.0055
     27  C4        46.5320   -3.5670   83.9630 C.2   901  ADP901      0.3518
@<TRIPOS>BOND
     1     3     1    2
     2     4     1    1
     3     1     2    1
     4     1     8    1
     5     7     5    2
     6     8     5    1
     7     5     6    1
     8     5     9    1
     9    23    22    1
    10    20    21    2
    11    20    19    1
    12    10     9    1
    13    10    11    1
    14    22    21    1
    15    22    24    2
    16    21    27    1
    17    19    18    1
    18    24    25    1
    19    18    27    1
    20    18    17    1
    21    27    26    2
    22    15    13    1
    23    15    16    1
    24    15    17    1
    25    13    11    1
    26    13    14    1
    27    11    12    1
    28    25    26    1
    29    17    12    1
