@<TRIPOS>MOLECULE
1zxv_MFM_A_1.pdb
 25 27 0 0 0
SMALL
GASTEIGER

@<TRIPOS>ATOM
      1  C4        85.8650   45.0470  139.7420 C.ar  9002  MFM9002     0.0039
      2  C3        86.5260   46.2750  139.8230 C.ar  9002  MFM9002     0.0115
      3  C2        87.9080   46.3310  139.7490 C.ar  9002  MFM9002     0.0577
      4 CL1        88.7230   47.8370  139.9730 Cl    9002  MFM9002    -0.0822
      5  C1        88.6500   45.1510  139.5880 C.ar  9002  MFM9002     0.0115
      6  C6        87.9970   43.9330  139.5030 C.ar  9002  MFM9002     0.0039
      7  C5        86.6000   43.8810  139.5790 C.ar  9002  MFM9002     0.0346
      8  C7        85.9090   42.6860  139.4550 C.ar  9002  MFM9002     0.1448
      9  O1        84.5410   42.6420  139.5150 O.2   9002  MFM9002    -0.4577
     10  C8        86.3850   41.5030  139.0680 C.ar  9002  MFM9002     0.0403
     11  C9        85.3510   40.7020  138.8340 C.ar  9002  MFM9002     0.0361
     12  C10       84.2370   41.3720  139.1130 C.ar  9002  MFM9002     0.1242
     13  C11       82.9780   40.7740  139.1460 C.3   9002  MFM9002     0.0849
     14  C12       82.6740   39.5030  138.6730 C.3   9002  MFM9002     0.1377
     15  C14       83.3610   38.8040  137.6810 C.2   9002  MFM9002     0.2405
     16  O2        84.4500   39.1670  137.2260 O.2   9002  MFM9002    -0.2736
     17  S1        81.0960   38.8280  138.7100 S.3   9002  MFM9002    -0.0830
     18  C13       81.4140   37.6760  137.4760 C.2   9002  MFM9002     0.1172
     19  S2        80.3560   36.4060  136.8960 S.2   9002  MFM9002    -0.0275
     20  N1        82.6760   37.8540  137.0570 N.am  9002  MFM9002    -0.2470
     21  C15       83.2360   37.1700  135.8890 C.3   9002  MFM9002     0.1110
     22  C16       83.7960   35.8170  136.3300 C.3   9002  MFM9002     0.1359
     23  C17       84.2350   34.9540  135.1390 C.2   9002  MFM9002     0.3666
     24  O4        83.5490   33.9830  134.8080 O.co2 9002  MFM9002    -0.2456
     25  O3        85.2680   35.2040  134.5400 O.co2 9002  MFM9002    -0.2456
@<TRIPOS>BOND
     1    25    23   ar
     2    24    23   ar
     3    23    22    1
     4    21    22    1
     5    21    20    1
     6    19    18    2
     7    20    18    1
     8    20    15   am
     9    16    15    2
    10    18    17    1
    11    15    14    1
    12    14    17    1
    13    14    13    1
    14    11    10   ar
    15    11    12   ar
    16    10     8   ar
    17    12    13    1
    18    12     9   ar
    19     8     9   ar
    20     8     7    1
    21     6     7   ar
    22     6     5   ar
    23     7     1   ar
    24     5     3   ar
    25     1     2   ar
    26     3     2   ar
    27     3     4    1
