@<TRIPOS>MOLECULE
1zxy_PRP_A_1.pdb
 22 22 0 0 0
SMALL
GASTEIGER

@<TRIPOS>ATOM
      1  C1        -1.7310   -2.6600   29.2610 C.3   348  PRP348      0.2742
      2  C2        -2.8870   -2.4450   30.2540 C.3   348  PRP348      0.2408
      3  C3        -2.6860   -3.4550   31.3530 C.3   348  PRP348      0.2167
      4  C4        -1.3040   -4.0450   31.1500 C.3   348  PRP348      0.1808
      5  C5        -1.1940   -5.5280   31.1590 C.3   348  PRP348      0.1859
      6  O1        -1.0540   -1.4230   28.9200 O.3   348  PRP348     -0.2857
      7  O2        -2.9490   -1.0990   30.7090 O.3   348  PRP348     -0.2149
      8  O3        -2.8340   -2.7320   32.6000 O.3   348  PRP348     -0.2175
      9  O4        -0.8260   -3.5160   29.8720 O.3   348  PRP348     -0.3255
     10  O5        -2.2000   -6.2300   30.4170 O.3   348  PRP348     -0.2675
     11  P         -2.0430   -6.7650   28.8900 P.3   348  PRP348      0.5327
     12  O1P       -1.0310   -7.9040   28.8880 O.3   348  PRP348     -0.1145
     13  O2P       -3.4290   -7.1890   28.4000 O.3   348  PRP348     -0.1145
     14  O3P       -1.5240   -5.5370   28.1250 O.2   348  PRP348     -0.2224
     15  PA         0.4360   -1.5540   28.2950 P.3   348  PRP348      0.2249
     16  O1A        0.4160   -2.4450   27.1340 O.2   348  PRP348     -0.5169
     17  O2A        0.9550   -0.2030   28.0340 O.3   348  PRP348     -0.4370
     18  O3A        1.2090   -2.3370   29.4590 O.3   348  PRP348     -0.2260
     19  PB         1.5860   -1.9340   31.0140 P.3   348  PRP348      0.5373
     20  O1B        2.1050   -3.2640   31.5580 O.3   348  PRP348     -0.1143
     21  O2B        0.3530   -1.4690   31.7150 O.3   348  PRP348     -0.1143
     22  O3B        2.6450   -0.8780   30.9030 O.2   348  PRP348     -0.2221
@<TRIPOS>BOND
     1    16    15    2
     2    17    15    1
     3    14    11    2
     4    15     6    1
     5    15    18    1
     6    13    11    1
     7    12    11    1
     8    11    10    1
     9     6     1    1
    10     1     9    1
    11     1     2    1
    12    18    19    1
    13     9     4    1
    14     2     7    1
    15     2     3    1
    16    10     5    1
    17    22    19    2
    18    19    20    1
    19    19    21    1
    20     4     5    1
    21     4     3    1
    22     3     8    1
