@<TRIPOS>MOLECULE
1zy1_III_D_1.pdb
 20 19 0 0 0
SMALL
GASTEIGER

@<TRIPOS>ATOM
      1  N          9.6430   -9.8790  -14.4650 N.3     1  MET1       -0.1230
      2  CA         9.3940   -9.6870  -15.9200 C.3     1  MET1        0.1702
      3  C          9.7610   -8.2760  -16.3600 C.2     1  MET1        0.2592
      4  O          9.5400   -7.3140  -15.6190 O.2     1  MET1       -0.2718
      5  CB         7.9250   -9.9720  -16.2320 C.3     1  MET1        0.0401
      6  CG         7.4630   -9.4430  -17.5840 C.3     1  MET1        0.0596
      7  SD         5.6900   -9.6360  -17.8120 S.3     1  MET1       -0.1393
      8  CE         5.6490  -11.2190  -18.2670 C.3     1  MET1        0.0692
      9  N         10.3200   -8.1620  -17.5630 N.am    2  ALA2       -0.1966
     10  CA        10.7180   -6.8670  -18.1080 C.3     2  ALA2        0.1728
     11  C          9.5000   -5.9780  -18.2590 C.2     2  ALA2        0.2617
     12  O          8.4550   -6.4470  -18.7000 O.2     2  ALA2       -0.2715
     13  CB        11.3630   -7.0380  -19.4620 C.3     2  ALA2        0.0334
     14  N          9.6410   -4.7040  -17.8910 N.am    3  SER3       -0.1914
     15  CA         8.5450   -3.7580  -17.9950 C.3     3  SER3        0.2304
     16  C          8.5310   -3.2070  -19.3980 C.2     3  SER3        0.3869
     17  O          9.5130   -3.4810  -20.1250 O.co2   3  SER3       -0.2437
     18  CB         8.6890   -2.6100  -16.9940 C.3     3  SER3        0.2152
     19  OG         9.3790   -1.5100  -17.5580 O.3     3  SER3       -0.2179
     20  OXT        7.5550   -2.4850  -19.7460 O.co2   3  SER3       -0.2437
@<TRIPOS>BOND
     1    17    16   ar
     2    20    16   ar
     3    13    10    1
     4    16    15    1
     5    12    11    2
     6     8     7    1
     7    11    10    1
     8    11    14   am
     9    10     9    1
    10    15    14    1
    11    15    18    1
    12     7     6    1
    13     6     5    1
    14     9     3   am
    15    19    18    1
    16     3     2    1
    17     3     4    2
    18     5     2    1
    19     2     1    1
