@<TRIPOS>MOLECULE
1zy7_IHP_A_1.pdb
 36 36 0 0 0
SMALL
GASTEIGER

@<TRIPOS>ATOM
      1  C1        52.8880   22.4820   22.3780 C.3   901  IHP901      0.1863
      2  C2        53.9990   21.7450   23.1440 C.3   901  IHP901      0.1863
      3  C3        53.3710   20.9890   24.3240 C.3   901  IHP901      0.1863
      4  C4        52.3750   19.9490   23.8000 C.3   901  IHP901      0.1863
      5  C5        51.3070   20.5670   22.8690 C.3   901  IHP901      0.1863
      6  C6        51.8880   21.4740   21.7760 C.3   901  IHP901      0.1863
      7  O11       53.4370   23.2750   21.3110 O.3   901  IHP901     -0.2675
      8  P1        53.0520   24.8440   21.0730 P.3   901  IHP901      0.5327
      9  O21       52.6760   24.7890   19.5930 O.2   901  IHP901     -0.2224
     10  O31       51.8350   25.2320   21.8720 O.3   901  IHP901     -0.1145
     11  O41       54.3360   25.6410   21.2200 O.3   901  IHP901     -0.1145
     12  O12       54.6860   20.8200   22.2770 O.3   901  IHP901     -0.2675
     13  P2        56.2320   20.9010   21.8140 P.3   901  IHP901      0.5327
     14  O22       56.9860   21.7240   22.8330 O.3   901  IHP901     -0.1145
     15  O32       56.1760   21.4200   20.4020 O.2   901  IHP901     -0.2224
     16  O42       56.6300   19.4270   21.8240 O.3   901  IHP901     -0.1145
     17  O13       54.4320   20.3140   25.0380 O.3   901  IHP901     -0.2675
     18  P3        54.7670   20.6310   26.5790 P.3   901  IHP901      0.5327
     19  O23       53.6400   21.4200   27.1470 O.3   901  IHP901     -0.1145
     20  O33       54.7270   19.2070   27.1330 O.3   901  IHP901     -0.1145
     21  O43       56.1490   21.1660   26.7220 O.2   901  IHP901     -0.2224
     22  O14       51.7510   19.3300   24.9110 O.3   901  IHP901     -0.2675
     23  P4        52.0140   17.7990   25.3420 P.3   901  IHP901      0.5327
     24  O24       52.4550   17.0870   24.0950 O.2   901  IHP901     -0.2224
     25  O34       53.1310   17.7600   26.3430 O.3   901  IHP901     -0.1145
     26  O44       50.7360   17.3510   26.0100 O.3   901  IHP901     -0.1145
     27  O15       50.7080   19.4430   22.2220 O.3   901  IHP901     -0.2675
     28  P5        49.0970   19.1700   22.2150 P.3   901  IHP901      0.5327
     29  O25       48.4300   19.8430   23.3510 O.3   901  IHP901     -0.1145
     30  O35       48.9820   17.6490   22.1310 O.3   901  IHP901     -0.1145
     31  O45       48.6270   19.7920   20.9170 O.2   901  IHP901     -0.2224
     32  O16       50.8220   22.1900   21.1480 O.3   901  IHP901     -0.2675
     33  P6        50.5450   22.0590   19.5530 P.3   901  IHP901      0.5327
     34  O26       51.7870   22.5540   18.8570 O.2   901  IHP901     -0.2224
     35  O36       50.3590   20.5570   19.3070 O.3   901  IHP901     -0.1145
     36  O46       49.2870   22.8840   19.3480 O.3   901  IHP901     -0.1145
@<TRIPOS>BOND
     1    34    33    2
     2    35    33    1
     3    36    33    1
     4    33    32    1
     5     9     8    2
     6    15    13    2
     7    31    28    2
     8     8    11    1
     9     8     7    1
    10     8    10    1
    11    32     6    1
    12     7     1    1
    13     6     1    1
    14     6     5    1
    15    13    16    1
    16    13    12    1
    17    13    14    1
    18    30    28    1
    19    28    27    1
    20    28    29    1
    21    27     5    1
    22    12     2    1
    23     1     2    1
    24     5     4    1
    25     2     3    1
    26     4     3    1
    27     4    22    1
    28    24    23    2
    29     3    17    1
    30    22    23    1
    31    17    18    1
    32    23    26    1
    33    23    25    1
    34    18    21    2
    35    18    20    1
    36    18    19    1
