@<TRIPOS>MOLECULE
1zyj_BI5_A_1.pdb
 23 25 0 0 0
SMALL
GASTEIGER

@<TRIPOS>ATOM
      1  N1        52.1890   39.0500  -29.0190 N.ar  362  BI5362     -0.2464
      2  C1        51.4280   39.3130  -27.8570 C.ar  362  BI5362      0.0809
      3  C2        51.5410   40.5620  -27.1210 C.ar  362  BI5362      0.0165
      4  C3        52.4830   41.5460  -27.6310 C.ar  362  BI5362      0.0029
      5  C4        53.2660   41.2700  -28.8260 C.ar  362  BI5362      0.0207
      6  C5        53.1060   40.0040  -29.5240 C.ar  362  BI5362      0.0985
      7  C6        50.4550   38.2620  -27.3840 C.3   362  BI5362      0.1608
      8  N2        50.9350   37.5410  -26.1920 N.am  362  BI5362     -0.1951
      9  C7        51.7020   36.4750  -26.4120 C.2   362  BI5362      0.2651
     10  C8        52.5370   35.8980  -25.2800 C.ar  362  BI5362      0.0553
     11  C9        53.1130   34.5750  -25.4480 C.ar  362  BI5362      0.0077
     12  C10       53.8350   34.0380  -24.3090 C.ar  362  BI5362      0.0376
     13  C11       53.9510   34.8090  -23.0780 C.ar  362  BI5362      0.1453
     14  C12       53.3840   36.1400  -22.9310 C.ar  362  BI5362      0.0376
     15  C13       52.6630   36.6890  -24.0650 C.ar  362  BI5362      0.0077
     16  O1        54.5380   34.3110  -21.9800 O.3   362  BI5362     -0.4535
     17  C14       55.0350   33.0720  -22.0180 C.ar  362  BI5362      0.1453
     18  C15       54.1810   32.0170  -21.5010 C.ar  362  BI5362      0.0375
     19  C16       54.7240   30.6680  -21.4840 C.ar  362  BI5362      0.0031
     20  C17       56.0710   30.4200  -21.9780 C.ar  362  BI5362      0.0002
     21  C18       56.9160   31.4820  -22.5070 C.ar  362  BI5362      0.0031
     22  C19       56.3790   32.8360  -22.5280 C.ar  362  BI5362      0.0375
     23  O2        51.7410   35.9630  -27.5340 O.2   362  BI5362     -0.2684
@<TRIPOS>BOND
     1     6     1   ar
     2     6     5   ar
     3     1     2   ar
     4     5     4   ar
     5     2     7    1
     6     2     3   ar
     7     4     3   ar
     8    23     9    2
     9     7     8    1
    10     9     8   am
    11     9    10    1
    12    11    10   ar
    13    11    12   ar
    14    10    15   ar
    15    12    13   ar
    16    15    14   ar
    17    13    14   ar
    18    13    16    1
    19    22    21   ar
    20    22    17   ar
    21    21    20   ar
    22    17    16    1
    23    17    18   ar
    24    20    19   ar
    25    18    19   ar
