@<TRIPOS>MOLECULE
1zyk_BE2_A_1.pdb
 10 10 0 0 0
SMALL
GASTEIGER

@<TRIPOS>ATOM
      1  C          6.2740   -5.1770   35.8040 C.2   802  BE2802      0.3891
      2  O1         5.5890   -6.1670   35.4960 O.co2 802  BE2802     -0.2405
      3  O2         7.5680   -5.3050   36.0210 O.co2 802  BE2802     -0.2405
      4  C1         5.7000   -3.8020   35.9480 C.ar  802  BE2802      0.0965
      5  C2         4.2950   -3.5520   35.7340 C.ar  802  BE2802      0.0954
      6  C3         3.7540   -2.2280   35.8760 C.ar  802  BE2802      0.0183
      7  N2         3.4120   -4.5240   35.3950 N.pl3 802  BE2802     -0.1278
      8  C4         4.5780   -1.1420   36.2260 C.ar  802  BE2802      0.0014
      9  C5         5.9540   -1.3220   36.4470 C.ar  802  BE2802      0.0003
     10  C6         6.5370   -2.6970   36.3040 C.ar  802  BE2802      0.0079
@<TRIPOS>BOND
     1     7     5    1
     2     2     1   ar
     3     5     6   ar
     4     5     4   ar
     5     1     4    1
     6     1     3   ar
     7     6     8   ar
     8     4    10   ar
     9     8     9   ar
    10    10     9   ar
