@<TRIPOS>MOLECULE
1zyk_PRP_A_1.pdb
 22 22 0 0 0
SMALL
GASTEIGER

@<TRIPOS>ATOM
      1  C1        -1.9240   -2.7650   29.5520 C.3   601  PRP601      0.2742
      2  C2        -2.8210   -2.4050   30.7570 C.3   601  PRP601      0.2408
      3  C3        -2.9520   -3.7130   31.4640 C.3   601  PRP601      0.2167
      4  C4        -1.6170   -4.4100   31.2170 C.3   601  PRP601      0.1808
      5  C5        -1.7060   -5.8630   30.9940 C.3   601  PRP601      0.1859
      6  O1        -1.1800   -1.6010   29.0970 O.3   601  PRP601     -0.2857
      7  O2        -2.2080   -1.4140   31.5570 O.3   601  PRP601     -0.2149
      8  O3        -3.1990   -3.3820   32.8510 O.3   601  PRP601     -0.2175
      9  O4        -1.0610   -3.7560   30.0260 O.3   601  PRP601     -0.3255
     10  O5        -2.7250   -6.2450   30.0680 O.3   601  PRP601     -0.2675
     11  P         -2.4320   -6.7090   28.5430 P.3   601  PRP601      0.5327
     12  O1P       -1.2030   -7.6030   28.5600 O.3   601  PRP601     -0.1145
     13  O2P       -3.6910   -7.4140   28.0110 O.3   601  PRP601     -0.1145
     14  O3P       -2.1600   -5.3800   27.8200 O.2   601  PRP601     -0.2224
     15  PA         0.2830   -1.7950   28.4320 P.3   601  PRP601      0.2249
     16  O1A        0.2120   -2.7020   27.2970 O.2   601  PRP601     -0.5169
     17  O2A        0.8200   -0.4620   28.1310 O.3   601  PRP601     -0.4370
     18  O3A        1.0680   -2.5560   29.5970 O.3   601  PRP601     -0.2260
     19  PB         1.4700   -2.1180   31.1380 P.3   601  PRP601      0.5373
     20  O1B        1.7220   -3.4860   31.8070 O.3   601  PRP601     -0.1143
     21  O2B        0.3310   -1.3700   31.7540 O.3   601  PRP601     -0.1143
     22  O3B        2.7130   -1.2720   31.0310 O.2   601  PRP601     -0.2221
@<TRIPOS>BOND
     1    16    15    2
     2    14    11    2
     3    13    11    1
     4    17    15    1
     5    15     6    1
     6    15    18    1
     7    11    12    1
     8    11    10    1
     9     6     1    1
    10     1     9    1
    11     1     2    1
    12    18    19    1
    13     9     4    1
    14    10     5    1
    15     2     3    1
    16     2     7    1
    17     5     4    1
    18    22    19    2
    19    19    21    1
    20    19    20    1
    21     4     3    1
    22     3     8    1
