@<TRIPOS>MOLECULE
1zyq_DAD_A_1.pdb
 29 31 0 0 0
SMALL
GASTEIGER

@<TRIPOS>ATOM
      1  PG        42.3430   24.2420   -6.7930 P.3   1024  DAD1024     0.5373
      2  O1G       43.7000   24.8600   -6.8080 O.3   1024  DAD1024    -0.1143
      3  O2G       42.0440   23.0860   -7.6810 O.2   1024  DAD1024    -0.2221
      4  O3G       41.3850   25.3810   -7.1430 O.3   1024  DAD1024    -0.1143
      5  PB        42.7620   23.7870   -3.9330 P.3   1024  DAD1024     0.2277
      6  O1B       41.7940   23.4560   -2.8530 O.3   1024  DAD1024    -0.4368
      7  O2B       43.9610   22.9180   -4.1300 O.2   1024  DAD1024    -0.5168
      8  O3B       41.9400   23.8230   -5.3020 O.3   1024  DAD1024    -0.2258
      9  PA        44.7340   25.7940   -3.5450 P.3   1024  DAD1024     0.2189
     10  O1A       45.5920   25.1130   -4.5520 O.2   1024  DAD1024    -0.5170
     11  O2A       44.7700   27.2820   -3.4330 O.3   1024  DAD1024    -0.4371
     12  O3A       43.2190   25.3110   -3.7380 O.3   1024  DAD1024    -0.2700
     13  O5'       44.9360   25.1740   -2.0850 O.3   1024  DAD1024    -0.3113
     14  C5'       46.1900   24.6220   -1.6560 C.3   1024  DAD1024     0.1786
     15  C4'       46.0750   24.0970   -0.2370 C.3   1024  DAD1024     0.1493
     16  O4'       45.9150   25.1920    0.7070 O.3   1024  DAD1024    -0.3183
     17  C3'       44.8930   23.1540    0.0080 C.3   1024  DAD1024     0.0392
     18  C2'       43.8620   24.0420    0.6840 C.3   1024  DAD1024     0.0823
     19  C1'       44.7170   25.0270    1.4630 C.3   1024  DAD1024     0.2847
     20  N9        44.1020   26.3490    1.6290 N.pl3 1024  DAD1024    -0.1461
     21  C8        43.8090   27.2740    0.6450 C.3   1024  DAD1024     0.3377
     22  N7        43.2450   28.3680    1.0980 N.2   1024  DAD1024    -0.2095
     23  C5        43.1600   28.1570    2.4670 C.2   1024  DAD1024     0.2526
     24  C6        42.6530   28.9490    3.5110 C.2   1024  DAD1024     0.4393
     25  N6        42.1130   30.1550    3.3170 N.pl3 1024  DAD1024     0.2180
     26  N1        42.7190   28.4540    4.7730 N.2   1024  DAD1024     0.0021
     27  C2        43.2600   27.2420    4.9540 C.3   1024  DAD1024     0.5254
     28  N3        43.7710   26.4000    4.0500 N.2   1024  DAD1024    -0.0055
     29  C4        43.6880   26.9220    2.8120 C.2   1024  DAD1024     0.3518
@<TRIPOS>BOND
     1     3     1    2
     2     4     1    1
     3     2     1    1
     4     1     8    1
     5     8     5    1
     6    10     9    2
     7     7     5    2
     8     5    12    1
     9     5     6    1
    10    12     9    1
    11     9    11    1
    12     9    13    1
    13    13    14    1
    14    14    15    1
    15    15    17    1
    16    15    16    1
    17    17    18    1
    18    21    22    1
    19    21    20    1
    20    18    19    1
    21    16    19    1
    22    22    23    2
    23    19    20    1
    24    20    29    1
    25    23    29    1
    26    23    24    1
    27    29    28    2
    28    25    24    1
    29    24    26    2
    30    28    27    1
    31    26    27    1
