@<TRIPOS>MOLECULE
1zyr_STD_D_1.pdb
 43 47 0 0 0
SMALL
GASTEIGER

@<TRIPOS>ATOM
      1  C1       -27.5940  -44.5340  -22.3290 C.2   1525  STD1525     0.1287
      2  C2       -26.9140  -43.2920  -22.5510 C.2   1525  STD1525     0.2569
      3  N1       -26.1770  -43.3940  -23.7590 N.am  1525  STD1525    -0.2480
      4  C3       -27.1590  -45.3710  -23.4350 C.2   1525  STD1525     0.1990
      5  C4       -25.8500  -42.2340  -24.5140 C.3   1525  STD1525     0.1947
      6  O1       -27.7450  -46.4310  -23.7950 O.2   1525  STD1525    -0.2893
      7  O2       -26.9950  -42.2470  -21.9000 O.2   1525  STD1525    -0.2696
      8  C5       -28.5160  -44.8350  -21.3610 C.2   1525  STD1525     0.2029
      9  C6       -28.9440  -43.9240  -20.3420 C.2   1525  STD1525     0.0419
     10  C7       -29.8400  -44.2350  -19.4240 C.2   1525  STD1525    -0.0013
     11  C8       -30.2250  -43.3700  -18.3640 C.2   1525  STD1525    -0.0259
     12  C9       -31.0620  -43.8740  -17.4890 C.2   1525  STD1525    -0.0283
     13  C10      -31.4910  -43.2090  -16.2530 C.3   1525  STD1525     0.0491
     14  C11      -29.6210  -41.9630  -18.2810 C.3   1525  STD1525     0.0307
     15  O3       -29.0890  -46.0960  -21.3310 O.2   1525  STD1525    -0.2863
     16  O4       -27.0850  -41.4950  -24.6820 O.3   1525  STD1525    -0.3375
     17  C12      -24.7090  -41.4380  -23.7910 C.3   1525  STD1525     0.0537
     18  C13      -30.3440  -43.2170  -15.1720 C.3   1525  STD1525     0.1242
     19  C14      -32.7910  -43.9040  -15.7650 C.3   1525  STD1525     0.0072
     20  C15      -24.4970  -40.1300  -24.5560 C.3   1525  STD1525     0.0398
     21  C16      -29.9930  -44.6270  -14.4790 C.3   1525  STD1525     0.0591
     22  O5       -30.8210  -42.3230  -14.1470 O.3   1525  STD1525    -0.3341
     23  C17      -29.0660  -44.3820  -13.2310 C.3   1525  STD1525     0.1417
     24  C18      -29.2870  -45.6450  -15.4220 C.3   1525  STD1525     0.0054
     25  C19      -30.0030  -42.1710  -12.9400 C.3   1525  STD1525     0.2161
     26  C20      -25.9120  -44.8100  -24.1170 C.3   1525  STD1525     0.1483
     27  C21      -24.5390  -45.0300  -23.4010 C.3   1525  STD1525     0.1039
     28  C22      -24.3530  -46.2000  -22.4740 C.2   1525  STD1525     0.2430
     29  C23      -23.3360  -44.9510  -24.3920 C.3   1525  STD1525     0.0118
     30  N2       -24.1720  -45.8040  -21.1470 N.am  1525  STD1525    -0.2035
     31  O6       -24.3580  -47.3960  -22.8080 O.2   1525  STD1525    -0.2733
     32  C24      -23.9430  -46.7620  -20.0600 C.3   1525  STD1525     0.1385
     33  C25      -26.9270  -40.2400  -25.3890 C.3   1525  STD1525     0.1473
     34  C26      -25.8520  -39.3410  -24.6100 C.3   1525  STD1525     0.1791
     35  O7       -26.2890  -39.0940  -23.2390 O.3   1525  STD1525    -0.2205
     36  C27      -28.3180  -39.5450  -25.5390 C.3   1525  STD1525     0.0348
     37  O8       -29.7840  -43.4810  -12.3260 O.3   1525  STD1525    -0.3299
     38  C28      -28.6110  -41.4560  -13.2000 C.3   1525  STD1525     0.1847
     39  C29      -30.8310  -41.3040  -11.9790 C.3   1525  STD1525     0.0642
     40  C30      -27.6970  -43.7750  -13.5720 C.2   1525  STD1525     0.0010
     41  C31      -28.7680  -40.2050  -14.0150 C.3   1525  STD1525     0.1787
     42  C32      -27.4900  -42.4450  -13.5430 C.2   1525  STD1525     0.0053
     43  O9       -28.1620  -40.2370  -12.7290 O.3   1525  STD1525    -0.3442
@<TRIPOS>BOND
     1    36    33    1
     2    33    16    1
     3    33    34    1
     4    16     5    1
     5    34    20    1
     6    34    35    1
     7    20    17    1
     8     5    17    1
     9     5     3    1
    10    29    27    1
    11    26     3    1
    12    26     4    1
    13    26    27    1
    14     6     4    2
    15     3     2   am
    16     4     1    1
    17    27    28    1
    18    31    28    2
    19     2     1    1
    20     2     7    2
    21    28    30   am
    22     1     8    2
    23     8    15    1
    24     8     9    1
    25    30    32    1
    26     9    10    2
    27    10    11    1
    28    11    14    1
    29    11    12    2
    30    12    13    1
    31    13    19    1
    32    13    18    1
    33    24    21    1
    34    18    21    1
    35    18    22    1
    36    21    23    1
    37    22    25    1
    38    41    38    1
    39    41    43    1
    40    40    42    2
    41    40    23    1
    42    42    38    1
    43    23    37    1
    44    38    25    1
    45    38    43    1
    46    25    37    1
    47    25    39    1
