@<TRIPOS>MOLECULE
1zys_199_A_1.pdb
 31 35 0 0 0
SMALL
GASTEIGER

@<TRIPOS>ATOM
      1  C01        3.6270    8.0470   18.5730 C.2   400  199400      0.0129
      2  C02        2.5040    8.5650   19.3130 C.2   400  199400      0.0206
      3  C03        2.6940    9.7180   20.1250 C.2   400  199400      0.1095
      4  N04        3.8470   10.4040   20.2550 N.2   400  199400     -0.1922
      5  C05        4.8930    9.9050   19.5610 C.1   400  199400      0.0366
      6  N06        6.1820   10.3830   19.5070 N.2   400  199400     -0.1908
      7  C07        6.9620    9.5690   18.6710 C.2   400  199400      0.1268
      8  C08        6.1730    8.5690   18.1860 C.2   400  199400      0.1028
      9  C09        4.8440    8.7630   18.7390 C.2   400  199400      0.0793
     10  N10        6.4820    7.5170   17.3200 N.am  400  199400     -0.1731
     11  C11       -0.4180    6.3580   18.2690 C.ar  400  199400      0.0145
     12  C12       -1.4970    6.8440   19.1130 C.ar  400  199400      0.0479
     13  C13       -1.2060    7.9030   20.0270 C.ar  400  199400      0.0145
     14  C14        0.0880    8.4680   20.0910 C.ar  400  199400      0.0013
     15  C15        1.1500    7.9620   19.2480 C.ar  400  199400      0.0016
     16  C16        0.8690    6.8860   18.3410 C.ar  400  199400      0.0013
     17  C17        7.7100    7.3850   16.7800 C.2   400  199400      0.2706
     18  O18        8.6160    8.1740   16.9380 O.2   400  199400     -0.2680
     19  C19        7.3360    4.0160   14.8950 C.ar  400  199400      0.0208
     20  C20        8.6840    3.8970   14.4630 C.ar  400  199400      0.0989
     21  N21        9.6580    4.8340   14.7300 N.ar  400  199400     -0.2422
     22  C22        9.2980    5.9370   15.4530 C.ar  400  199400      0.1034
     23  C23        7.9860    6.1720   15.9600 C.ar  400  199400      0.0745
     24  C24        6.9750    5.1940   15.6810 C.ar  400  199400      0.0077
     25  C25       -3.6970    6.4530   20.1980 C.3   400  199400      0.1081
     26  C26       -5.1540    6.0400   19.8730 C.3   400  199400      0.0938
     27  N27       -5.1960    4.6300   19.3760 N.3   400  199400     -0.2686
     28  C28       -4.2720    4.3620   18.2270 C.3   400  199400      0.0938
     29  C29       -2.8220    4.8680   18.5640 C.3   400  199400      0.1081
     30  N30       -2.8200    6.2800   19.0220 N.pl3 400  199400     -0.3046
     31  C31       -6.6140    4.3130   18.9640 C.3   400  199400      0.0897
@<TRIPOS>BOND
     1    20    21   ar
     2    20    19   ar
     3    21    22   ar
     4    19    24   ar
     5    22    23   ar
     6    24    23   ar
     7    23    17    1
     8    17    18    2
     9    17    10   am
    10    10     8    1
    11     8     7    2
    12     8     9    1
    13    28    29    1
    14    28    27    1
    15    11    16   ar
    16    11    12   ar
    17    16    15   ar
    18    29    30    1
    19     1     9    2
    20     1     2    1
    21     7     6    1
    22     9     5    1
    23    31    27    1
    24    30    12    1
    25    30    25    1
    26    12    13   ar
    27    15     2    1
    28    15    14   ar
    29     2     3    2
    30    27    26    1
    31     6     5    2
    32     5     4    2
    33    26    25    1
    34    13    14   ar
    35     3     4    1
