@<TRIPOS>MOLECULE
1zys_III_B_1.pdb
 30 29 0 0 0
SMALL
GASTEIGER

@<TRIPOS>ATOM
      1  N          6.6750   -1.2440   34.3170 N.3   301  ALA301     -0.1231
      2  CA         7.8760   -0.9190   33.4510 C.3   301  ALA301      0.1694
      3  C          8.3640    0.5080   33.6530 C.2   301  ALA301      0.2593
      4  O          7.5530    1.4310   33.7660 O.2   301  ALA301     -0.2718
      5  CB         7.4990   -1.1640   31.9520 C.3   301  ALA301      0.0304
      6  N          9.6810    0.6760   33.6940 N.am  302  SER302     -0.1938
      7  CA        10.3120    1.9960   33.8540 C.3   302  SER302      0.2055
      8  C         11.6290    2.1430   33.0750 C.2   302  SER302      0.2643
      9  O         12.2190    1.1440   32.5880 O.2   302  SER302     -0.2714
     10  CB        10.5940    2.3000   35.3280 C.3   302  SER302      0.2130
     11  OG        11.6770    1.4820   35.7750 O.3   302  SER302     -0.2179
     12  N         12.0920    3.3900   32.9280 N.am  303  VAL303     -0.1963
     13  CA        13.3750    3.6310   32.2720 C.3   303  VAL303      0.1727
     14  C         14.0540    4.8300   32.9150 C.2   303  VAL303      0.2617
     15  O         13.3960    5.7060   33.4630 O.2   303  VAL303     -0.2715
     16  CB        13.2140    3.9260   30.7250 C.3   303  VAL303      0.0290
     17  CG1       12.4850    2.7900   30.0520 C.3   303  VAL303      0.0023
     18  CG2       12.4500    5.2760   30.4900 C.3   303  VAL303      0.0023
     19  N         15.3720    4.8940   32.8650 N.am  304  SER304     -0.1936
     20  CA        16.0310    6.0840   33.4210 C.3   304  SER304      0.2055
     21  C         16.5490    6.9360   32.2570 C.2   304  SER304      0.2644
     22  O         16.8680    6.4180   31.1710 O.2   304  SER304     -0.2714
     23  CB        17.1930    5.7070   34.3680 C.3   304  SER304      0.2130
     24  OG        18.1120    4.8730   33.6950 O.3   304  SER304     -0.2179
     25  N         16.6700    8.2280   32.5250 N.am  305  ALA305     -0.1941
     26  CA        17.1110    9.2580   31.5880 C.3   305  ALA305      0.1979
     27  C         18.6080    9.6040   31.7400 C.2   305  ALA305      0.3842
     28  O         19.0450   10.5570   31.0930 O.co2 305  ALA305     -0.2437
     29  CB        16.2370   10.5520   31.8200 C.3   305  ALA305      0.0356
     30  OXT       19.3190    8.9440   32.5240 O.co2 305  ALA305     -0.2437
@<TRIPOS>BOND
     1    17    16    1
     2    18    16    1
     3    16    13    1
     4    28    27   ar
     5    22    21    2
     6    26    27    1
     7    26    29    1
     8    26    25    1
     9    27    30   ar
    10     5     2    1
    11    21    25   am
    12    21    20    1
    13    13    14    1
    14    13    12    1
    15     9     8    2
    16    19    14   am
    17    19    20    1
    18    14    15    2
    19    12     8   am
    20     8     7    1
    21    20    23    1
    22     2     3    1
    23     2     1    1
    24     3     6   am
    25     3     4    2
    26     6     7    1
    27    24    23    1
    28     7    10    1
    29    10    11    1
