@<TRIPOS>MOLECULE
1zyt_MTN_A_1.pdb
 12 12 0 0 0
SMALL
GASTEIGER

@<TRIPOS>ATOM
      1  O1        46.5370   -3.2900   15.4940 O.3   165  MTN165     -0.1175
      2  N1        45.9300   -3.8090   14.5610 N.4   165  MTN165     -0.1311
      3  C1        45.0750   -5.0170   14.7710 C.3   165  MTN165      0.0909
      4  C2        44.5250   -5.2860   13.3370 C.2   165  MTN165     -0.0160
      5  C3        44.9850   -4.3650   12.3830 C.2   165  MTN165     -0.0205
      6  C4        44.5280   -4.4910   10.9350 C.3   165  MTN165      0.0917
      7  S1        45.8470   -4.8130    9.8030 S.3   165  MTN165     -0.0773
      8  C5        45.9250   -3.3420   13.1110 C.3   165  MTN165      0.0886
      9  C6        45.2910   -1.9510   12.8870 C.3   165  MTN165      0.0227
     10  C7        47.2830   -3.4570   12.3860 C.3   165  MTN165      0.0227
     11  C8        45.8190   -6.2800   15.1860 C.3   165  MTN165      0.0230
     12  C9        43.8590   -4.8160   15.6680 C.3   165  MTN165      0.0230
@<TRIPOS>BOND
     1     7     6    1
     2     6     5    1
     3     5     8    1
     4     5     4    2
     5    10     8    1
     6     9     8    1
     7     8     2    1
     8     4     3    1
     9     2     3    1
    10     2     1    1
    11     3    11    1
    12     3    12    1
