@<TRIPOS>MOLECULE
1zyu_SKM_A_1.pdb
 12 12 0 0 0
SMALL
GASTEIGER

@<TRIPOS>ATOM
      1  O12       -0.5980   38.2930   52.5270 O.3   401  SKM401     -0.2173
      2  C8        -0.5270   37.6460   53.8050 C.3   401  SKM401      0.2167
      3  C6        -1.7940   37.9880   54.6150 C.3   401  SKM401      0.1896
      4  O7        -1.7030   37.3590   55.8970 O.3   401  SKM401     -0.2200
      5  C5        -3.0810   37.4770   53.9210 C.3   401  SKM401      0.0684
      6  C4        -2.9340   36.0910   53.2690 C.2   401  SKM401      0.0584
      7  C1        -4.1630   35.3960   52.7950 C.2   401  SKM401      0.3837
      8  O2        -4.3620   34.1970   53.0050 O.co2 401  SKM401     -0.2409
      9  O3        -5.1180   36.0560   52.1120 O.co2 401  SKM401     -0.2409
     10  C10       -1.7140   35.4870   53.1090 C.2   401  SKM401      0.0111
     11  C9        -0.4080   36.1190   53.5580 C.3   401  SKM401      0.2066
     12  O11        0.5890   35.8990   52.5600 O.3   401  SKM401     -0.2155
@<TRIPOS>BOND
     1     9     7   ar
     2     1     2    1
     3    12    11    1
     4     7     8   ar
     5     7     6    1
     6    10     6    2
     7    10    11    1
     8     6     5    1
     9    11     2    1
    10     2     3    1
    11     5     3    1
    12     3     4    1
