@<TRIPOS>MOLECULE
1zyu_ACP_A_1.pdb
 31 33 0 0 0
SMALL
GASTEIGER

@<TRIPOS>ATOM
      1  PG         3.0570   32.5980   52.8970 P.3   180  ACP180      0.1295
      2  O1G        2.1850   32.8580   51.7220 O.2   180  ACP180     -0.4595
      3  O2G        2.4580   32.9150   54.2000 O.3   180  ACP180     -0.3567
      4  O3G        4.3320   33.3800   52.7330 O.3   180  ACP180     -0.3567
      5  PB         4.0700   30.0010   51.9180 P.3   180  ACP180      0.3815
      6  O1B        3.1570   29.3710   50.9640 O.2   180  ACP180     -0.2547
      7  O2B        5.2070   30.8000   51.3380 O.3   180  ACP180     -0.1391
      8  C3B        3.2500   30.9690   52.9470 C.3   180  ACP180      0.1768
      9  PA         6.3200   28.1860   52.6670 P.3   180  ACP180      0.2209
     10  O1A        7.0330   28.9640   53.6520 O.3   180  ACP180     -0.4371
     11  O2A        6.8400   28.0810   51.4020 O.2   180  ACP180     -0.5170
     12  O3A        4.6980   28.7910   52.7100 O.3   180  ACP180     -0.2483
     13  O5'        6.3570   26.6360   53.3270 O.3   180  ACP180     -0.3111
     14  C5'        5.8780   26.3940   54.6650 C.3   180  ACP180      0.1813
     15  C4'        6.5260   25.1140   55.1530 C.3   180  ACP180      0.1821
     16  O4'        6.1990   24.1100   53.9970 O.3   180  ACP180     -0.3135
     17  C3'        8.0760   25.0160   55.2460 C.3   180  ACP180      0.2184
     18  O3'        8.2370   24.3780   56.4690 O.3   180  ACP180     -0.2174
     19  C2'        8.5300   24.2070   54.0230 C.3   180  ACP180      0.2570
     20  O2'        9.7010   23.4520   54.4360 O.3   180  ACP180     -0.2130
     21  C1'        7.3540   23.3430   53.6660 C.3   180  ACP180      0.3186
     22  N9         7.2830   22.9770   52.2080 N.pl3 180  ACP180     -0.1439
     23  C8         7.2630   23.8850   51.1580 C.3   180  ACP180      0.3377
     24  N7         7.2350   23.3530   49.9880 N.2   180  ACP180     -0.2095
     25  C5         7.1780   22.0020   50.2500 C.2   180  ACP180      0.2526
     26  C6         7.1430   20.8410   49.3720 C.2   180  ACP180      0.4393
     27  N6         7.1590   20.9640   48.0600 N.pl3 180  ACP180      0.2180
     28  N1         7.2580   19.5270   49.9170 N.2   180  ACP180      0.0021
     29  C2         7.4340   19.3680   51.2800 C.3   180  ACP180      0.5254
     30  N3         7.3300   20.4020   52.2210 N.2   180  ACP180     -0.0055
     31  C4         7.3400   21.7110   51.5970 C.2   180  ACP180      0.3518
@<TRIPOS>BOND
     1    27    26    1
     2    26    28    2
     3    26    25    1
     4    28    29    1
     5    24    25    2
     6    24    23    1
     7    25    31    1
     8     6     5    2
     9    23    22    1
    10    29    30    1
    11     7     5    1
    12    11     9    2
    13    31    22    1
    14    31    30    2
    15     2     1    2
    16     5    12    1
    17     5     8    1
    18    22    21    1
    19     9    12    1
    20     9    13    1
    21     9    10    1
    22     4     1    1
    23     1     8    1
    24     1     3    1
    25    13    14    1
    26    21    16    1
    27    21    19    1
    28    16    15    1
    29    19    20    1
    30    19    17    1
    31    14    15    1
    32    15    17    1
    33    17    18    1
