@<TRIPOS>MOLECULE
1zyx_LCF_A_1.pdb
 27 30 0 0 0
SMALL
GASTEIGER

@<TRIPOS>ATOM
      1  C1         5.5760   21.1670   -7.5410 C.ar  2001  LCF2001     0.0481
      2  C2         6.3200   23.5950   -8.4500 C.3   2001  LCF2001     0.1057
      3  C3         6.6820   23.8660   -9.8990 C.3   2001  LCF2001     0.0263
      4  C4         6.5970   22.6380  -10.7380 C.3   2001  LCF2001     0.0456
      5  C5         6.1500   21.6190   -9.7530 C.ar  2001  LCF2001     0.0368
      6  C6         5.8380   20.1650   -9.8270 C.ar  2001  LCF2001     0.0127
      7  C7         5.4400   19.8240   -8.3180 C.ar  2001  LCF2001     0.0133
      8  N          6.0060   22.1520   -8.4980 N.ar  2001  LCF2001    -0.3334
      9  C8         5.3920   21.6880   -6.1220 C.3   2001  LCF2001     0.1576
     10  C9         6.7030   21.8720   -5.4110 C.2   2001  LCF2001     0.3707
     11  O1         7.1460   22.9940   -5.2870 O.co2 2001  LCF2001    -0.2452
     12  O2         7.3150   20.9220   -4.9700 O.co2 2001  LCF2001    -0.2452
     13  C10        8.1090   24.1930  -10.1470 C.3   2001  LCF2001     0.0023
     14  C11        5.8300   24.9990  -10.4010 C.3   2001  LCF2001     0.0023
     15  C12        5.9320   19.3810  -11.1240 C.ar  2001  LCF2001     0.0011
     16  C13        6.3270   19.9450  -12.3910 C.ar  2001  LCF2001     0.0000
     17  C14        6.4060   19.1870  -13.6080 C.ar  2001  LCF2001     0.0000
     18  C15        6.0880   17.8180  -13.6050 C.ar  2001  LCF2001     0.0000
     19  C16        5.6930   17.2170  -12.3710 C.ar  2001  LCF2001     0.0000
     20  C17        5.6290   18.0040  -11.1910 C.ar  2001  LCF2001     0.0000
     21  C18        5.0120   18.5940   -7.6180 C.ar  2001  LCF2001     0.0012
     22  C19        4.8810   17.3600   -8.2820 C.ar  2001  LCF2001     0.0009
     23  C20        4.4810   16.1810   -7.6440 C.ar  2001  LCF2001     0.0114
     24  C21        4.1830   16.1680   -6.2780 C.ar  2001  LCF2001     0.0577
     25  C22        4.2890   17.3540   -5.5480 C.ar  2001  LCF2001     0.0114
     26  C23        4.6980   18.5460   -6.2080 C.ar  2001  LCF2001     0.0009
     27 CL1         3.6780   14.6020   -5.5700 Cl    2001  LCF2001    -0.0822
@<TRIPOS>BOND
     1    17    18   ar
     2    17    16   ar
     3    18    19   ar
     4    16    15   ar
     5    19    20   ar
     6    20    15   ar
     7    15     6    1
     8     4     3    1
     9     4     5    1
    10    14     3    1
    11    13     3    1
    12     3     2    1
    13     6     5   ar
    14     6     7   ar
    15     5     8   ar
    16     8     2    1
    17     8     1   ar
    18     7    21    1
    19     7     1   ar
    20    22    23   ar
    21    22    21   ar
    22    23    24   ar
    23    21    26   ar
    24     1     9    1
    25    24    27    1
    26    24    25   ar
    27    26    25   ar
    28     9    10    1
    29    10    11   ar
    30    10    12   ar
