@<TRIPOS>MOLECULE
1zz1_SHH_A_1.pdb
 19 19 0 0 0
SMALL
GASTEIGER

@<TRIPOS>ATOM
      1  O1        -4.3600  -14.5190   43.9310 O.3   2452  SHH2452    -0.4026
      2  O2        -2.3410  -14.5180   42.2580 O.2   2452  SHH2452    -0.5396
      3  N1        -4.4660  -14.5820   42.5380 N.am  2452  SHH2452    -0.2030
      4  C1        -3.4500  -14.1660   41.8800 C.2   2452  SHH2452     0.0868
      5  C2        -3.7520  -13.3200   40.6460 C.3   2452  SHH2452     0.0512
      6  C3        -4.0330  -11.8480   40.9210 C.3   2452  SHH2452     0.0067
      7  C4        -4.1800  -10.9850   39.6570 C.3   2452  SHH2452     0.0004
      8  C5        -5.1840  -11.4680   38.6000 C.3   2452  SHH2452     0.0005
      9  C6        -5.6240  -10.3570   37.6390 C.3   2452  SHH2452     0.0096
     10  C7        -6.6640  -10.8180   36.6160 C.3   2452  SHH2452     0.0872
     11  C8        -7.2510   -9.5920   35.9400 C.2   2452  SHH2452     0.2456
     12  O3        -6.5290   -8.8030   35.3400 O.2   2452  SHH2452    -0.2730
     13  N2        -8.5720   -9.4340   36.0480 N.am  2452  SHH2452    -0.1792
     14  C9        -9.2500   -8.3670   35.5510 C.ar  2452  SHH2452     0.0734
     15  C10      -10.4390   -8.5970   34.8640 C.ar  2452  SHH2452     0.0166
     16  C11      -11.1670   -7.5280   34.3460 C.ar  2452  SHH2452     0.0013
     17  C12      -10.7050   -6.2200   34.5160 C.ar  2452  SHH2452     0.0001
     18  C13       -9.5140   -5.9780   35.2050 C.ar  2452  SHH2452     0.0013
     19  C14       -8.7880   -7.0560   35.7220 C.ar  2452  SHH2452     0.0166
@<TRIPOS>BOND
     1    16    17   ar
     2    16    15   ar
     3    17    18   ar
     4    15    14   ar
     5    18    19   ar
     6    12    11    2
     7    14    19   ar
     8    14    13    1
     9    11    13   am
    10    11    10    1
    11    10     9    1
    12     9     8    1
    13     8     7    1
    14     7     6    1
    15     5     6    1
    16     5     4    1
    17     4     2    2
    18     4     3   am
    19     3     1    1
