@<TRIPOS>MOLECULE
1zz2_B11_A_1.pdb
 33 36 0 0 0
SMALL
GASTEIGER

@<TRIPOS>ATOM
      1  C1        28.8390   68.5680   16.5790 C.2   362  B11362      0.0375
      2  C2        29.9200   68.2440   15.6580 C.2   362  B11362     -0.0182
      3  C3        31.2830   68.7130   15.8980 C.3   362  B11362      0.0519
      4  C4        31.6020   69.5050   17.0750 C.2   362  B11362     -0.0211
      5  C5        30.5130   69.8080   17.9900 C.2   362  B11362      0.0302
      6  C6        29.1500   69.3640   17.7550 C.2   362  B11362      0.1925
      7  O7        28.2970   69.7300   18.5730 O.2   362  B11362     -0.2869
      8  C8        30.7450   70.5210   19.3010 C.3   362  B11362      0.1178
      9  N9        30.6640   71.9830   19.1740 N.3   362  B11362     -0.2145
     10  C10       31.0760   72.7830   20.3380 C.3   362  B11362      0.0760
     11  C11       30.8550   74.2580   20.0030 C.3   362  B11362      0.0366
     12  C12       31.4410   75.1920   21.0460 C.3   362  B11362      0.0986
     13  N13       32.8760   74.9020   21.2540 N.3   362  B11362     -0.1412
     14  C14       33.1740   73.4960   21.5980 C.3   362  B11362      0.0986
     15  C15       32.5680   72.5370   20.5820 C.3   362  B11362      0.0366
     16  S16       33.7600   76.1260   22.1960 S.O2  362  B11362      0.1325
     17  N17       33.7490   77.6910   21.4490 N.pl3 362  B11362     -0.0856
     18  O18       32.9590   76.2460   23.7240 O.2   362  B11362     -0.1362
     19  O19       35.3710   75.5410   22.3230 O.2   362  B11362     -0.1362
     20  C20       34.1220   77.8400   20.0960 C.ar  362  B11362      0.0951
     21  C21       34.6380   76.7600   19.2660 C.ar  362  B11362      0.0556
     22  C22       35.0160   77.1050   17.9040 C.ar  362  B11362      0.1466
     23  C23       34.8540   78.4650   17.4130 C.ar  362  B11362      0.0376
     24  C24       34.3350   79.5190   18.2630 C.ar  362  B11362      0.0045
     25  C25       33.9700   79.2050   19.6330 C.ar  362  B11362      0.0183
     26  O26       35.5880   76.1750   17.1270 O.3   362  B11362     -0.4535
     27  C27       36.2660   76.4920   16.0170 C.ar  362  B11362      0.1454
     28  C28       35.7110   76.0000   14.7670 C.ar  362  B11362      0.0398
     29  C29       36.4030   76.3570   13.5380 C.ar  362  B11362      0.0328
     30  C30       37.6050   77.1760   13.5750 C.ar  362  B11362      0.1403
     31  C31       38.1480   77.6460   14.8460 C.ar  362  B11362      0.0328
     32  C32       37.4740   77.3050   16.0910 C.ar  362  B11362      0.0398
     33  F1        38.2370   77.5900   12.2920 F     362  B11362     -0.2042
@<TRIPOS>BOND
     1    33    30    1
     2    29    30   ar
     3    29    28   ar
     4    30    31   ar
     5    28    27   ar
     6    31    32   ar
     7     2     3    1
     8     2     1    2
     9     3     4    1
    10    27    32   ar
    11    27    26    1
    12     1     6    1
    13     4     5    2
    14    26    22    1
    15    23    22   ar
    16    23    24   ar
    17     6     5    1
    18     6     7    2
    19    22    21   ar
    20     5     8    1
    21    24    25   ar
    22     9     8    1
    23     9    10    1
    24    21    20   ar
    25    25    20   ar
    26    11    10    1
    27    11    12    1
    28    20    17    1
    29    10    15    1
    30    15    14    1
    31    12    13    1
    32    13    14    1
    33    13    16    1
    34    17    16    1
    35    16    19    2
    36    16    18    2
