@<TRIPOS>MOLECULE
1zz3_3YP_A_1.pdb
 11 11 0 0 0
SMALL
GASTEIGER

@<TRIPOS>ATOM
      1  CAF       -5.5340  -11.8380   38.6520 C.3   1452  3YP1452     0.0000
      2  CAC       -5.5130  -10.4750   37.9630 C.3   1452  3YP1452     0.0000
      3  CAD       -4.0780  -10.0430   38.2760 C.3   1452  3YP1452     0.0000
      4  CAG       -3.9620  -10.3360   39.7800 C.3   1452  3YP1452     0.0000
      5  CAK       -4.8550  -11.5670   40.0210 C.3   1452  3YP1452     0.0004
      6  CAH       -3.9390  -12.7120   40.4860 C.3   1452  3YP1452     0.0067
      7  CAE       -4.5620  -14.0770   40.7180 C.3   1452  3YP1452     0.0512
      8  CAJ       -4.0290  -14.5440   42.0260 C.2   1452  3YP1452     0.0868
      9  OAA       -2.8600  -14.8200   42.2380 O.2   1452  3YP1452    -0.5396
     10  NAI       -4.7300  -14.3480   42.9020 N.am  1452  3YP1452    -0.2030
     11  OAB       -4.4070  -14.6120   44.1530 O.3   1452  3YP1452    -0.4026
@<TRIPOS>BOND
     1     2     3    1
     2     2     1    1
     3     3     4    1
     4     1     5    1
     5     4     5    1
     6     5     6    1
     7     6     7    1
     8     7     8    1
     9     8     9    2
    10     8    10   am
    11    10    11    1
