@<TRIPOS>MOLECULE
1zzh_HEC_A_1.pdb
 43 50 0 0 0
SMALL
GASTEIGER

@<TRIPOS>ATOM
      1 FE         -5.3320   97.5900  -55.1240 Fe    802  HEC802      0.0000
      2  CHA       -5.0080  100.9350  -54.7390 C.2   802  HEC802      0.0000
      3  CHB       -2.9900   97.5940  -57.5440 C.2   802  HEC802      0.0000
      4  CHC       -5.4240   94.2060  -55.1970 C.2   802  HEC802      0.0000
      5  CHD       -7.6890   97.5340  -52.6590 C.2   802  HEC802      0.0000
      6  NA        -4.2820   98.9660  -56.0070 N.ar  802  HEC802      0.0000
      7  C1A       -4.2660  100.3300  -55.7610 C.ar  802  HEC802      0.0000
      8  C2A       -3.3570  101.0180  -56.7090 C.ar  802  HEC802      0.0000
      9  C3A       -2.8190  100.0550  -57.4790 C.ar  802  HEC802      0.0000
     10  C4A       -3.3640   98.7940  -57.0280 C.ar  802  HEC802      0.0000
     11  CMA       -1.7950  100.2760  -58.6100 C.3   802  HEC802      0.0000
     12  CAA       -3.0260  102.5030  -56.8530 C.3   802  HEC802      0.0000
     13  CBA       -4.1560  103.2270  -57.5820 C.3   802  HEC802      0.0000
     14  CGA       -3.8040  104.6530  -58.0230 C.2   802  HEC802      0.0000
     15  O1A       -2.6380  105.1070  -57.8620 O.co2 802  HEC802      0.0000
     16  O2A       -4.7070  105.3220  -58.5740 O.co2 802  HEC802      0.0000
     17  NB        -4.4190   96.2130  -56.1510 N.2   802  HEC802      0.0000
     18  C1B       -3.4440   96.3710  -57.1350 C.2   802  HEC802      0.0000
     19  C2B       -2.9130   95.1290  -57.6210 C.2   802  HEC802      0.0000
     20  C3B       -3.5630   94.1630  -56.8670 C.2   802  HEC802      0.0000
     21  C4B       -4.5280   94.8430  -56.0310 C.2   802  HEC802      0.0000
     22  CMB       -1.8180   94.9630  -58.6960 C.3   802  HEC802      0.0000
     23  CAB       -3.3110   92.6560  -56.8980 C.3   802  HEC802      0.0000
     24  CBB       -1.9150   92.2210  -56.4540 C.3   802  HEC802      0.0000
     25  NC        -6.3880   96.1850  -54.1880 N.ar  802  HEC802      0.0000
     26  C1C       -6.3160   94.8210  -54.3580 C.ar  802  HEC802      0.0000
     27  C2C       -7.2700   94.1040  -53.5330 C.ar  802  HEC802      0.0000
     28  C3C       -7.9160   95.0710  -52.8080 C.ar  802  HEC802      0.0000
     29  C4C       -7.3400   96.3360  -53.2180 C.ar  802  HEC802      0.0000
     30  CMC       -7.4300   92.5720  -53.5330 C.3   802  HEC802      0.0000
     31  CAC       -9.0380   94.9420  -51.7350 C.3   802  HEC802      0.0000
     32  CBC       -9.2770   93.6430  -50.9740 C.3   802  HEC802      0.0000
     33  ND        -6.1680   98.9340  -53.9270 N.2   802  HEC802      0.0000
     34  C1D       -7.1240   98.7400  -52.9500 C.2   802  HEC802      0.0000
     35  C2D       -7.4380   99.9440  -52.2050 C.2   802  HEC802      0.0000
     36  C3D       -6.6320  100.9170  -52.7570 C.2   802  HEC802      0.0000
     37  C4D       -5.9020  100.2810  -53.8620 C.2   802  HEC802      0.0000
     38  CMD       -8.4390  100.0470  -51.0270 C.3   802  HEC802      0.0000
     39  CAD       -6.4890  102.3950  -52.2990 C.3   802  HEC802      0.0000
     40  CBD       -6.2270  102.5810  -50.7810 C.3   802  HEC802      0.0000
     41  CGD       -5.0130  103.3960  -50.3780 C.2   802  HEC802      0.0000
     42  O1D       -4.9250  103.7620  -49.1970 O.co2 802  HEC802      0.0000
     43  O2D       -4.1320  103.6880  -51.2230 O.co2 802  HEC802      0.0000
@<TRIPOS>BOND
     1    22    19    1
     2    11     9    1
     3    16    14   ar
     4    14    15   ar
     5    14    13    1
     6    19    18    1
     7    19    20    2
     8    13    12    1
     9     3    18    1
    10     3    10    2
    11     9    10   ar
    12     9     8   ar
    13    18    17    2
    14    10     6   ar
    15    23    20    1
    16    23    24    1
    17    20    21    1
    18    12     8    1
    19     8     7   ar
    20    17    21    1
    21    17     1    1
    22    21     4    2
    23     6     7   ar
    24     6     1    1
    25     7     2    2
    26     4    26    1
    27     1    25    1
    28     1    33    1
    29     2    37    1
    30    26    25   ar
    31    26    27   ar
    32    25    29   ar
    33    33    37    2
    34    33    34    1
    35    37    36    1
    36    27    30    1
    37    27    28   ar
    38    29    28   ar
    39    29     5    1
    40    34     5    2
    41    34    35    1
    42    28    31    1
    43    36    39    1
    44    36    35    2
    45    39    40    1
    46    35    38    1
    47    31    32    1
    48    43    41   ar
    49    40    41    1
    50    41    42   ar
