@<TRIPOS>MOLECULE
1zzl_TZY_A_1.pdb
 24 27 0 0 0
SMALL
GASTEIGER

@<TRIPOS>ATOM
      1  C7         0.6320   11.5970   30.6790 C.ar  999  TZY999      0.0810
      2  C9         2.3290   15.3620   30.4860 C.3   999  TZY999      0.2721
      3  C13        2.2950    9.6040   31.6560 C.ar  999  TZY999      0.0390
      4  C21       -2.3850   10.5790   30.3240 C.3   999  TZY999      0.0591
      5  C8         2.8010   10.8480   31.4050 C.ar  999  TZY999      0.0031
      6  C18        7.4640   11.6190   30.4890 C.ar  999  TZY999      0.1401
      7  C16        0.9040    9.3440   31.4150 C.ar  999  TZY999      0.1701
      8  F22        8.6350   10.9600   30.5580 F     999  TZY999     -0.2042
      9  C15        7.1730   12.5060   31.5190 C.ar  999  TZY999      0.0297
     10  C11        5.9570   13.1940   31.5280 C.ar  999  TZY999      0.0036
     11  C14        6.5530   11.3720   29.4630 C.ar  999  TZY999      0.0297
     12  C10        5.3300   12.0640   29.4510 C.ar  999  TZY999      0.0036
     13  C5         5.0300   12.9740   30.4970 C.ar  999  TZY999      0.0161
     14  C2         3.7300   13.7380   30.5320 C.2   999  TZY999      0.0877
     15  N6         3.5880   15.0770   30.4200 N.2   999  TZY999     -0.2409
     16  O4         1.5800   14.2650   30.6580 O.3   999  TZY999     -0.3230
     17  C1         2.4440   13.2230   30.6590 C.3   999  TZY999      0.1804
     18  C3         1.9750   11.8570   30.8730 C.ar  999  TZY999      0.0280
     19  N12        0.0920   10.3600   30.9420 N.ar  999  TZY999     -0.2761
     20  C17       -1.1580    9.8210   30.8110 C.ar  999  TZY999      0.1467
     21  C24       -3.0740   11.2070   31.5490 C.3   999  TZY999      0.0080
     22  C23       -3.3800    9.6640   29.6030 C.3   999  TZY999      0.0080
     23  N19        0.1400    8.2600   31.5550 N.ar  999  TZY999     -0.1287
     24  N20       -1.0900    8.5580   31.2270 N.ar  999  TZY999     -0.1330
@<TRIPOS>BOND
     1    12    11   ar
     2    12    13   ar
     3    11     6   ar
     4    22     4    1
     5     4    20    1
     6     4    21    1
     7    15     2    1
     8    15    14    2
     9     2    16    1
    10     6     8    1
    11     6     9   ar
    12    13    14    1
    13    13    10   ar
    14    14    17    1
    15    16    17    1
    16    17    18    1
    17     1    18   ar
    18     1    19   ar
    19    20    19   ar
    20    20    24   ar
    21    18     5   ar
    22    19     7   ar
    23    24    23   ar
    24     5     3   ar
    25     7    23   ar
    26     7     3   ar
    27     9    10   ar
