@<TRIPOS>MOLECULE
1zzq_DP9_A_1.pdb
 23 23 0 0 0
SMALL
GASTEIGER

@<TRIPOS>ATOM
      1  NH2       14.4340   -0.2570   23.5990 N.pl3 799  DP9799      0.1343
      2  CZ        13.4590    0.5730   23.2080 C.cat 799  DP9799      0.5245
      3  NH1       13.5690    1.3140   22.1100 N.pl3 799  DP9799      0.1075
      4  NO        14.6030    1.4760   21.2600 N.pl3 799  DP9799      0.2221
      5  O2        14.4920    2.3720   20.3510 O.2   799  DP9799     -0.0910
      6  O3        15.6860    0.7800   21.3170 O.2   799  DP9799     -0.0910
      7  NE        12.3700    0.6150   23.9800 N.pl3 799  DP9799     -0.0874
      8  CD        11.1160    1.3930   23.8760 C.3   799  DP9799      0.2204
      9  CG        10.0120    0.5590   23.1900 C.3   799  DP9799      0.0489
     10  CB         9.8270   -0.8580   23.8010 C.3   799  DP9799      0.0321
     11  CA         9.2410   -0.8790   25.2440 C.3   799  DP9799      0.1694
     12  N          9.6370   -2.1840   25.8400 N.3   799  DP9799     -0.1231
     13  C          7.7020   -0.6810   25.2930 C.2   799  DP9799      0.2588
     14  O          6.9420   -1.6530   25.2260 O.2   799  DP9799     -0.2718
     15  N2'        7.2750    0.5870   25.4080 N.am  799  DP9799     -0.2044
     16  CG'        5.8330    1.0710   25.3940 C.3   799  DP9799      0.1146
     17  CD'        4.9530    0.5540   26.5620 C.3   799  DP9799      0.1108
     18  N'         5.1760    1.5850   27.6040 N.3   799  DP9799     -0.2083
     19  CA'        5.6620    2.8670   27.0480 C.3   799  DP9799      0.1538
     20  C'         4.5880    3.9070   27.4300 C.2   799  DP9799      0.2766
     21  O'         3.5170    3.5810   27.9320 O.2   799  DP9799     -0.2701
     22  N1'        4.7860    5.1980   27.2350 N.am  799  DP9799     -0.0866
     23  CB'        5.7120    2.5900   25.5390 C.3   799  DP9799      0.0499
@<TRIPOS>BOND
     1     5     4    2
     2     4     6    2
     3     4     3    1
     4     3     2    1
     5     9    10    1
     6     9     8    1
     7     2     1    2
     8     2     7    1
     9    10    11    1
    10     8     7    1
    11    14    13    2
    12    11    13    1
    13    11    12    1
    14    13    15   am
    15    16    15    1
    16    16    23    1
    17    16    17    1
    18    23    19    1
    19    17    18    1
    20    19    20    1
    21    19    18    1
    22    22    20   am
    23    20    21    2
