@<TRIPOS>MOLECULE
1zzq_HEM_A_1.pdb
 43 50 0 0 0
SMALL
GASTEIGER

@<TRIPOS>ATOM
      1 FE         15.7690    4.4460   24.3980 Fe    750  HEM750      0.0000
      2  CHA       13.0140    4.5950   26.4290 C.2   750  HEM750      0.0000
      3  CHB       16.6930    1.4960   25.9830 C.2   750  HEM750      0.0000
      4  CHC       17.7230    3.4910   21.7120 C.2   750  HEM750      0.0000
      5  CHD       14.5370    7.1090   22.6310 C.2   750  HEM750      0.0000
      6  NA        15.0560    3.3240   25.8700 N.2   750  HEM750      0.0000
      7  C1A       13.8560    3.5200   26.5630 C.2   750  HEM750      0.0000
      8  C2A       13.6330    2.4670   27.5240 C.2   750  HEM750      0.0000
      9  C3A       14.6900    1.6240   27.4730 C.2   750  HEM750      0.0000
     10  C4A       15.5700    2.1620   26.4430 C.2   750  HEM750      0.0000
     11  CMA       14.8950    0.3530   28.3290 C.3   750  HEM750      0.0000
     12  CAA       12.3800    2.2950   28.3670 C.3   750  HEM750      0.0000
     13  CBA       11.3640    1.5620   27.5190 C.3   750  HEM750      0.0000
     14  CGA       10.0800    1.3000   28.2650 C.2   750  HEM750      0.0000
     15  O1A       10.1560    0.9920   29.4790 O.co2 750  HEM750      0.0000
     16  O2A        9.0050    1.3950   27.6430 O.co2 750  HEM750      0.0000
     17  NB        16.9980    2.8970   23.9790 N.ar  750  HEM750      0.0000
     18  C1B       17.3360    1.8290   24.8050 C.ar  750  HEM750      0.0000
     19  C2B       18.4320    1.0510   24.2610 C.ar  750  HEM750      0.0000
     20  C3B       18.7560    1.5730   23.0750 C.ar  750  HEM750      0.0000
     21  C4B       17.8440    2.7150   22.8760 C.ar  750  HEM750      0.0000
     22  CMB       19.0680   -0.1700   24.9140 C.3   750  HEM750      0.0000
     23  CAB       19.8230    1.0270   22.3300 C.2   750  HEM750      0.0000
     24  CBB       20.2920    1.3700   21.1100 C.2   750  HEM750      0.0000
     25  NC        15.9920    5.0870   22.5310 N.2   750  HEM750      0.0000
     26  C1C       16.8100    4.5620   21.5340 C.2   750  HEM750      0.0000
     27  C2C       16.8260    5.3910   20.3570 C.2   750  HEM750      0.0000
     28  C3C       16.0340    6.5110   20.6650 C.2   750  HEM750      0.0000
     29  C4C       15.5250    6.2820   21.9890 C.2   750  HEM750      0.0000
     30  CMC       17.5580    5.0230   19.0470 C.3   750  HEM750      0.0000
     31  CAC       15.6420    7.5880   19.8450 C.2   750  HEM750      0.0000
     32  CBC       16.2030    7.8730   18.6440 C.2   750  HEM750      0.0000
     33  ND        14.2010    5.6680   24.5910 N.ar  750  HEM750      0.0000
     34  C1D       13.9070    6.8000   23.8470 C.ar  750  HEM750      0.0000
     35  C2D       12.7600    7.4860   24.4070 C.ar  750  HEM750      0.0000
     36  C3D       12.3000    6.7540   25.4520 C.ar  750  HEM750      0.0000
     37  C4D       13.1720    5.6080   25.5330 C.ar  750  HEM750      0.0000
     38  CMD       12.1900    8.7980   23.8580 C.3   750  HEM750      0.0000
     39  CAD       11.0530    6.9510   26.3270 C.3   750  HEM750      0.0000
     40  CBD        9.8370    6.5450   25.4900 C.3   750  HEM750      0.0000
     41  CGD        8.5500    6.5250   26.3020 C.2   750  HEM750      0.0000
     42  O1D        8.3290    7.4860   27.0560 O.co2 750  HEM750      0.0000
     43  O2D        7.7650    5.5540   26.1820 O.co2 750  HEM750      0.0000
@<TRIPOS>BOND
     1    32    31    2
     2    30    27    1
     3    31    28    1
     4    27    28    2
     5    27    26    1
     6    28    29    1
     7    24    23    2
     8    26     4    2
     9    26    25    1
    10     4    21    1
    11    29    25    2
    12    29     5    1
    13    23    20    1
    14    25     1    1
    15     5    34    2
    16    21    20   ar
    17    21    17   ar
    18    20    19   ar
    19    34    35   ar
    20    34    33   ar
    21    38    35    1
    22    17     1    1
    23    17    18   ar
    24    19    18   ar
    25    19    22    1
    26     1    33    1
    27     1     6    1
    28    35    36   ar
    29    33    37   ar
    30    18     3    1
    31    36    37   ar
    32    36    39    1
    33    40    41    1
    34    40    39    1
    35    37     2    2
    36     6    10    1
    37     6     7    2
    38     3    10    2
    39    43    41   ar
    40    41    42   ar
    41     2     7    1
    42    10     9    1
    43     7     8    1
    44     9     8    2
    45     9    11    1
    46    13    14    1
    47    13    12    1
    48     8    12    1
    49    16    14   ar
    50    14    15   ar
