@<TRIPOS>MOLECULE
1zzq_MTL_A_1.pdb
 12 11 0 0 0
SMALL
GASTEIGER

@<TRIPOS>ATOM
      1  O1         1.5780    3.6860   23.6370 O.3   870  MTL870     -0.2175
      2  C1         0.3910    4.4620   23.8950 C.3   870  MTL870      0.2175
      3  C2        -0.7790    4.0260   22.9590 C.3   870  MTL870      0.2175
      4  O2        -0.3360    4.0960   21.5950 O.3   870  MTL870     -0.2175
      5  C3        -1.2390    2.5700   23.2740 C.3   870  MTL870      0.2175
      6  O3        -1.5840    2.4440   24.6700 O.3   870  MTL870     -0.2175
      7  C4        -2.4830    2.2050   22.4210 C.3   870  MTL870      0.2175
      8  O4        -3.6400    2.8560   22.9710 O.3   870  MTL870     -0.2175
      9  C5        -2.6990    0.6680   22.4340 C.3   870  MTL870      0.2175
     10  O5        -1.4710    0.0150   22.0770 O.3   870  MTL870     -0.2175
     11  C6        -3.8000    0.2750   21.4110 C.3   870  MTL870      0.2175
     12  O6        -4.2230   -1.0750   21.6380 O.3   870  MTL870     -0.2175
@<TRIPOS>BOND
     1    11    12    1
     2    11     9    1
     3     4     3    1
     4    10     9    1
     5     7     9    1
     6     7     8    1
     7     7     5    1
     8     3     5    1
     9     3     2    1
    10     5     6    1
    11     1     2    1
