@<TRIPOS>MOLECULE
1zzq_H4B_A_1.pdb
 17 18 0 0 0
SMALL
GASTEIGER

@<TRIPOS>ATOM
      1  N1         9.9530    2.5500   33.8280 N.2   760  H4B760     -0.2683
      2  C2        10.1150    2.1510   32.5470 C.1   760  H4B760      0.2608
      3  N2        11.3260    2.0350   31.9850 N.pl3 760  H4B760     -0.0220
      4  N3         9.0000    1.8700   31.8230 N.2   760  H4B760     -0.2474
      5  C4         7.6710    1.9700   32.3210 C.1   760  H4B760      0.2441
      6  O4         6.7270    1.6870   31.5670 O.2   760  H4B760     -0.2063
      7  C4A        7.5960    2.4070   33.6750 C.2   760  H4B760      0.2463
      8  C8A        8.7270    2.6850   34.4290 C.1   760  H4B760      0.1270
      9  N5         6.2620    2.5540   34.2640 N.2   760  H4B760     -0.2460
     10  N8         8.6690    3.0880   35.7070 N.2   760  H4B760     -0.2054
     11  C6         6.2280    3.5470   35.4220 C.3   760  H4B760      0.1627
     12  C7         7.3740    3.2430   36.3810 C.3   760  H4B760      0.1643
     13  C9         4.8200    3.4450   36.0510 C.3   760  H4B760      0.2063
     14  O9         4.4680    2.1430   36.4920 O.3   760  H4B760     -0.2183
     15  C10        4.6470    4.4120   37.2460 C.3   760  H4B760      0.1842
     16  C11        3.2230    4.4660   37.6910 C.3   760  H4B760      0.0383
     17  O10        5.0520    5.7020   36.7470 O.3   760  H4B760     -0.2204
@<TRIPOS>BOND
     1     6     5    2
     2     4     5    2
     3     4     2    2
     4     3     2    1
     5     5     7    1
     6     2     1    2
     7     7     9    2
     8     7     8    1
     9     1     8    2
    10     9    11    1
    11     8    10    2
    12    11    13    1
    13    11    12    1
    14    10    12    1
    15    13    14    1
    16    13    15    1
    17    17    15    1
    18    15    16    1
