@<TRIPOS>MOLECULE
1zzr_HEM_A_1.pdb
 43 50 0 0 0
SMALL
GASTEIGER

@<TRIPOS>ATOM
      1  CHA       12.9910    4.4720   26.6090 C.2   750  HEM750      0.0000
      2  CHB       16.7790    1.4340   26.0180 C.2   750  HEM750      0.0000
      3  CHC       17.5590    3.4950   21.7320 C.2   750  HEM750      0.0000
      4  CHD       14.4090    7.0770   22.7330 C.2   750  HEM750      0.0000
      5  C1A       13.8860    3.4310   26.7890 C.2   750  HEM750      0.0000
      6  C2A       13.7810    2.4270   27.8190 C.2   750  HEM750      0.0000
      7  C3A       14.8440    1.5830   27.6560 C.2   750  HEM750      0.0000
      8  C4A       15.5930    2.0560   26.5140 C.2   750  HEM750      0.0000
      9  CMA       15.1060    0.3100   28.4930 C.3   750  HEM750      0.0000
     10  CAA       12.5810    2.1470   28.7300 C.3   750  HEM750      0.0000
     11  CBA       11.5670    1.4150   27.8250 C.3   750  HEM750      0.0000
     12  CGA       10.2170    1.1900   28.4890 C.2   750  HEM750      0.0000
     13  O1A       10.2070    0.8980   29.6990 O.co2 750  HEM750      0.0000
     14  O2A        9.1730    1.2880   27.8010 O.co2 750  HEM750      0.0000
     15  C1B       17.4260    1.8100   24.8700 C.ar  750  HEM750      0.0000
     16  C2B       18.5430    1.0750   24.2730 C.ar  750  HEM750      0.0000
     17  C3B       18.7470    1.6200   23.0530 C.ar  750  HEM750      0.0000
     18  C4B       17.7550    2.7010   22.8960 C.ar  750  HEM750      0.0000
     19  CMB       19.3700   -0.1290   24.8340 C.3   750  HEM750      0.0000
     20  CAB       19.6820    1.0540   22.1670 C.2   750  HEM750      0.0000
     21  CBB       20.4170    1.6320   21.1740 C.2   750  HEM750      0.0000
     22  C1C       16.7150    4.6050   21.6040 C.2   750  HEM750      0.0000
     23  C2C       16.7390    5.4630   20.4530 C.2   750  HEM750      0.0000
     24  C3C       15.8850    6.5070   20.7480 C.2   750  HEM750      0.0000
     25  C4C       15.3830    6.2880   22.0870 C.2   750  HEM750      0.0000
     26  CMC       17.5500    5.2160   19.1550 C.3   750  HEM750      0.0000
     27  CAC       15.3890    7.4730   19.8690 C.2   750  HEM750      0.0000
     28  CBC       16.0120    7.8620   18.7290 C.2   750  HEM750      0.0000
     29  C1D       13.8150    6.7720   23.9610 C.ar  750  HEM750      0.0000
     30  C2D       12.6370    7.4120   24.4760 C.ar  750  HEM750      0.0000
     31  C3D       12.2180    6.6190   25.5300 C.ar  750  HEM750      0.0000
     32  C4D       13.1070    5.5030   25.6410 C.ar  750  HEM750      0.0000
     33  CMD       12.0360    8.7770   24.0070 C.3   750  HEM750      0.0000
     34  CAD       11.0380    6.8200   26.4710 C.3   750  HEM750      0.0000
     35  CBD        9.7930    6.4560   25.6630 C.3   750  HEM750      0.0000
     36  CGD        8.5290    6.4260   26.5110 C.2   750  HEM750      0.0000
     37  O1D        8.3200    7.3770   27.2880 O.co2 750  HEM750      0.0000
     38  O2D        7.7440    5.4570   26.3940 O.co2 750  HEM750      0.0000
     39  NA        14.9980    3.2150   25.9750 N.2   750  HEM750      0.0000
     40  NB        16.9700    2.8410   24.0470 N.ar  750  HEM750      0.0000
     41  NC        15.9150    5.1170   22.6270 N.2   750  HEM750      0.0000
     42  ND        14.1350    5.6230   24.7120 N.ar  750  HEM750      0.0000
     43 FE         15.7140    4.3890   24.4740 Fe    750  HEM750      0.0000
@<TRIPOS>BOND
     1    28    27    2
     2    26    23    1
     3    27    24    1
     4    23    24    2
     5    23    22    1
     6    24    25    1
     7    21    20    2
     8    22     3    2
     9    22    41    1
    10     3    18    1
    11    25    41    2
    12    25     4    1
    13    20    17    1
    14    41    43    1
    15     4    29    2
    16    18    17   ar
    17    18    40   ar
    18    17    16   ar
    19    29    30   ar
    20    29    42   ar
    21    33    30    1
    22    40    43    1
    23    40    15   ar
    24    16    19    1
    25    16    15   ar
    26    43    42    1
    27    43    39    1
    28    30    31   ar
    29    42    32   ar
    30    15     2    1
    31    31    32   ar
    32    31    34    1
    33    32     1    2
    34    35    34    1
    35    35    36    1
    36    39     8    1
    37    39     5    2
    38     2     8    2
    39    38    36   ar
    40    36    37   ar
    41     8     7    1
    42     1     5    1
    43     5     6    1
    44     7     6    2
    45     7     9    1
    46    14    12   ar
    47     6    10    1
    48    11    12    1
    49    11    10    1
    50    12    13   ar
