@<TRIPOS>MOLECULE
1zzr_DP9_A_1.pdb
 23 23 0 0 0
SMALL
GASTEIGER

@<TRIPOS>ATOM
      1  NH2       14.4300   -0.4410   23.7820 N.pl3 799  DP9799      0.1343
      2  CZ        13.4900    0.4300   23.3880 C.cat 799  DP9799      0.5245
      3  NH1       13.6600    1.2390   22.3380 N.pl3 799  DP9799      0.1075
      4  NO        14.6710    1.3700   21.4650 N.pl3 799  DP9799      0.2221
      5  O2        14.5150    2.2120   20.4960 O.2   799  DP9799     -0.0910
      6  O3        15.7770    0.7010   21.5470 O.2   799  DP9799     -0.0910
      7  NE        12.3540    0.4580   24.1080 N.pl3 799  DP9799     -0.0874
      8  CD        11.1240    1.2790   23.9810 C.3   799  DP9799      0.2204
      9  CG        10.0470    0.5320   23.1810 C.3   799  DP9799      0.0489
     10  CB         9.6580   -0.8310   23.7930 C.3   799  DP9799      0.0321
     11  CA         9.0030   -0.7460   25.1950 C.3   799  DP9799      0.1694
     12  N          9.3950   -2.0040   25.9020 N.3   799  DP9799     -0.1231
     13  C          7.4630   -0.5520   25.1460 C.2   799  DP9799      0.2588
     14  O          6.7080   -1.5240   25.0530 O.2   799  DP9799     -0.2718
     15  N2'        7.0170    0.7070   25.2070 N.am  799  DP9799     -0.2044
     16  CG'        5.5610    1.1340   25.2910 C.3   799  DP9799      0.1146
     17  CD'        4.8130    0.6580   26.5720 C.3   799  DP9799      0.1108
     18  N'         5.1270    1.7450   27.5350 N.3   799  DP9799     -0.2083
     19  CA'        5.5130    3.0160   26.8530 C.3   799  DP9799      0.1538
     20  C'         4.5130    4.0770   27.3480 C.2   799  DP9799      0.2766
     21  O'         3.3310    3.8200   27.5630 O.2   799  DP9799     -0.2701
     22  N1'        4.8980    5.3190   27.5670 N.am  799  DP9799     -0.0866
     23  CB'        5.3770    2.6590   25.3500 C.3   799  DP9799      0.0499
@<TRIPOS>BOND
     1     5     4    2
     2     4     6    2
     3     4     3    1
     4     3     2    1
     5     9    10    1
     6     9     8    1
     7     2     1    2
     8     2     7    1
     9    10    11    1
    10     8     7    1
    11    14    13    2
    12    13    11    1
    13    13    15   am
    14    11    12    1
    15    15    16    1
    16    16    23    1
    17    16    17    1
    18    23    19    1
    19    17    18    1
    20    19    20    1
    21    19    18    1
    22    20    21    2
    23    20    22   am
