@<TRIPOS>MOLECULE
1zzr_H4B_A_1.pdb
 17 18 0 0 0
SMALL
GASTEIGER

@<TRIPOS>ATOM
      1  N1        10.1090    2.5390   33.9670 N.2   760  H4B760     -0.2683
      2  C2        10.2770    2.1330   32.6870 C.1   760  H4B760      0.2608
      3  N2        11.4780    2.0270   32.1230 N.pl3 760  H4B760     -0.0220
      4  N3         9.1650    1.8290   31.9670 N.2   760  H4B760     -0.2474
      5  C4         7.8360    1.9050   32.4510 C.1   760  H4B760      0.2441
      6  O4         6.8980    1.6010   31.6970 O.2   760  H4B760     -0.2063
      7  C4A        7.7480    2.3440   33.7970 C.2   760  H4B760      0.2463
      8  C8A        8.8740    2.6500   34.5570 C.1   760  H4B760      0.1270
      9  N5         6.4000    2.4580   34.3780 N.2   760  H4B760     -0.2460
     10  N8         8.8050    3.0550   35.8390 N.2   760  H4B760     -0.2054
     11  C6         6.3390    3.4280   35.5560 C.3   760  H4B760      0.1627
     12  C7         7.5120    3.1730   36.5160 C.3   760  H4B760      0.1643
     13  C9         4.9450    3.2810   36.1920 C.3   760  H4B760      0.2063
     14  O9         4.6050    1.9670   36.5820 O.3   760  H4B760     -0.2183
     15  C10        4.7730    4.2000   37.4100 C.3   760  H4B760      0.1842
     16  C11        3.3630    4.2140   37.8810 C.3   760  H4B760      0.0383
     17  O10        5.1640    5.4990   36.9590 O.3   760  H4B760     -0.2204
@<TRIPOS>BOND
     1     6     5    2
     2     4     5    2
     3     4     2    2
     4     3     2    1
     5     5     7    1
     6     2     1    2
     7     7     9    2
     8     7     8    1
     9     1     8    2
    10     9    11    1
    11     8    10    2
    12    11    13    1
    13    11    12    1
    14    10    12    1
    15    13    14    1
    16    13    15    1
    17    17    15    1
    18    15    16    1
