@<TRIPOS>MOLECULE
1zzs_H4B_A_1.pdb
 17 18 0 0 0
SMALL
GASTEIGER

@<TRIPOS>ATOM
      1  N1         8.4320   11.8000   42.9320 N.2   760  H4B760     -0.2683
      2  C2         8.3470   12.1420   41.6300 C.1   760  H4B760      0.2608
      3  N2         7.5350   11.5290   40.7800 N.pl3 760  H4B760     -0.0220
      4  N3         9.1460   13.1590   41.1880 N.2   760  H4B760     -0.2474
      5  C4        10.0670   13.8770   41.9780 C.1   760  H4B760      0.2441
      6  O4        10.7480   14.7880   41.4550 O.2   760  H4B760     -0.2063
      7  C4A       10.1090   13.4570   43.3160 C.2   760  H4B760      0.2463
      8  C8A        9.2970   12.4290   43.8050 C.1   760  H4B760      0.1270
      9  N5        11.0700   14.1530   44.1930 N.2   760  H4B760     -0.2460
     10  N8         9.3220   12.0220   45.0700 N.2   760  H4B760     -0.2054
     11  C6        11.4730   13.2930   45.3990 C.3   760  H4B760      0.1627
     12  C7        10.2290   12.6490   46.0500 C.3   760  H4B760      0.1643
     13  C9        12.3060   14.2070   46.3240 C.3   760  H4B760      0.2063
     14  O9        11.6830   15.4500   46.6430 O.3   760  H4B760     -0.2183
     15  C10       12.7190   13.4600   47.6360 C.3   760  H4B760      0.1842
     16  C11       13.7070   14.2490   48.4510 C.3   760  H4B760      0.0383
     17  O10       13.3160   12.2270   47.1960 O.3   760  H4B760     -0.2204
@<TRIPOS>BOND
     1     3     2    1
     2     4     2    2
     3     4     5    2
     4     6     5    2
     5     2     1    2
     6     5     7    1
     7     1     8    2
     8     7     8    1
     9     7     9    2
    10     8    10    2
    11     9    11    1
    12    10    12    1
    13    11    12    1
    14    11    13    1
    15    13    14    1
    16    13    15    1
    17    17    15    1
    18    15    16    1
