@<TRIPOS>MOLECULE
1zzs_DP9_A_1.pdb
 23 23 0 0 0
SMALL
GASTEIGER

@<TRIPOS>ATOM
      1  NH2        5.5400   12.0000   31.8240 N.pl3 799  DP9799      0.1343
      2  CZ         6.8860   12.0450   31.7490 C.cat 799  DP9799      0.5245
      3  NH1        7.5620   11.5600   30.7170 N.pl3 799  DP9799      0.1075
      4  NO         7.1330   10.8770   29.6700 N.pl3 799  DP9799      0.2221
      5  O2         8.0130   10.3540   28.9020 O.2   799  DP9799     -0.0910
      6  O3         5.8880   10.7220   29.4250 O.2   799  DP9799     -0.0910
      7  NE         7.5470   12.6070   32.7500 N.pl3 799  DP9799     -0.0874
      8  CD         9.0040   12.7890   32.9000 C.3   799  DP9799      0.2204
      9  CG         9.3790   14.1600   32.3080 C.3   799  DP9799      0.0489
     10  CB         8.5700   15.3200   32.9500 C.3   799  DP9799      0.0321
     11  CA         8.9290   15.5920   34.4430 C.3   799  DP9799      0.1694
     12  N          7.7090   16.1860   35.0700 N.3   799  DP9799     -0.1231
     13  C         10.1640   16.5180   34.6130 C.2   799  DP9799      0.2588
     14  O         10.0350   17.7380   34.4860 O.2   799  DP9799     -0.2718
     15  N2'       11.3410   15.9240   34.8770 N.am  799  DP9799     -0.2044
     16  CG'       12.6240   16.5980   35.3550 C.3   799  DP9799      0.1146
     17  CD'       12.5270   17.2650   36.7510 C.3   799  DP9799      0.1108
     18  N'        12.8360   16.1290   37.6560 N.3   799  DP9799     -0.2083
     19  CA'       13.5960   15.0490   36.9790 C.3   799  DP9799      0.1538
     20  C'        14.9010   14.9250   37.7880 C.2   799  DP9799      0.2766
     21  O'        15.4570   15.9110   38.2760 O.2   799  DP9799     -0.2701
     22  N1'       15.4660   13.7410   37.9990 N.am  799  DP9799     -0.0866
     23  CB'       13.7870   15.6180   35.5530 C.3   799  DP9799      0.0499
@<TRIPOS>BOND
     1     5     4    2
     2     6     4    2
     3     4     3    1
     4     3     2    1
     5     2     1    2
     6     2     7    1
     7     9     8    1
     8     9    10    1
     9     7     8    1
    10    10    11    1
    11    11    13    1
    12    11    12    1
    13    14    13    2
    14    13    15   am
    15    15    16    1
    16    16    23    1
    17    16    17    1
    18    23    19    1
    19    17    18    1
    20    19    18    1
    21    19    20    1
    22    20    22   am
    23    20    21    2
