@<TRIPOS>MOLECULE
1zzs_HEM_A_1.pdb
 43 50 0 0 0
SMALL
GASTEIGER

@<TRIPOS>ATOM
      1  CHA        9.3740    9.0340   35.1170 C.2   700  HEM700      0.0000
      2  CHB        4.7740    9.1050   33.6040 C.2   700  HEM700      0.0000
      3  CHC        6.2120    7.3250   29.4010 C.2   700  HEM700      0.0000
      4  CHD       10.6340    6.5170   31.1090 C.2   700  HEM700      0.0000
      5  C1A        7.9870    9.2440   35.0620 C.2   700  HEM700      0.0000
      6  C2A        7.2270   10.0300   36.0140 C.2   700  HEM700      0.0000
      7  C3A        5.9090   10.0540   35.6110 C.2   700  HEM700      0.0000
      8  C4A        5.8930    9.2530   34.3900 C.2   700  HEM700      0.0000
      9  CMA        4.7300   10.7800   36.3180 C.3   700  HEM700      0.0000
     10  CAA        7.8410   10.8670   37.1440 C.3   700  HEM700      0.0000
     11  CBA        8.4010   12.1450   36.5180 C.3   700  HEM700      0.0000
     12  CGA        8.8910   13.1510   37.5490 C.2   700  HEM700      0.0000
     13  O1A        8.2440   13.2660   38.6160 O.co2 700  HEM700      0.0000
     14  O2A        9.9130   13.8320   37.2760 O.co2 700  HEM700      0.0000
     15  C1B        4.7410    8.4920   32.3680 C.ar  700  HEM700      0.0000
     16  C2B        3.5710    8.4780   31.5150 C.ar  700  HEM700      0.0000
     17  C3B        3.9200    7.9490   30.3440 C.ar  700  HEM700      0.0000
     18  C4B        5.3540    7.6880   30.4620 C.ar  700  HEM700      0.0000
     19  CMB        2.1920    8.9960   31.9150 C.3   700  HEM700      0.0000
     20  CAB        3.0350    7.8160   29.2520 C.3   700  HEM700      0.0000
     21  CBB        3.1440    6.9100   28.2110 C.3   700  HEM700      0.0000
     22  C1C        7.5630    7.0540   29.4850 C.2   700  HEM700      0.0000
     23  C2C        8.3580    6.5990   28.3670 C.2   700  HEM700      0.0000
     24  C3C        9.5910    6.2810   28.8650 C.2   700  HEM700      0.0000
     25  C4C        9.5400    6.6260   30.2660 C.2   700  HEM700      0.0000
     26  CMC        7.8920    6.5000   26.9090 C.3   700  HEM700      0.0000
     27  CAC       10.7350    5.7450   28.2210 C.3   700  HEM700      0.0000
     28  CBC       10.7670    5.0620   27.0220 C.3   700  HEM700      0.0000
     29  C1D       10.6730    7.1220   32.4030 C.ar  700  HEM700      0.0000
     30  C2D       11.8590    7.2300   33.2020 C.ar  700  HEM700      0.0000
     31  C3D       11.5400    8.0100   34.2940 C.ar  700  HEM700      0.0000
     32  C4D       10.1380    8.3120   34.1700 C.ar  700  HEM700      0.0000
     33  CMD       13.2340    6.6500   32.8650 C.3   700  HEM700      0.0000
     34  CAD       12.5080    8.5280   35.3770 C.3   700  HEM700      0.0000
     35  CBD       13.0280    9.9060   34.9780 C.3   700  HEM700      0.0000
     36  CGD       13.7530   10.6150   36.1080 C.2   700  HEM700      0.0000
     37  O1D       14.3080    9.9200   36.9850 O.co2 700  HEM700      0.0000
     38  O2D       13.7700   11.8740   36.1020 O.co2 700  HEM700      0.0000
     39  NA         7.1640    8.7800   34.0460 N.2   700  HEM700      0.0000
     40  NB         5.8210    7.9360   31.7590 N.ar  700  HEM700      0.0000
     41  NC         8.2830    7.0760   30.6540 N.2   700  HEM700      0.0000
     42  ND         9.5990    7.7250   33.0090 N.ar  700  HEM700      0.0000
     43 FE          7.6390    7.6160   32.4950 Fe    700  HEM700      0.0000
@<TRIPOS>BOND
     1    26    23    1
     2    28    27    1
     3    21    20    1
     4    27    24    1
     5    23    24    2
     6    23    22    1
     7    24    25    1
     8    20    17    1
     9     3    22    2
    10     3    18    1
    11    22    41    1
    12    25    41    2
    13    25     4    1
    14    17    18   ar
    15    17    16   ar
    16    18    40   ar
    17    41    43    1
    18     4    29    2
    19    16    19    1
    20    16    15   ar
    21    40    15   ar
    22    40    43    1
    23    15     2    1
    24    29    42   ar
    25    29    30   ar
    26    43    42    1
    27    43    39    1
    28    33    30    1
    29    42    32   ar
    30    30    31   ar
    31     2     8    2
    32    39     8    1
    33    39     5    2
    34    32    31   ar
    35    32     1    2
    36    31    34    1
    37     8     7    1
    38    35    34    1
    39    35    36    1
    40     5     1    1
    41     5     6    1
    42     7     6    2
    43     7     9    1
    44     6    10    1
    45    38    36   ar
    46    36    37   ar
    47    11    10    1
    48    11    12    1
    49    14    12   ar
    50    12    13   ar
