@<TRIPOS>MOLECULE
1zzt_H4B_A_1.pdb
 17 18 0 0 0
SMALL
GASTEIGER

@<TRIPOS>ATOM
      1  N1         8.1360   11.8410   42.5630 N.2   760  H4B760     -0.2683
      2  C2         8.0830   12.1720   41.2560 C.1   760  H4B760      0.2608
      3  N2         7.2550   11.5860   40.4040 N.pl3 760  H4B760     -0.0220
      4  N3         8.9260   13.1490   40.8170 N.2   760  H4B760     -0.2474
      5  C4         9.8570   13.8410   41.6230 C.1   760  H4B760      0.2441
      6  O4        10.5790   14.7180   41.1110 O.2   760  H4B760     -0.2063
      7  C4A        9.8500   13.4270   42.9730 C.2   760  H4B760      0.2463
      8  C8A        8.9970   12.4390   43.4440 C.1   760  H4B760      0.1270
      9  N5        10.7970   14.0920   43.8690 N.2   760  H4B760     -0.2460
     10  N8         8.9770   12.0430   44.7130 N.2   760  H4B760     -0.2054
     11  C6        11.1590   13.2230   45.0830 C.3   760  H4B760      0.1627
     12  C7         9.8690   12.6500   45.7000 C.3   760  H4B760      0.1643
     13  C9        11.9900   14.1020   46.0410 C.3   760  H4B760      0.2063
     14  O9        11.3620   15.3180   46.4240 O.3   760  H4B760     -0.2183
     15  C10       12.3760   13.3200   47.3170 C.3   760  H4B760      0.1842
     16  C11       13.3490   14.0680   48.1490 C.3   760  H4B760      0.0383
     17  O10       12.9710   12.1190   46.8320 O.3   760  H4B760     -0.2204
@<TRIPOS>BOND
     1     3     2    1
     2     4     2    2
     3     4     5    2
     4     6     5    2
     5     2     1    2
     6     5     7    1
     7     1     8    2
     8     7     8    1
     9     7     9    2
    10     8    10    2
    11     9    11    1
    12    10    12    1
    13    11    12    1
    14    11    13    1
    15    13    14    1
    16    13    15    1
    17    17    15    1
    18    15    16    1
