@<TRIPOS>MOLECULE
1zzt_DP9_A_1.pdb
 23 23 0 0 0
SMALL
GASTEIGER

@<TRIPOS>ATOM
      1  NH2        5.3280   11.9360   31.5080 N.pl3 799  DP9799      0.1343
      2  CZ         6.6370   12.0180   31.4090 C.cat 799  DP9799      0.5245
      3  NH1        7.3070   11.4940   30.3790 N.pl3 799  DP9799      0.1075
      4  NO         6.8700   10.8500   29.3090 N.pl3 799  DP9799      0.2221
      5  O2         7.7450   10.3970   28.4890 O.2   799  DP9799     -0.0910
      6  O3         5.6150   10.6640   29.0740 O.2   799  DP9799     -0.0910
      7  NE         7.2630   12.6450   32.3850 N.pl3 799  DP9799     -0.0874
      8  CD         8.6930   12.9150   32.5800 C.3   799  DP9799      0.2204
      9  CG         8.9950   14.3160   32.0160 C.3   799  DP9799      0.0489
     10  CB         8.1490   15.4130   32.6880 C.3   799  DP9799      0.0321
     11  CA         8.4310   15.5800   34.2230 C.3   799  DP9799      0.1694
     12  N          7.1590   16.0210   34.8540 N.3   799  DP9799     -0.1231
     13  C          9.6010   16.5590   34.5100 C.2   799  DP9799      0.2588
     14  O          9.4330   17.7940   34.4530 O.2   799  DP9799     -0.2718
     15  N2'       10.7830   15.9880   34.7770 N.am  799  DP9799     -0.2044
     16  CG'       12.0480   16.6850   35.2140 C.3   799  DP9799      0.1146
     17  CD'       11.9800   17.3810   36.6090 C.3   799  DP9799      0.1108
     18  N'        12.2500   16.2390   37.5210 N.3   799  DP9799     -0.2083
     19  CA'       12.9710   15.1320   36.8260 C.3   799  DP9799      0.1538
     20  C'        14.2670   14.9510   37.5860 C.2   799  DP9799      0.2766
     21  O'        14.7660   15.8730   38.2270 O.2   799  DP9799     -0.2701
     22  N1'       14.8900   13.7880   37.5800 N.am  799  DP9799     -0.0866
     23  CB'       13.1850   15.6890   35.4080 C.3   799  DP9799      0.0499
@<TRIPOS>BOND
     1     5     4    2
     2     6     4    2
     3     4     3    1
     4     3     2    1
     5     2     1    2
     6     2     7    1
     7     9     8    1
     8     9    10    1
     9     7     8    1
    10    10    11    1
    11    11    13    1
    12    11    12    1
    13    14    13    2
    14    13    15   am
    15    15    16    1
    16    16    23    1
    17    16    17    1
    18    23    19    1
    19    17    18    1
    20    19    18    1
    21    19    20    1
    22    22    20   am
    23    20    21    2
