@<TRIPOS>MOLECULE
1zzt_HEM_A_1.pdb
 43 50 0 0 0
SMALL
GASTEIGER

@<TRIPOS>ATOM
      1 FE          7.4250    7.6370   32.1570 Fe    700  HEM700      0.0000
      2  CHA        9.1150    9.0600   34.7890 C.2   700  HEM700      0.0000
      3  CHB        4.5340    9.1280   33.2780 C.2   700  HEM700      0.0000
      4  CHC        6.0160    7.4350   29.0010 C.2   700  HEM700      0.0000
      5  CHD       10.4170    6.7200   30.7780 C.2   700  HEM700      0.0000
      6  NA         6.9350    8.8130   33.6720 N.2   700  HEM700      0.0000
      7  C1A        7.7520    9.2990   34.6880 C.2   700  HEM700      0.0000
      8  C2A        6.9780   10.0190   35.6830 C.2   700  HEM700      0.0000
      9  C3A        5.6660   10.0220   35.3010 C.2   700  HEM700      0.0000
     10  C4A        5.6500    9.2850   34.0480 C.2   700  HEM700      0.0000
     11  CMA        4.4790   10.6760   36.0350 C.3   700  HEM700      0.0000
     12  CAA        7.5780   10.7770   36.8640 C.3   700  HEM700      0.0000
     13  CBA        7.9590   12.1130   36.2560 C.3   700  HEM700      0.0000
     14  CGA        8.5160   13.0890   37.2710 C.2   700  HEM700      0.0000
     15  O1A        7.9950   13.1110   38.4170 O.co2 700  HEM700      0.0000
     16  O2A        9.4630   13.8430   36.9140 O.co2 700  HEM700      0.0000
     17  NB         5.6580    8.0400   31.4040 N.ar  700  HEM700      0.0000
     18  C1B        4.5420    8.5220   32.0330 C.ar  700  HEM700      0.0000
     19  C2B        3.3690    8.4480   31.1820 C.ar  700  HEM700      0.0000
     20  C3B        3.7440    7.9610   29.9870 C.ar  700  HEM700      0.0000
     21  C4B        5.1860    7.7470   30.1090 C.ar  700  HEM700      0.0000
     22  CMB        1.9610    8.8650   31.5150 C.3   700  HEM700      0.0000
     23  CAB        2.9080    7.7820   28.8760 C.3   700  HEM700      0.0000
     24  CBB        3.0800    6.7720   27.9440 C.3   700  HEM700      0.0000
     25  NC         8.0680    7.2160   30.2920 N.2   700  HEM700      0.0000
     26  C1C        7.3710    7.1730   29.0960 C.2   700  HEM700      0.0000
     27  C2C        8.1680    6.6860   27.9940 C.2   700  HEM700      0.0000
     28  C3C        9.4170    6.4000   28.5300 C.2   700  HEM700      0.0000
     29  C4C        9.3470    6.7380   29.9250 C.2   700  HEM700      0.0000
     30  CMC        7.7190    6.5280   26.5330 C.3   700  HEM700      0.0000
     31  CAC       10.5640    5.8870   27.8940 C.2   700  HEM700      0.0000
     32  CBC       10.6410    5.1230   26.7670 C.2   700  HEM700      0.0000
     33  ND         9.3130    7.7950   32.6600 N.ar  700  HEM700      0.0000
     34  C1D       10.4130    7.2340   32.0540 C.ar  700  HEM700      0.0000
     35  C2D       11.6140    7.3770   32.8720 C.ar  700  HEM700      0.0000
     36  C3D       11.2440    8.1170   33.9540 C.ar  700  HEM700      0.0000
     37  C4D        9.8410    8.3540   33.8390 C.ar  700  HEM700      0.0000
     38  CMD       13.0610    6.8800   32.5960 C.3   700  HEM700      0.0000
     39  CAD       12.1510    8.6890   35.0510 C.3   700  HEM700      0.0000
     40  CBD       12.6080   10.0600   34.5910 C.3   700  HEM700      0.0000
     41  CGD       13.4040   10.7880   35.6470 C.2   700  HEM700      0.0000
     42  O1D       14.0610   10.1080   36.4650 O.co2 700  HEM700      0.0000
     43  O2D       13.3790   12.0430   35.6530 O.co2 700  HEM700      0.0000
@<TRIPOS>BOND
     1    30    27    1
     2    32    31    2
     3    31    28    1
     4    24    23    1
     5    27    28    2
     6    27    26    1
     7    28    29    1
     8    23    20    1
     9     4    26    2
    10     4    21    1
    11    26    25    1
    12    29    25    2
    13    29     5    1
    14    20    21   ar
    15    20    19   ar
    16    21    17   ar
    17    25     1    1
    18     5    34    2
    19    19    22    1
    20    19    18   ar
    21    17    18   ar
    22    17     1    1
    23    18     3    1
    24    34    33   ar
    25    34    35   ar
    26     1    33    1
    27     1     6    1
    28    38    35    1
    29    33    37   ar
    30    35    36   ar
    31     3    10    2
    32     6    10    1
    33     6     7    2
    34    37    36   ar
    35    37     2    2
    36    36    39    1
    37    10     9    1
    38    40    39    1
    39    40    41    1
    40     7     2    1
    41     7     8    1
    42     9     8    2
    43     9    11    1
    44    41    43   ar
    45    41    42   ar
    46     8    12    1
    47    13    12    1
    48    13    14    1
    49    16    14   ar
    50    14    15   ar
