@<TRIPOS>MOLECULE
1zzu_HEM_A_1.pdb
 43 50 0 0 0
SMALL
GASTEIGER

@<TRIPOS>ATOM
      1  CHA       13.0550    4.5900   26.6260 C.2   750  HEM750      0.0000
      2  CHB       16.6960    1.4320   25.9780 C.2   750  HEM750      0.0000
      3  CHC       17.6810    3.5880   21.7840 C.2   750  HEM750      0.0000
      4  CHD       14.5390    7.1380   22.7640 C.2   750  HEM750      0.0000
      5  C1A       13.8740    3.4560   26.7160 C.2   750  HEM750      0.0000
      6  C2A       13.6440    2.3570   27.6410 C.2   750  HEM750      0.0000
      7  C3A       14.6910    1.5020   27.5210 C.2   750  HEM750      0.0000
      8  C4A       15.5590    2.0680   26.4860 C.2   750  HEM750      0.0000
      9  CMA       14.9170    0.2030   28.3130 C.3   750  HEM750      0.0000
     10  CAA       12.3810    2.1890   28.4730 C.3   750  HEM750      0.0000
     11  CBA       11.3220    1.4870   27.6210 C.3   750  HEM750      0.0000
     12  CGA       10.0290    1.2510   28.3690 C.2   750  HEM750      0.0000
     13  O1A       10.0940    0.8890   29.5690 O.co2 750  HEM750      0.0000
     14  O2A        8.9540    1.4100   27.7530 O.co2 750  HEM750      0.0000
     15  C1B       17.4000    1.8680   24.8480 C.ar  750  HEM750      0.0000
     16  C2B       18.4930    1.1280   24.2690 C.ar  750  HEM750      0.0000
     17  C3B       18.7670    1.6730   23.0670 C.ar  750  HEM750      0.0000
     18  C4B       17.8370    2.7940   22.9240 C.ar  750  HEM750      0.0000
     19  CMB       19.1720   -0.0910   24.8880 C.3   750  HEM750      0.0000
     20  CAB       19.7420    1.1100   22.2240 C.2   750  HEM750      0.0000
     21  CBB       20.4710    1.7200   21.2700 C.2   750  HEM750      0.0000
     22  C1C       16.8220    4.6690   21.6460 C.2   750  HEM750      0.0000
     23  C2C       16.8020    5.4930   20.4550 C.2   750  HEM750      0.0000
     24  C3C       15.9970    6.5560   20.7530 C.2   750  HEM750      0.0000
     25  C4C       15.4950    6.3340   22.0980 C.2   750  HEM750      0.0000
     26  CMC       17.5650    5.1370   19.1630 C.3   750  HEM750      0.0000
     27  CAC       15.6340    7.6450   19.9460 C.2   750  HEM750      0.0000
     28  CBC       16.2240    8.0200   18.7800 C.2   750  HEM750      0.0000
     29  C1D       13.9130    6.8070   23.9670 C.ar  750  HEM750      0.0000
     30  C2D       12.8260    7.5400   24.5850 C.ar  750  HEM750      0.0000
     31  C3D       12.3890    6.7880   25.6450 C.ar  750  HEM750      0.0000
     32  C4D       13.2120    5.6150   25.6880 C.ar  750  HEM750      0.0000
     33  CMD       12.2010    8.8560   24.0880 C.3   750  HEM750      0.0000
     34  CAD       11.2190    7.0640   26.6010 C.3   750  HEM750      0.0000
     35  CBD        9.8860    6.7220   25.9250 C.3   750  HEM750      0.0000
     36  CGD        8.6750    6.9530   26.8250 C.2   750  HEM750      0.0000
     37  O1D        8.6400    7.9720   27.5340 O.co2 750  HEM750      0.0000
     38  O2D        7.7450    6.1210   26.8060 O.co2 750  HEM750      0.0000
     39  NA        15.0490    3.2630   25.9840 N.2   750  HEM750      0.0000
     40  NB        17.0350    2.9500   24.0550 N.ar  750  HEM750      0.0000
     41  NC        16.0100    5.1720   22.6490 N.2   750  HEM750      0.0000
     42  ND        14.1960    5.6540   24.6970 N.ar  750  HEM750      0.0000
     43 FE         15.7960    4.4690   24.5240 Fe    750  HEM750      0.0000
@<TRIPOS>BOND
     1    28    27    2
     2    26    23    1
     3    27    24    1
     4    23    24    2
     5    23    22    1
     6    24    25    1
     7    21    20    2
     8    22     3    2
     9    22    41    1
    10     3    18    1
    11    25    41    2
    12    25     4    1
    13    20    17    1
    14    41    43    1
    15     4    29    2
    16    18    17   ar
    17    18    40   ar
    18    17    16   ar
    19    29    30   ar
    20    29    42   ar
    21    40    43    1
    22    40    15   ar
    23    33    30    1
    24    16    15   ar
    25    16    19    1
    26    43    42    1
    27    43    39    1
    28    30    31   ar
    29    42    32   ar
    30    15     2    1
    31    31    32   ar
    32    31    34    1
    33    32     1    2
    34    35    34    1
    35    35    36    1
    36     2     8    2
    37    39     8    1
    38    39     5    2
    39     8     7    1
    40     1     5    1
    41     5     6    1
    42    38    36   ar
    43    36    37   ar
    44     7     6    2
    45     7     9    1
    46    11    12    1
    47    11    10    1
    48     6    10    1
    49    14    12   ar
    50    12    13   ar
