@<TRIPOS>MOLECULE
1zzu_DP1_A_1.pdb
 22 21 0 0 0
SMALL
GASTEIGER

@<TRIPOS>ATOM
      1  NH2       14.4710   -0.3440   23.6250 N.pl3 790  DP1790      0.1343
      2  CZ        13.5110    0.4840   23.3090 C.cat 790  DP1790      0.5245
      3  NH1       13.6670    1.4020   22.4260 N.pl3 790  DP1790      0.1075
      4  NO        14.6340    1.4370   21.4250 N.pl3 790  DP1790      0.2221
      5  O2        14.5210    2.2260   20.5150 O.2   790  DP1790     -0.0910
      6  O3        15.5920    0.6950   21.4490 O.2   790  DP1790     -0.0910
      7  NE        12.3450    0.3460   23.9480 N.pl3 790  DP1790     -0.0874
      8  CD        11.1260    1.1890   23.7390 C.3   790  DP1790      0.2204
      9  CG         9.8890    0.3410   24.0780 C.3   790  DP1790      0.0489
     10  CB         8.5660    1.1380   23.9560 C.3   790  DP1790      0.0321
     11  CA         7.4790    0.6680   24.9540 C.3   790  DP1790      0.1694
     12  N          7.3620   -0.7830   24.8380 N.3   790  DP1790     -0.1231
     13  C          6.1060    1.3390   24.7220 C.2   790  DP1790      0.2592
     14  O          5.1250    0.6830   24.3860 O.2   790  DP1790     -0.2718
     15  N'         6.0440    2.6510   24.9240 N.am  790  DP1790     -0.1965
     16  CA'        4.7990    3.4330   24.7730 C.3   790  DP1790      0.1759
     17  C'         4.5860    3.9610   23.3340 C.2   790  DP1790      0.2806
     18  O'         3.4750    3.9500   22.8030 O.2   790  DP1790     -0.2698
     19  N1'        5.6620    4.4270   22.7040 N.am  790  DP1790     -0.0863
     20  CB'        4.8340    4.5680   25.8330 C.3   790  DP1790      0.0516
     21  C1         5.0490    4.0280   27.2720 C.3   790  DP1790      0.1116
     22  N1         4.4030    4.9210   28.2490 N.3   790  DP1790     -0.1313
@<TRIPOS>BOND
     1     5     4    2
     2     4     6    2
     3     4     3    1
     4     3     2    1
     5    19    17   am
     6    18    17    2
     7     2     1    2
     8     2     7    1
     9    17    16    1
    10     8     7    1
    11     8     9    1
    12    10     9    1
    13    10    11    1
    14    14    13    2
    15    13    15   am
    16    13    11    1
    17    16    15    1
    18    16    20    1
    19    12    11    1
    20    20    21    1
    21    21    22    1
