@<TRIPOS>MOLECULE
1zzu_H4B_A_1.pdb
 17 18 0 0 0
SMALL
GASTEIGER

@<TRIPOS>ATOM
      1  N1         9.9910    2.5270   33.8660 N.2   760  H4B760     -0.2683
      2  C2        10.1510    2.1290   32.5810 C.1   760  H4B760      0.2608
      3  N2        11.3570    2.0060   32.0140 N.pl3 760  H4B760     -0.0220
      4  N3         9.0290    1.8540   31.8570 N.2   760  H4B760     -0.2474
      5  C4         7.6960    1.9590   32.3520 C.1   760  H4B760      0.2441
      6  O4         6.7510    1.6770   31.5890 O.2   760  H4B760     -0.2063
      7  C4A        7.6220    2.3830   33.7110 C.2   760  H4B760      0.2463
      8  C8A        8.7560    2.6660   34.4680 C.1   760  H4B760      0.1270
      9  N5         6.2810    2.5290   34.3020 N.2   760  H4B760     -0.2460
     10  N8         8.7030    3.0620   35.7530 N.2   760  H4B760     -0.2054
     11  C6         6.2430    3.4830   35.4950 C.3   760  H4B760      0.1627
     12  C7         7.4140    3.2160   36.4450 C.3   760  H4B760      0.1643
     13  C9         4.8330    3.3450   36.1100 C.3   760  H4B760      0.2063
     14  O9         4.4690    2.0120   36.4910 O.3   760  H4B760     -0.2183
     15  C10        4.6370    4.2550   37.3360 C.3   760  H4B760      0.1842
     16  C11        3.1990    4.2780   37.7500 C.3   760  H4B760      0.0383
     17  O10        5.0530    5.5660   36.9150 O.3   760  H4B760     -0.2204
@<TRIPOS>BOND
     1     6     5    2
     2     4     5    2
     3     4     2    2
     4     3     2    1
     5     5     7    1
     6     2     1    2
     7     7     9    2
     8     7     8    1
     9     1     8    2
    10     9    11    1
    11     8    10    2
    12    11    13    1
    13    11    12    1
    14    10    12    1
    15    13    14    1
    16    13    15    1
    17    17    15    1
    18    15    16    1
