@<TRIPOS>MOLECULE
1zzu_MTL_A_1.pdb
 12 11 0 0 0
SMALL
GASTEIGER

@<TRIPOS>ATOM
      1  O1         1.3000    3.4800   24.4700 O.3   870  MTL870     -0.2175
      2  C1         0.2380    4.4440   24.4190 C.3   870  MTL870      0.2175
      3  C2        -0.7790    4.0760   23.3060 C.3   870  MTL870      0.2175
      4  O2        -0.1430    4.2030   22.0270 O.3   870  MTL870     -0.2175
      5  C3        -1.2990    2.6210   23.4780 C.3   870  MTL870      0.2175
      6  O3        -1.8470    2.4550   24.7990 O.3   870  MTL870     -0.2175
      7  C4        -2.4050    2.3280   22.4280 C.3   870  MTL870      0.2175
      8  O4        -3.5590    3.1390   22.7210 O.3   870  MTL870     -0.2175
      9  C5        -2.8000    0.8290   22.4740 C.3   870  MTL870      0.2175
     10  O5        -1.6540    0.0250   22.1560 O.3   870  MTL870     -0.2175
     11  C6        -3.9220    0.5410   21.4450 C.3   870  MTL870      0.2175
     12  O6        -4.2950   -0.8390   21.5060 O.3   870  MTL870     -0.2175
@<TRIPOS>BOND
     1    11    12    1
     2    11     9    1
     3     4     3    1
     4    10     9    1
     5     7     9    1
     6     7     8    1
     7     7     5    1
     8     3     5    1
     9     3     2    1
    10     5     6    1
    11     2     1    1
