@<TRIPOS>MOLECULE
1zzz_0IV_A_1.pdb
 28 29 0 0 0
SMALL
GASTEIGER

@<TRIPOS>ATOM
      1  S         24.0730    5.7250   29.9470 S.3   246  0IV246      0.0657
      2  O1S       23.1510    6.2200   28.9260 O.3   246  0IV246     -0.0598
      3  O2S       23.3610    4.9770   30.9810 O.3   246  0IV246     -0.0598
      4  N         25.1570    4.6820   29.2140 N.3   246  0IV246     -0.0752
      5  CA        25.5970    3.3910   29.6250 C.3   246  0IV246      0.1731
      6  CB        26.1840    3.4820   31.0050 C.3   246  0IV246      0.0304
      7  CG        26.4320    2.1540   31.6720 C.3   246  0IV246      0.0235
      8  CD        25.2710    1.1810   31.6400 C.3   246  0IV246      0.0940
      9  C7        24.5370    2.2410   29.4950 C.2   246  0IV246      0.2437
     10  O         23.7760    2.3820   28.5310 O.2   246  0IV246     -0.2733
     11  N1        24.6040    1.1740   30.3100 N.am  246  0IV246     -0.2701
     12  CA1       23.7020    0.0530   29.9470 C.3   246  0IV246      0.1809
     13  C8        22.4180    0.8670   30.2860 C.2   246  0IV246      0.2617
     14  O1        22.1470    1.3320   31.4330 O.2   246  0IV246     -0.2715
     15  C21       20.1910    4.5320   28.6190 C.3   246  0IV246      0.0406
     16  C31       20.9790    4.3780   27.3200 C.3   246  0IV246      0.1678
     17  N2        21.2880    0.3550   29.5550 N.am  246  0IV246     -0.2030
     18  CA2       19.9550    0.5250   29.9580 C.3   246  0IV246      0.1283
     19  C9        19.4520   -0.5070   31.0730 C.3   246  0IV246      0.2036
     20  O2        18.0560   -0.6290   31.1720 O.3   246  0IV246     -0.2185
     21  CB1       19.1950    0.8040   28.7650 C.3   246  0IV246      0.0276
     22  CZ        19.9900    3.7540   25.0540 C.cat 246  0IV246      0.4954
     23  NE        20.2770    3.4130   26.3750 N.pl3 246  0IV246     -0.1885
     24  C11       20.0500    3.1780   29.1560 C.3   246  0IV246      0.0067
     25  CG1       19.3380    2.1580   28.1910 C.3   246  0IV246      0.0393
     26  CD1       20.1240    2.0850   26.8650 C.3   246  0IV246      0.1677
     27  NH1       19.5410    2.8750   24.2120 N.pl3 246  0IV246      0.1298
     28  NH2       20.1300    4.9700   24.7200 N.pl3 246  0IV246      0.1298
@<TRIPOS>BOND
     1    27    22    2
     2    28    22    1
     3    22    23    1
     4    23    26    1
     5    23    16    1
     6    26    25    1
     7    16    15    1
     8    25    21    1
     9    25    24    1
    10    10     9    2
    11    15    24    1
    12    21    18    1
    13     2     1    1
    14     4     5    1
    15     4     1    1
    16     9     5    1
    17     9    11   am
    18    17    18    1
    19    17    13   am
    20     5     6    1
    21    12    13    1
    22    12    11    1
    23     1     3    1
    24    18    19    1
    25    13    14    2
    26    11     8    1
    27     6     7    1
    28    19    20    1
    29     8     7    1
