@<TRIPOS>MOLECULE
207l_SC2_A_1.pdb
 10 9 0 0 0
SMALL
GASTEIGER

@<TRIPOS>ATOM
      1  C          8.6530   15.7750   41.7290 C.2   200  SC2200      0.3851
      2  CB         9.3990   15.2450   39.3870 C.3   200  SC2200      0.1019
      3  CT        10.6160   13.2020   42.1860 C.2   200  SC2200      0.2423
      4  CA         9.7060   15.0830   40.8820 C.3   200  SC2200      0.2093
      5  N          9.8710   13.7110   41.2100 N.am  200  SC2200     -0.1946
      6  OXT        8.0170   15.0800   42.5640 O.co2 200  SC2200     -0.2437
      7  O          8.5070   17.0010   41.5590 O.co2 200  SC2200     -0.2437
      8  OT        11.2740   13.9520   42.9310 O.2   200  SC2200     -0.2733
      9  CM        10.6250   11.7130   42.3610 C.3   200  SC2200      0.0964
     10  SG        10.8390   14.7180   38.4370 S.3   200  SC2200     -0.0797
@<TRIPOS>BOND
     1    10     2    1
     2     2     4    1
     3     4     5    1
     4     4     1    1
     5     5     3   am
     6     7     1   ar
     7     1     6   ar
     8     3     9    1
     9     3     8    2
