@<TRIPOS>MOLECULE
20gs_CBD_A_1.pdb
 22 24 0 0 0
SMALL
GASTEIGER

@<TRIPOS>ATOM
      1  C1         8.7090    6.4650   23.3620 C.ar  211  CBD211      0.1304
      2  SA         9.5880    7.5480   22.3120 S.3   211  CBD211      0.0434
      3  O1A       10.3590    6.7650   21.2540 O.3   211  CBD211     -0.0649
      4  O2A       10.4940    8.2010   23.3230 O.3   211  CBD211     -0.0649
      5  O3A        8.4630    8.3170   21.5930 O.3   211  CBD211     -0.0649
      6  C2         9.4510    5.5180   24.0790 C.ar  211  CBD211      0.1098
      7  N2        10.9740    5.4870   23.8670 N.pl3 211  CBD211     -0.1266
      8  C3         8.7700    4.6520   24.9640 C.ar  211  CBD211      0.0613
      9  C4         9.4830    3.6420   25.7620 C.2   211  CBD211      0.1971
     10  O4        10.7380    3.5920   25.6030 O.2   211  CBD211     -0.2865
     11  C5         8.8530    2.7060   26.7140 C.ar  211  CBD211      0.0421
     12  C6         9.5920    1.7320   27.4690 C.ar  211  CBD211      0.0033
     13  C7         8.9020    0.8810   28.3620 C.ar  211  CBD211      0.0001
     14  C8         7.5050    0.9660   28.5190 C.ar  211  CBD211      0.0001
     15  C9         6.7510    1.9190   27.7820 C.ar  211  CBD211      0.0033
     16  C10        7.4190    2.7940   26.8770 C.ar  211  CBD211      0.0421
     17  C11        6.7120    3.8010   26.0820 C.2   211  CBD211      0.1971
     18  O11        5.4700    3.8790   26.2310 O.2   211  CBD211     -0.2865
     19  C12        7.3200    4.7580   25.1070 C.ar  211  CBD211      0.0601
     20  C13        6.5930    5.7510   24.3320 C.ar  211  CBD211      0.0936
     21  C14        7.2950    6.6160   23.4490 C.ar  211  CBD211      0.0384
     22  NB         5.1310    5.9140   24.4210 N.pl3 211  CBD211     -0.1279
@<TRIPOS>BOND
     1     3     2    1
     2     5     2    1
     3     2     4    1
     4     2     1    1
     5     1    21   ar
     6     1     6   ar
     7    21    20   ar
     8     7     6    1
     9     6     8   ar
    10    20    22    1
    11    20    19   ar
    12     8    19   ar
    13     8     9    1
    14    19    17    1
    15    10     9    2
    16     9    11    1
    17    17    18    2
    18    17    16    1
    19    11    16   ar
    20    11    12   ar
    21    16    15   ar
    22    12    13   ar
    23    15    14   ar
    24    13    14   ar
