@<TRIPOS>MOLECULE
221p_GNP_A_1.pdb
 32 34 0 0 0
SMALL
GASTEIGER

@<TRIPOS>ATOM
      1  PG         5.2070   32.0120   21.9000 P.3   167  GNP167      0.4884
      2  O1G        4.2880   32.7660   21.0530 O.2   167  GNP167     -0.2331
      3  O2G        4.8280   30.5810   21.9770 O.3   167  GNP167     -0.1240
      4  O3G        4.8950   32.6120   23.3610 O.3   167  GNP167     -0.1240
      5  N3B        6.7760   32.3390   21.6690 N.3   167  GNP167     -0.0163
      6  PB         7.2840   32.0020   20.1720 P.3   167  GNP167      0.4669
      7  O1B        7.4660   30.5690   19.8810 O.3   167  GNP167     -0.1253
      8  O2B        6.5410   32.6890   19.1270 O.2   167  GNP167     -0.2351
      9  O3A        8.7930   32.6510   20.0660 O.3   167  GNP167     -0.2360
     10  PA         9.2660   34.2290   19.6160 P.3   167  GNP167      0.2220
     11  O1A        9.2430   34.3500   18.1510 O.2   167  GNP167     -0.5170
     12  O2A        8.5830   35.2430   20.4270 O.3   167  GNP167     -0.4370
     13  O5'       10.8090   34.2870   20.0170 O.3   167  GNP167     -0.3111
     14  C5'       11.1990   33.9090   21.3410 C.3   167  GNP167      0.1813
     15  C4'       12.6400   34.2970   21.6540 C.3   167  GNP167      0.1799
     16  O4'       13.5680   33.5400   20.8980 O.3   167  GNP167     -0.3326
     17  C3'       12.9070   35.7810   21.3140 C.3   167  GNP167      0.2158
     18  O3'       13.8920   36.3490   22.1720 O.3   167  GNP167     -0.2175
     19  C2'       13.4390   35.6730   19.9160 C.3   167  GNP167      0.2310
     20  O2'       14.2860   36.7570   19.5070 O.3   167  GNP167     -0.2158
     21  C1'       14.2980   34.4740   20.1150 C.3   167  GNP167      0.2293
     22  N9        14.4810   33.8760   18.8090 N.pl3 167  GNP167     -0.2354
     23  C8        13.5450   33.3870   17.9400 C.3   167  GNP167      0.2246
     24  N7        14.0120   32.6840   16.9550 N.2   167  GNP167     -0.2322
     25  C5        15.3970   32.6710   17.2010 C.2   167  GNP167      0.2182
     26  C6        16.4830   32.1440   16.4460 C.1   167  GNP167      0.2372
     27  O6        16.5330   31.8310   15.2650 O.2   167  GNP167     -0.2069
     28  N1        17.6520   32.1890   17.1770 N.2   167  GNP167     -0.2485
     29  C2        17.8560   32.9650   18.3040 C.1   167  GNP167      0.2531
     30  N2        19.1120   33.3570   18.6220 N.pl3 167  GNP167     -0.0226
     31  N3        16.8440   33.4740   19.0050 N.2   167  GNP167     -0.3074
     32  C4        15.6720   33.3810   18.3510 C.2   167  GNP167      0.2300
@<TRIPOS>BOND
     1    27    26    2
     2    26    28    2
     3    26    25    1
     4    24    25    2
     5    24    23    1
     6    28    29    2
     7    25    32    1
     8    23    22    1
     9    11    10    2
    10    29    30    1
    11    29    31    2
    12    32    22    1
    13    32    31    2
    14    22    21    1
    15     8     6    2
    16    20    19    1
    17    10    13    1
    18    10     9    1
    19    10    12    1
    20     7     6    1
    21    19    21    1
    22    19    17    1
    23    13    14    1
    24     9     6    1
    25    21    16    1
    26     6     5    1
    27    16    15    1
    28     2     1    2
    29    17    15    1
    30    17    18    1
    31    14    15    1
    32     5     1    1
    33     1     3    1
    34     1     4    1
