@<TRIPOS>MOLECULE
256b_HEM_A_1.pdb
 43 50 0 0 0
SMALL
GASTEIGER

@<TRIPOS>ATOM
      1 FE         -2.6150    8.6110    0.0190 Fe    109  HEM109      0.0000
      2  CHA        0.3270    8.3580   -1.6560 C.2   109  HEM109      0.0000
      3  CHB       -0.9710    9.8110    2.7480 C.2   109  HEM109      0.0000
      4  CHC       -5.5720    8.7000    1.7360 C.2   109  HEM109      0.0000
      5  CHD       -4.3040    7.5120   -2.7650 C.2   109  HEM109      0.0000
      6  NA        -0.6910    8.9980    0.4590 N.2   109  HEM109      0.0000
      7  C1A        0.4220    8.8580   -0.3780 C.2   109  HEM109      0.0000
      8  C2A        1.6140    9.3260    0.3040 C.2   109  HEM109      0.0000
      9  C3A        1.2400    9.7270    1.5220 C.2   109  HEM109      0.0000
     10  C4A       -0.1970    9.5420    1.6450 C.2   109  HEM109      0.0000
     11  CMA        2.0950   10.3410    2.6630 C.3   109  HEM109      0.0000
     12  CAA        3.0350    9.3680   -0.2850 C.3   109  HEM109      0.0000
     13  CBA        3.4940   10.4190   -1.2790 C.3   109  HEM109      0.0000
     14  CGA        3.7840   11.8480   -0.9160 C.2   109  HEM109      0.0000
     15  O1A        2.8180   12.5040   -0.4390 O.co2 109  HEM109      0.0000
     16  O2A        4.9270   12.3810   -1.0780 O.co2 109  HEM109      0.0000
     17  NB        -3.1540    9.1530    1.8560 N.ar  109  HEM109      0.0000
     18  C1B       -2.3200    9.6200    2.8710 C.ar  109  HEM109      0.0000
     19  C2B       -3.1280    9.9080    4.0300 C.ar  109  HEM109      0.0000
     20  C3B       -4.3940    9.6220    3.7520 C.ar  109  HEM109      0.0000
     21  C4B       -4.4200    9.1050    2.3790 C.ar  109  HEM109      0.0000
     22  CMB       -2.5310   10.4860    5.3380 C.3   109  HEM109      0.0000
     23  CAB       -5.6450    9.7620    4.6190 C.2   109  HEM109      0.0000
     24  CBB       -5.5770   10.4690    5.7490 C.2   109  HEM109      0.0000
     25  NC        -4.5350    8.1760   -0.4410 N.2   109  HEM109      0.0000
     26  C1C       -5.6030    8.2650    0.4290 C.2   109  HEM109      0.0000
     27  C2C       -6.8420    7.8930   -0.2740 C.2   109  HEM109      0.0000
     28  C3C       -6.4850    7.5680   -1.5160 C.2   109  HEM109      0.0000
     29  C4C       -5.0540    7.7000   -1.6320 C.2   109  HEM109      0.0000
     30  CMC       -8.2190    7.8890    0.4050 C.3   109  HEM109      0.0000
     31  CAC       -7.3870    7.0820   -2.6840 C.2   109  HEM109      0.0000
     32  CBC       -8.6410    7.4910   -2.6690 C.2   109  HEM109      0.0000
     33  ND        -2.0900    8.0540   -1.8480 N.ar  109  HEM109      0.0000
     34  C1D       -2.9460    7.6670   -2.8750 C.ar  109  HEM109      0.0000
     35  C2D       -2.1660    7.4010   -4.0580 C.ar  109  HEM109      0.0000
     36  C3D       -0.8800    7.6080   -3.7730 C.ar  109  HEM109      0.0000
     37  C4D       -0.8250    8.0640   -2.3790 C.ar  109  HEM109      0.0000
     38  CMD       -2.7940    6.9330   -5.3960 C.3   109  HEM109      0.0000
     39  CAD        0.3640    7.5080   -4.6760 C.3   109  HEM109      0.0000
     40  CBD        0.5890    8.7660   -5.5290 C.3   109  HEM109      0.0000
     41  CGD        1.7790    8.7460   -6.4770 C.2   109  HEM109      0.0000
     42  O1D        1.9200    9.8330   -7.1190 O.co2 109  HEM109      0.0000
     43  O2D        2.4690    7.6960   -6.5040 O.co2 109  HEM109      0.0000
@<TRIPOS>BOND
     1    42    41   ar
     2    43    41   ar
     3    41    40    1
     4    40    39    1
     5    38    35    1
     6    39    36    1
     7    35    36   ar
     8    35    34   ar
     9    36    37   ar
    10    34     5    2
    11    34    33   ar
    12     5    29    1
    13    31    32    2
    14    31    28    1
    15    37    33   ar
    16    37     2    2
    17    33     1    1
    18     2     7    1
    19    29    28    1
    20    29    25    2
    21    28    27    2
    22    13    14    1
    23    13    12    1
    24    16    14   ar
    25    14    15   ar
    26    25     1    1
    27    25    26    1
    28     7     8    1
    29     7     6    2
    30    12     8    1
    31    27    30    1
    32    27    26    1
    33     1     6    1
    34     1    17    1
    35     8     9    2
    36    26     4    2
    37     6    10    1
    38     9    10    1
    39     9    11    1
    40    10     3    2
    41     4    21    1
    42    17    21   ar
    43    17    18   ar
    44    21    20   ar
    45     3    18    1
    46    18    19   ar
    47    20    19   ar
    48    20    23    1
    49    19    22    1
    50    23    24    2
