@<TRIPOS>MOLECULE
25c8_GEP_L_1.pdb
 24 25 0 0 0
SMALL
GASTEIGER

@<TRIPOS>ATOM
      1  N1        30.4520  -13.0210   -1.5520 N.4   212  GEP212      0.3887
      2  C2        31.3870  -12.5840   -0.4150 C.3   212  GEP212     -0.0731
      3  C3        30.8400  -11.3190    0.2440 C.3   212  GEP212     -0.0223
      4  C4        29.4560  -11.5550    0.8240 C.3   212  GEP212     -0.0043
      5  C5        28.4850  -12.1360   -0.2050 C.3   212  GEP212     -0.0223
      6  C6        29.0610  -13.3440   -0.9770 C.3   212  GEP212     -0.0731
      7  C7        30.3480  -11.8880   -2.5790 C.3   212  GEP212     -0.0958
      8  C8        31.0330  -14.2520   -2.2830 C.3   212  GEP212     -0.0684
      9  C9        30.8680  -15.5550   -1.4910 C.3   212  GEP212      0.0041
     10  C10       31.3850  -16.6720   -2.3570 C.ar  212  GEP212     -0.0242
     11  C11       32.7510  -16.8200   -2.5760 C.ar  212  GEP212     -0.0030
     12  C12       33.2420  -17.8150   -3.4330 C.ar  212  GEP212      0.0163
     13  C13       32.3650  -18.6930   -4.0900 C.ar  212  GEP212      0.0733
     14  C14       30.9880  -18.5510   -3.8580 C.ar  212  GEP212      0.0163
     15  C15       30.5110  -17.5450   -2.9970 C.ar  212  GEP212     -0.0030
     16  N16       32.8510  -19.6540   -5.1010 N.am  212  GEP212     -0.1792
     17  C17       34.1820  -19.7380   -5.4780 C.2   212  GEP212      0.2456
     18  O18       35.0220  -18.9920   -4.9900 O.2   212  GEP212     -0.2730
     19  C19       34.6140  -20.7440   -6.5230 C.3   212  GEP212      0.0878
     20  C20       36.0150  -20.4450   -7.0810 C.3   212  GEP212      0.0214
     21  C21       36.3960  -21.4030   -8.2180 C.3   212  GEP212      0.1146
     22  C22       37.9030  -21.5240   -8.4200 C.2   212  GEP212      0.3649
     23  O23       38.6600  -20.6530   -7.9290 O.co2 212  GEP212     -0.2457
     24  O24       38.3290  -22.4980   -9.0770 O.co2 212  GEP212     -0.2457
@<TRIPOS>BOND
     1    24    22   ar
     2    22    21    1
     3    22    23   ar
     4    21    20    1
     5    20    19    1
     6    19    17    1
     7    17    16   am
     8    17    18    2
     9    16    13    1
    10    13    14   ar
    11    13    12   ar
    12    14    15   ar
    13    12    11   ar
    14    15    10   ar
    15     7     1    1
    16    11    10   ar
    17    10     9    1
    18     8     1    1
    19     8     9    1
    20     1     6    1
    21     1     2    1
    22     6     5    1
    23     2     3    1
    24     5     4    1
    25     3     4    1
