@<TRIPOS>MOLECULE
2a00_ANP_A_1.pdb
 44 46 0 0 0
SMALL
GASTEIGER

@<TRIPOS>ATOM
      1  PG       116.8840    6.2550   -3.8920 P.3   1001  ANP1001     0.4710
      2  O1G      118.2900    6.5020   -4.3800 O.3   1001  ANP1001    -0.1250
      3  O2G      115.9380    7.3070   -4.4120 O.2   1001  ANP1001    -0.2347
      4  O3G      116.8370    6.1770   -2.3890 O.3   1001  ANP1001    -0.1250
      5  PB       116.2870    4.7380   -6.0820 P.3   1001  ANP1001     0.4495
      6  O1B      117.0150    5.9120   -6.6720 O.2   1001  ANP1001    -0.2367
      7  O2B      116.8770    3.4280   -6.5200 O.3   1001  ANP1001    -0.1263
      8  N3B      116.4050    4.8310   -4.4720 N.3   1001  ANP1001    -0.1200
      9  PA       114.0110    4.5330   -7.7660 P.3   1001  ANP1001     0.2213
     10  O1A      113.4390    5.7970   -8.2890 O.3   1001  ANP1001    -0.4371
     11  O2A      114.9870    3.8470   -8.6460 O.2   1001  ANP1001    -0.5170
     12  O3A      114.6940    4.8120   -6.3260 O.3   1001  ANP1001    -0.2370
     13  O5'      112.8070    3.5130   -7.4070 O.3   1001  ANP1001    -0.3245
     14  C5'      112.8990    2.5330   -6.3470 C.3   1001  ANP1001     0.0836
     15  C4'      112.1620    3.0360   -5.1130 C.3   1001  ANP1001     0.1131
     16  O4'      110.7380    2.8820   -5.3500 O.3   1001  ANP1001    -0.3474
     17  C3'      112.5460    2.0330   -4.0420 C.3   1001  ANP1001     0.1133
     18  O3'      113.7350    2.4110   -3.3610 O.3   1001  ANP1001    -0.3864
     19  C2'      111.3530    2.0860   -3.1260 C.3   1001  ANP1001     0.1266
     20  O2'      111.5000    3.0930   -2.1330 O.3   1001  ANP1001    -0.3849
     21  C1'      110.2040    2.4200   -4.0750 C.3   1001  ANP1001     0.1617
     22  N9       109.3960    1.1870   -4.3590 N.pl3 1001  ANP1001    -0.2234
     23  C8       109.8860   -0.0570   -4.3890 C.2   1001  ANP1001     0.1451
     24  N7       108.9160   -0.9360   -4.6550 N.2   1001  ANP1001    -0.3871
     25  C5       107.7890   -0.2550   -4.8030 C.2   1001  ANP1001     0.2211
     26  C6       106.4290   -0.5820   -5.0730 C.2   1001  ANP1001     0.2227
     27  N6       106.0580   -1.8470   -5.2330 N.pl3 1001  ANP1001    -0.3300
     28  N1       105.4880    0.4200   -5.1570 N.2   1001  ANP1001    -0.3296
     29  C2       105.7930    1.7430   -4.9880 C.1   1001  ANP1001     0.0930
     30  N3       107.0930    2.0730   -4.7320 N.2   1001  ANP1001    -0.3287
     31  C4       108.0920    1.1160   -4.6220 C.2   1001  ANP1001     0.2354
     32 HNB1      115.4550    4.7370   -4.1470 H     1001  ANP1001     0.1458
     33 H5'1      113.8690    2.3840   -6.1530 H     1001  ANP1001     0.0591
     34 H5'2      112.5090    1.6670   -6.6980 H     1001  ANP1001     0.0591
     35  H4'      112.4190    3.9910   -4.8810 H     1001  ANP1001     0.0647
     36  H3'      112.7140    1.1100   -4.4250 H     1001  ANP1001     0.0647
     37 HO3'      113.5030    2.8300   -2.4710 H     1001  ANP1001     0.2100
     38  H2'      111.2140    1.2150   -2.6270 H     1001  ANP1001     0.0663
     39 HO2'      112.0720    2.7480   -1.3760 H     1001  ANP1001     0.2101
     40  H1'      109.5620    3.1150   -3.6540 H     1001  ANP1001     0.0841
     41  H8       110.8430   -0.2960   -4.2340 H     1001  ANP1001     0.1149
     42 HN61      105.0970   -2.0660   -5.4120 H     1001  ANP1001     0.1448
     43 HN62      106.7400   -2.5760   -5.1680 H     1001  ANP1001     0.1448
     44  H2       105.0870    2.4470   -5.0430 H     1001  ANP1001     0.1751
@<TRIPOS>BOND
     1    11     9    2
     2    10     9    1
     3     9    13    1
     4     9    12    1
     5    13    14    1
     6    34    14    1
     7     6     5    2
     8     7     5    1
     9    14    33    1
    10    14    15    1
    11    12     5    1
    12     5     8    1
    13    42    27    1
    14    16    15    1
    15    16    21    1
    16    27    43    1
    17    27    26    1
    18    28    26    2
    19    28    29    2
    20    15    35    1
    21    15    17    1
    22    26    25    1
    23    44    29    1
    24    29    30    2
    25    25    24    2
    26    25    31    1
    27    30    31    2
    28    24    23    2
    29    31    22    1
    30     8    32    1
    31     8     1    1
    32    36    17    1
    33     3     1    2
    34    23    22    1
    35    23    41    1
    36     2     1    1
    37    22    21    1
    38    21    40    1
    39    21    19    1
    40    17    18    1
    41    17    19    1
    42     1     4    1
    43    18    37    1
    44    19    38    1
    45    19    20    1
    46    20    39    1
