@<TRIPOS>MOLECULE
2a01_AC9_A_1.pdb
 22 24 0 0 0
SMALL
GASTEIGER

@<TRIPOS>ATOM
      1 CR         50.4130  -17.4820   92.4220 Cr.oh 601  AC9601      0.0000
      2  O1        48.6160  -17.3000   93.1890 O.2   601  AC9601      0.0000
      3  O2        50.9040  -15.7480   93.1880 O.3   601  AC9601      0.0000
      4  O3        49.8490  -16.5780   90.7910 O.3   601  AC9601      0.0000
      5  O4        52.1920  -17.7020   91.7390 O.2   601  AC9601      0.0000
      6  O5        49.9070  -19.1850   91.6250 O.2   601  AC9601      0.0000
      7  O6        50.9720  -18.3600   94.0730 O.3   601  AC9601      0.0000
      8  C1        48.2100  -16.4520   94.0160 C.2   601  AC9601      0.0000
      9  C2        48.9500  -15.3700   94.4400 C.2   601  AC9601      0.0000
     10  C3        50.2290  -15.0230   93.9930 C.3   601  AC9601      0.0000
     11  C4        46.8220  -16.6570   94.5530 C.3   601  AC9601      0.0000
     12  C5        50.8730  -13.7510   94.4210 C.3   601  AC9601      0.0000
     13  C6        50.4740  -16.3010   89.7190 C.3   601  AC9601      0.0000
     14  C7        51.8320  -16.8270   89.5930 C.2   601  AC9601      0.0000
     15  C8        52.5960  -17.4210   90.5870 C.2   601  AC9601      0.0000
     16  C9        49.8060  -15.6670   88.6480 C.3   601  AC9601      0.0000
     17  C10       54.0350  -17.8000   90.2730 C.3   601  AC9601      0.0000
     18  C11       50.0470  -20.3280   92.1320 C.2   601  AC9601      0.0000
     19  C12       50.5880  -20.5790   93.3690 C.2   601  AC9601      0.0000
     20  C13       51.0000  -19.6300   94.2780 C.3   601  AC9601      0.0000
     21  C14       49.5740  -21.4730   91.2740 C.3   601  AC9601      0.0000
     22  C15       51.5150  -20.0220   95.6370 C.3   601  AC9601      0.0000
@<TRIPOS>BOND
     1    16    13    1
     2    14    13    1
     3    14    15    2
     4    13     4    1
     5    17    15    1
     6    15     5    1
     7     4     1    1
     8    21    18    1
     9     6    18    1
    10     6     1    1
    11     5     1    1
    12    18    19    2
    13     1     3    1
    14     1     2    1
    15     1     7    1
    16     3    10    1
    17     2     8    1
    18    19    20    1
    19    10    12    1
    20    10     9    1
    21     8     9    2
    22     8    11    1
    23     7    20    1
    24    20    22    1
