@<TRIPOS>MOLECULE
2a06_HEC_D_1.pdb
 43 50 0 0 0
SMALL
GASTEIGER

@<TRIPOS>ATOM
      1 FE         42.2820   92.3380   31.0990 Fe    501  HEC501      0.0000
      2  CHA       45.0840   91.0130   32.3850 C.2   501  HEC501      0.0000
      3  CHB       42.6520   95.1260   32.9860 C.2   501  HEC501      0.0000
      4  CHC       39.5470   93.7930   29.6570 C.2   501  HEC501      0.0000
      5  CHD       41.7320   89.5350   29.2360 C.2   501  HEC501      0.0000
      6  NA        43.5860   92.9040   32.4240 N.2   501  HEC501      0.0000
      7  C1A       44.7060   92.2310   32.8630 C.2   501  HEC501      0.0000
      8  C2A       45.3640   92.9530   33.8980 C.2   501  HEC501      0.0000
      9  C3A       44.6680   94.0860   34.0890 C.2   501  HEC501      0.0000
     10  C4A       43.5970   94.0880   33.1260 C.2   501  HEC501      0.0000
     11  CMA       44.8710   95.1300   35.1570 C.3   501  HEC501      0.0000
     12  CAA       46.4600   92.4260   34.7950 C.3   501  HEC501      0.0000
     13  CBA       47.8480   92.5610   34.2410 C.3   501  HEC501      0.0000
     14  CGA       48.8760   92.1580   35.2660 C.2   501  HEC501      0.0000
     15  O1A       48.8280   90.9900   35.7100 O.co2 501  HEC501      0.0000
     16  O2A       49.7140   93.0130   35.6390 O.co2 501  HEC501      0.0000
     17  NB        41.2810   94.0840   31.2740 N.ar  501  HEC501      0.0000
     18  C1B       41.5280   95.0800   32.2040 C.ar  501  HEC501      0.0000
     19  C2B       40.5350   96.1100   32.1920 C.ar  501  HEC501      0.0000
     20  C3B       39.7530   95.8310   31.1450 C.ar  501  HEC501      0.0000
     21  C4B       40.2080   94.5410   30.5950 C.ar  501  HEC501      0.0000
     22  CMB       40.4080   97.2990   33.1630 C.3   501  HEC501      0.0000
     23  CAB       38.5660   96.6000   30.5180 C.3   501  HEC501      0.0000
     24  CBB       38.9780   98.0020   30.0590 C.3   501  HEC501      0.0000
     25  NC        40.9370   91.7710   29.6960 N.2   501  HEC501      0.0000
     26  C1C       39.8540   92.5160   29.2190 C.2   501  HEC501      0.0000
     27  C2C       39.0500   91.7550   28.2760 C.2   501  HEC501      0.0000
     28  C3C       39.6490   90.5510   28.1460 C.2   501  HEC501      0.0000
     29  C4C       40.8430   90.5700   29.0160 C.2   501  HEC501      0.0000
     30  CMC       37.7610   92.1590   27.5800 C.3   501  HEC501      0.0000
     31  CAC       39.1590   89.2620   27.4980 C.3   501  HEC501      0.0000
     32  CBC       38.9720   89.4790   25.9820 C.3   501  HEC501      0.0000
     33  ND        43.1960   90.6330   30.9070 N.ar  501  HEC501      0.0000
     34  C1D       42.7930   89.5410   30.1510 C.ar  501  HEC501      0.0000
     35  C2D       43.7570   88.4830   30.2430 C.ar  501  HEC501      0.0000
     36  C3D       44.7250   88.9190   31.0650 C.ar  501  HEC501      0.0000
     37  C4D       44.3710   90.2530   31.4760 C.ar  501  HEC501      0.0000
     38  CMD       43.6590   87.1110   29.5910 C.3   501  HEC501      0.0000
     39  CAD       45.9220   88.1030   31.5790 C.3   501  HEC501      0.0000
     40  CBD       47.1760   88.6210   30.9180 C.3   501  HEC501      0.0000
     41  CGD       48.3880   87.7470   31.2100 C.2   501  HEC501      0.0000
     42  O1D       49.1130   87.4400   30.2520 O.co2 501  HEC501      0.0000
     43  O2D       48.6080   87.3770   32.3870 O.co2 501  HEC501      0.0000
@<TRIPOS>BOND
     1    32    31    1
     2    31    28    1
     3    30    27    1
     4    28    27    2
     5    28    29    1
     6    27    26    1
     7    29     5    1
     8    29    25    2
     9    26     4    2
    10    26    25    1
    11     5    34    2
    12    38    35    1
    13     4    21    1
    14    25     1    1
    15    24    23    1
    16    34    35   ar
    17    34    33   ar
    18    35    36   ar
    19    42    41   ar
    20    23    20    1
    21    21    20   ar
    22    21    17   ar
    23    33     1    1
    24    33    37   ar
    25    40    41    1
    26    40    39    1
    27    36    37   ar
    28    36    39    1
    29     1    17    1
    30     1     6    1
    31    20    19   ar
    32    41    43   ar
    33    17    18   ar
    34    37     2    2
    35    19    18   ar
    36    19    22    1
    37    18     3    1
    38     2     7    1
    39     6     7    2
    40     6    10    1
    41     7     8    1
    42     3    10    2
    43    10     9    1
    44     8     9    2
    45     8    12    1
    46     9    11    1
    47    13    12    1
    48    13    14    1
    49    14    16   ar
    50    14    15   ar
