@<TRIPOS>MOLECULE
2a06_HEM_C_1.pdb
 43 50 0 0 0
SMALL
GASTEIGER

@<TRIPOS>ATOM
      1  CHA       46.5650   90.0110   61.2820 C.2   501  HEM501      0.0000
      2  CHB       50.2640   91.7080   63.8910 C.2   501  HEM501      0.0000
      3  CHC       47.7780   90.9270   67.8810 C.2   501  HEM501      0.0000
      4  CHD       44.0950   89.2320   65.3070 C.2   501  HEM501      0.0000
      5  C1A       47.8270   90.5380   61.6510 C.ar  501  HEM501      0.0000
      6  C2A       48.8360   90.9440   60.7410 C.ar  501  HEM501      0.0000
      7  C3A       49.9290   91.3480   61.4570 C.ar  501  HEM501      0.0000
      8  C4A       49.4940   91.3170   62.8220 C.ar  501  HEM501      0.0000
      9  CMA       51.3290   91.7840   60.8650 C.3   501  HEM501      0.0000
     10  CAA       48.6620   90.9820   59.2190 C.3   501  HEM501      0.0000
     11  CBA       47.8470   92.2410   58.8670 C.3   501  HEM501      0.0000
     12  CGA       47.6110   92.3890   57.3630 C.2   501  HEM501      0.0000
     13  O1A       48.5710   92.7650   56.6460 O.co2 501  HEM501      0.0000
     14  O2A       46.4650   92.1340   56.9050 O.co2 501  HEM501      0.0000
     15  C1B       49.9520   91.5780   65.2220 C.2   501  HEM501      0.0000
     16  C2B       50.8500   91.8560   66.3230 C.2   501  HEM501      0.0000
     17  C3B       50.1170   91.7200   67.4760 C.2   501  HEM501      0.0000
     18  C4B       48.8230   91.2460   67.0340 C.2   501  HEM501      0.0000
     19  CMB       52.2870   92.3590   66.1480 C.3   501  HEM501      0.0000
     20  CAB       50.4480   92.0210   68.8350 C.3   501  HEM501      0.0000
     21  CBB       51.8160   91.7170   69.4100 C.3   501  HEM501      0.0000
     22  C1C       46.6150   90.3380   67.5220 C.ar  501  HEM501      0.0000
     23  C2C       45.5870   89.9180   68.4480 C.ar  501  HEM501      0.0000
     24  C3C       44.5690   89.4470   67.6940 C.ar  501  HEM501      0.0000
     25  C4C       44.9500   89.5550   66.3420 C.ar  501  HEM501      0.0000
     26  CMC       45.6710   89.8810   69.9920 C.3   501  HEM501      0.0000
     27  CAC       43.3900   88.7960   68.0580 C.3   501  HEM501      0.0000
     28  CBC       42.8330   88.5620   69.4040 C.3   501  HEM501      0.0000
     29  C1D       44.3920   89.3630   63.9600 C.2   501  HEM501      0.0000
     30  C2D       43.5150   88.9020   62.8860 C.2   501  HEM501      0.0000
     31  C3D       44.2240   89.0990   61.7670 C.2   501  HEM501      0.0000
     32  C4D       45.5340   89.6590   62.1470 C.2   501  HEM501      0.0000
     33  CMD       42.0980   88.3060   63.0130 C.3   501  HEM501      0.0000
     34  CAD       43.7410   88.8030   60.3820 C.3   501  HEM501      0.0000
     35  CBD       43.1030   90.0170   59.7500 C.3   501  HEM501      0.0000
     36  CGD       44.1220   90.9560   59.1250 C.2   501  HEM501      0.0000
     37  O1D       44.1170   92.1630   59.4580 O.co2 501  HEM501      0.0000
     38  O2D       44.9290   90.4980   58.3020 O.co2 501  HEM501      0.0000
     39  NA        48.2430   90.7600   62.9640 N.ar  501  HEM501      0.0000
     40  NB        48.7460   91.1240   65.6630 N.2   501  HEM501      0.0000
     41  NC        46.2630   90.0640   66.2070 N.ar  501  HEM501      0.0000
     42  ND        45.6210   89.7880   63.5050 N.2   501  HEM501      0.0000
     43 FE         47.2160   90.4530   64.5920 Fe    501  HEM501      0.0000
@<TRIPOS>BOND
     1    13    12   ar
     2    14    12   ar
     3    12    11    1
     4    38    36   ar
     5    11    10    1
     6    36    37   ar
     7    36    35    1
     8    10     6    1
     9    35    34    1
    10    34    31    1
    11     6     7   ar
    12     6     5   ar
    13     9     7    1
    14     1     5    2
    15     1    32    1
    16     7     8   ar
    17     5    39   ar
    18    31    32    1
    19    31    30    2
    20    32    42    2
    21     8    39   ar
    22     8     2    2
    23    30    33    1
    24    30    29    1
    25    39    43    1
    26    42    29    1
    27    42    43    1
    28     2    15    1
    29    29     4    2
    30    43    40    1
    31    43    41    1
    32    15    40    2
    33    15    16    1
    34     4    25    1
    35    40    18    1
    36    19    16    1
    37    41    25   ar
    38    41    22   ar
    39    16    17    2
    40    25    24   ar
    41    18    17    1
    42    18     3    2
    43    17    20    1
    44    22     3    1
    45    22    23   ar
    46    24    27    1
    47    24    23   ar
    48    27    28    1
    49    23    26    1
    50    20    21    1
