@<TRIPOS>MOLECULE
2a06_UQ_C_1.pdb
 18 18 0 0 0
SMALL
GASTEIGER

@<TRIPOS>ATOM
      1  C1        57.6890  103.7460   81.8150 C.2   2002  UQ2002      0.2285
      2  C2        59.1340  103.6830   82.4430 C.2   2002  UQ2002      0.2140
      3  C3        59.3950  102.8400   83.5580 C.2   2002  UQ2002      0.2140
      4  C4        58.2570  101.9850   84.1660 C.2   2002  UQ2002      0.2282
      5  C5        56.8290  102.0480   83.5490 C.2   2002  UQ2002      0.0198
      6  C6        56.5500  102.8790   82.4390 C.2   2002  UQ2002      0.0235
      7  CM5       55.7240  101.1630   84.2080 C.3   2002  UQ2002      0.0343
      8  CM3       60.8930  103.2940   85.4960 C.3   2002  UQ2002      0.2528
      9  CM2       60.9810  105.3650   82.7020 C.3   2002  UQ2002      0.2528
     10  C7        55.1000  102.9520   81.8020 C.3   2002  UQ2002      0.0551
     11  C8        54.8280  101.9760   80.6390 C.2   2002  UQ2002     -0.0259
     12  C9        54.1540  100.7920   80.6770 C.2   2002  UQ2002     -0.0304
     13  C11       53.9120   99.8620   79.4700 C.3   2002  UQ2002      0.0257
     14  C12       54.4650   98.4100   79.5810 C.3   2002  UQ2002      0.0050
     15  O2        60.1700  104.4960   81.8390 O.2   2002  UQ2002     -0.4652
     16  O3        60.7020  102.7470   84.1530 O.2   2002  UQ2002     -0.4652
     17  O4        58.4940  101.2520   85.1370 O.2   2002  UQ2002     -0.2836
     18  O1        57.4600  104.4880   80.8290 O.2   2002  UQ2002     -0.2835
@<TRIPOS>BOND
     1    13    14    1
     2    13    12    1
     3    11    12    2
     4    11    10    1
     5    18     1    2
     6    10     6    1
     7     1     6    1
     8     1     2    1
     9    15     2    1
    10    15     9    1
    11     6     5    2
    12     2     3    2
    13     5     4    1
    14     5     7    1
    15     3    16    1
    16     3     4    1
    17    16     8    1
    18     4    17    2
