@<TRIPOS>MOLECULE
2a06_SMA_C_1.pdb
 37 38 0 0 0
SMALL
GASTEIGER

@<TRIPOS>ATOM
      1  C2        62.1270   85.8670   57.0330 C.ar  2001  SMA2001     0.1220
      2  C3        63.0130   85.1670   56.2500 C.ar  2001  SMA2001     0.0475
      3  C3M       64.3950   84.7960   56.7370 C.3   2001  SMA2001     0.0373
      4  C4        62.6240   84.7560   54.8450 C.ar  2001  SMA2001     0.2002
      5  C4A       61.2420   85.1760   54.4230 C.ar  2001  SMA2001     0.1105
      6  C5        60.6690   84.9190   53.1240 C.ar  2001  SMA2001     0.1479
      7  C5M       60.9670   84.0190   50.9120 C.3   2001  SMA2001     0.2525
      8  C6        59.3380   85.3450   52.8140 C.ar  2001  SMA2001     0.0774
      9  C7        58.5480   86.0280   53.7780 C.ar  2001  SMA2001     0.1835
     10  C7M       56.8270   86.6640   52.2060 C.3   2001  SMA2001     0.2526
     11  C8        59.0890   86.3080   55.0680 C.ar  2001  SMA2001     0.2636
     12  C8A       60.4130   85.8790   55.3540 C.ar  2001  SMA2001     0.1925
     13  C9        62.3050   86.4270   58.4210 C.3   2001  SMA2001     0.0644
     14  C10       62.2900   85.4950   59.5920 C.3   2001  SMA2001     0.0104
     15  C11       62.0650   86.3070   60.8910 C.3   2001  SMA2001     0.0278
     16  C12       62.1520   85.4090   62.1560 C.3   2001  SMA2001     0.1179
     17  C13       61.0270   84.3360   62.1860 C.3   2001  SMA2001     0.0586
     18  C14       61.0990   83.5200   63.5110 C.3   2001  SMA2001     0.1395
     19  C15       60.3060   82.2280   63.4110 C.2   2001  SMA2001     0.0029
     20  C16       58.9920   82.0650   63.6730 C.2   2001  SMA2001    -0.0022
     21  C17       58.3960   80.7490   63.8180 C.2   2001  SMA2001    -0.0006
     22  C18       57.0960   80.5630   64.0740 C.2   2001  SMA2001    -0.0046
     23  C19       56.3660   79.2860   63.9720 C.2   2001  SMA2001    -0.0261
     24  C20       55.1940   79.1610   64.6480 C.2   2001  SMA2001    -0.0300
     25  C21       54.3000   77.9720   64.6840 C.3   2001  SMA2001     0.0304
     26  C22       63.0490   87.4790   61.0100 C.3   2001  SMA2001     0.0025
     27  C23       64.3160   85.1300   63.2180 C.3   2001  SMA2001     0.1740
     28  C24       59.6410   84.9990   61.9940 C.3   2001  SMA2001     0.0054
     29  C25       61.1970   84.0800   65.8600 C.3   2001  SMA2001     0.1745
     30  C26       56.9560   78.1970   63.1210 C.3   2001  SMA2001     0.0307
     31  O1        60.8470   86.2160   56.6110 O.2   2001  SMA2001    -0.4544
     32  O4        63.4140   84.1330   54.1150 O.2   2001  SMA2001    -0.2866
     33  O5        61.4820   84.2690   52.2160 O.3   2001  SMA2001    -0.4711
     34  O7        57.2530   86.4770   53.5630 O.3   2001  SMA2001    -0.4680
     35  O8        58.2950   86.9840   55.9720 O.3   2001  SMA2001    -0.2800
     36  O12       63.4240   84.7140   62.1840 O.3   2001  SMA2001    -0.3535
     37  O14       60.6480   84.3950   64.5830 O.3   2001  SMA2001    -0.3491
@<TRIPOS>BOND
     1     7    33    1
     2    10    34    1
     3    33     6    1
     4     8     6   ar
     5     8     9   ar
     6     6     5   ar
     7    34     9    1
     8     9    11   ar
     9    32     4    2
    10     5     4   ar
    11     5    12   ar
    12     4     2   ar
    13    11    12   ar
    14    11    35    1
    15    12    31   ar
    16     2     3    1
    17     2     1   ar
    18    31     1   ar
    19     1    13    1
    20    13    14    1
    21    14    15    1
    22    15    26    1
    23    15    16    1
    24    28    17    1
    25    16    36    1
    26    16    17    1
    27    36    27    1
    28    17    18    1
    29    30    23    1
    30    19    18    1
    31    19    20    2
    32    18    37    1
    33    20    21    1
    34    21    22    2
    35    23    22    1
    36    23    24    2
    37    37    29    1
    38    24    25    1
