@<TRIPOS>MOLECULE
2a0c_CK9_X_1.pdb
 27 29 0 0 0
SMALL
GASTEIGER

@<TRIPOS>ATOM
      1  O27        3.4740    9.8470   27.9890 O.3   500  CK9500     -0.2869
      2  C24        4.1320    9.7280   29.1940 C.ar  500  CK9500      0.1934
      3  C23        4.2590   10.8230   30.0990 C.ar  500  CK9500      0.0418
      4  C22        4.9420   10.6450   31.3430 C.ar  500  CK9500      0.0033
      5  C21        5.4970    9.3750   31.6790 C.ar  500  CK9500     -0.0001
      6  C20        5.3710    8.2830   30.7740 C.ar  500  CK9500      0.0006
      7  C19        4.7060    8.4760   29.5380 C.ar  500  CK9500      0.0384
      8  C18        4.5230    7.3480   28.5790 C.3   500  CK9500      0.1444
      9  N17        3.5280    6.4870   28.6970 N.pl3 500  CK9500     -0.2026
     10  C4         2.4240    6.4650   28.1680 C.2   500  CK9500      0.2344
     11  C5         1.5150    5.4070   28.2980 C.2   500  CK9500      0.1690
     12  N9         1.4980    4.2120   28.9170 N.2   500  CK9500     -0.2402
     13  C8         0.3690    3.6070   28.6340 C.3   500  CK9500      0.2220
     14  C6         0.2650    5.5380   27.5840 C.2   500  CK9500      0.2197
     15  N7        -0.4450    4.3860   27.8110 N.pl3 500  CK9500     -0.2624
     16  C10       -1.8090    4.0590   27.2480 C.3   500  CK9500      0.0770
     17  C12       -1.6370    3.7090   25.7810 C.3   500  CK9500      0.0216
     18  C11       -2.9320    5.1140   27.3750 C.3   500  CK9500      0.0216
     19  N3        -0.0340    6.6310   26.8070 N.2   500  CK9500     -0.3099
     20  C2         0.8550    7.6550   26.7100 C.1   500  CK9500      0.2227
     21  N1         2.0320    7.5560   27.3930 N.2   500  CK9500     -0.3084
     22  N13        0.6230    8.6970   25.9820 N.pl3 500  CK9500     -0.1508
     23  C14       -0.5390    8.8980   25.0470 C.3   500  CK9500      0.1385
     24  C25       -1.6670    9.6260   25.8740 C.3   500  CK9500      0.0252
     25  C26       -1.5940   11.1530   26.1440 C.3   500  CK9500      0.0019
     26  C15       -1.0700    7.6310   24.2720 C.3   500  CK9500      0.2044
     27  O16       -0.2060    7.0360   23.2990 O.3   500  CK9500     -0.2185
@<TRIPOS>BOND
     1    27    26    1
     2    26    23    1
     3    23    24    1
     4    23    22    1
     5    17    16    1
     6    24    25    1
     7    22    20    1
     8    20    19    2
     9    20    21    2
    10    19    14    2
    11    16    18    1
    12    16    15    1
    13    21    10    2
    14    14    15    1
    15    14    11    1
    16    15    13    1
    17     1     2    1
    18    10    11    1
    19    10     9    1
    20    11    12    2
    21     8     9    1
    22     8     7    1
    23    13    12    1
    24     2     7   ar
    25     2     3   ar
    26     7     6   ar
    27     3     4   ar
    28     6     5   ar
    29     4     5   ar
