@<TRIPOS>MOLECULE
2a0s_BIO_A_1.pdb
 17 18 0 0 0
SMALL
GASTEIGER

@<TRIPOS>ATOM
      1  N1       -16.2290  -10.8870    0.2150 N.2   282  BIO282     -0.2672
      2  N2       -15.0290  -10.4180    2.1370 N.pl3 282  BIO282     -0.0220
      3  C2       -15.1630  -11.1040    1.0060 C.1   282  BIO282      0.2609
      4  N3       -14.1910  -12.0510    0.6360 N.2   282  BIO282     -0.2466
      5  C4       -14.3450  -12.7650   -0.5620 C.1   282  BIO282      0.2569
      6  O4       -13.5010  -13.5970   -0.8940 O.2   282  BIO282     -0.2052
      7  C4A      -15.4630  -12.5130   -1.3580 C.2   282  BIO282      0.2989
      8  C8A      -16.3960  -11.5590   -0.9400 C.1   282  BIO282      0.1401
      9  N8       -17.4770  -11.3100   -1.6980 N.2   282  BIO282     -0.1992
     10  C7       -17.6680  -11.9600   -2.8350 C.3   282  BIO282      0.1940
     11  C6       -16.7430  -12.9120   -3.2720 C.2   282  BIO282      0.1466
     12  N5       -15.6590  -13.1730   -2.5170 N.2   282  BIO282     -0.3830
     13  C9       -16.9780  -13.6680   -4.5990 C.3   282  BIO282      0.2313
     14  O9       -16.2270  -14.8910   -4.6050 O.3   282  BIO282     -0.2130
     15  C10      -16.6010  -12.8360   -5.8410 C.3   282  BIO282      0.1888
     16  O10      -15.4020  -12.0910   -5.6110 O.3   282  BIO282     -0.2200
     17  C11      -17.7460  -11.9120   -6.2740 C.3   282  BIO282      0.0387
@<TRIPOS>BOND
     1    17    15    1
     2    15    16    1
     3    15    13    1
     4    14    13    1
     5    13    11    1
     6    11    10    1
     7    11    12    2
     8    10     9    1
     9    12     7    2
    10     9     8    2
    11     7     8    1
    12     7     5    1
    13     8     1    2
    14     6     5    2
    15     5     4    2
    16     1     3    2
    17     4     3    2
    18     3     2    1
