@<TRIPOS>MOLECULE
2a0w_DIH_A_1.pdb
 19 21 0 0 0
SMALL
GASTEIGER

@<TRIPOS>ATOM
      1  O5'        1.6370   22.1390   23.6200 O.3   300  DIH300     -0.2203
      2  C5'        1.8130   20.8080   23.1460 C.3   300  DIH300      0.1860
      3  C4'        3.0900   20.1050   22.8540 C.3   300  DIH300      0.0807
      4  C6'        3.9070   20.0380   24.0800 C.3   300  DIH300      0.0776
      5  C3'        2.9070   18.7060   22.3680 C.3   300  DIH300      0.1717
      6  O3'        3.7350   18.3020   21.2820 O.3   300  DIH300     -0.2215
      7  C2'        3.0510   18.0710   23.6910 C.3   300  DIH300      0.1057
      8  N1'        4.2160   18.6480   24.3020 N.3   300  DIH300     -0.2665
      9  C10        4.4310   18.3740   25.7070 C.3   300  DIH300      0.1023
     10  C9         3.5120   18.5390   26.8560 C.2   300  DIH300      0.0325
     11  C8         3.3800   19.5980   27.7420 C.2   300  DIH300      0.0983
     12  N7         2.4610   19.4360   28.6620 N.2   300  DIH300     -0.2310
     13  C5         1.9160   18.1860   28.4030 C.2   300  DIH300      0.1804
     14  C6         0.8530   17.4510   29.0830 C.1   300  DIH300      0.1716
     15  O6         0.2110   17.8230   30.0560 O.2   300  DIH300     -0.2206
     16  N1         0.5660   16.1670   28.5130 N.2   300  DIH300     -0.1739
     17  C2         1.2380   15.6230   27.3840 C.3   300  DIH300      0.2626
     18  N3         2.2430   16.3200   26.7410 N.2   300  DIH300     -0.2415
     19  C4         2.5470   17.6010   27.2900 C.2   300  DIH300      0.1058
@<TRIPOS>BOND
     1     6     5    1
     2     5     3    1
     3     5     7    1
     4     3     2    1
     5     3     4    1
     6     2     1    1
     7     7     8    1
     8     4     8    1
     9     8     9    1
    10     9    10    1
    11    18    19    2
    12    18    17    1
    13    10    19    1
    14    10    11    2
    15    19    13    1
    16    17    16    1
    17    11    12    1
    18    13    12    2
    19    13    14    1
    20    16    14    2
    21    14    15    2
