@<TRIPOS>MOLECULE
2a0x_DIH_A_1.pdb
 19 21 0 0 0
SMALL
GASTEIGER

@<TRIPOS>ATOM
      1  O5'        1.3120   21.8540   23.8420 O.3   300  DIH300     -0.2203
      2  C5'        1.5900   20.5660   23.3090 C.3   300  DIH300      0.1860
      3  C4'        2.9130   19.9860   22.9650 C.3   300  DIH300      0.0807
      4  C6'        3.7640   19.9490   24.1690 C.3   300  DIH300      0.0776
      5  C3'        2.8200   18.5960   22.4280 C.3   300  DIH300      0.1717
      6  O3'        3.6110   18.2930   21.2810 O.3   300  DIH300     -0.2215
      7  C2'        3.0780   17.9180   23.7160 C.3   300  DIH300      0.1057
      8  N1'        4.1920   18.5800   24.3570 N.3   300  DIH300     -0.2665
      9  C10        4.4020   18.2790   25.7620 C.3   300  DIH300      0.1023
     10  C9         3.4480   18.4400   26.8890 C.2   300  DIH300      0.0325
     11  C8         3.2650   19.5200   27.7310 C.2   300  DIH300      0.0983
     12  N7         2.3270   19.3610   28.6330 N.2   300  DIH300     -0.2310
     13  C5         1.8270   18.0910   28.4140 C.2   300  DIH300      0.1804
     14  C6         0.7630   17.3630   29.0950 C.1   300  DIH300      0.1716
     15  O6         0.0910   17.7620   30.0400 O.2   300  DIH300     -0.2206
     16  N1         0.5250   16.0520   28.5790 N.2   300  DIH300     -0.1739
     17  C2         1.2350   15.4780   27.4890 C.3   300  DIH300      0.2626
     18  N3         2.2390   16.1700   26.8370 N.2   300  DIH300     -0.2415
     19  C4         2.4980   17.4850   27.3370 C.2   300  DIH300      0.1058
@<TRIPOS>BOND
     1     6     5    1
     2     5     3    1
     3     5     7    1
     4     3     2    1
     5     3     4    1
     6     2     1    1
     7     7     8    1
     8     4     8    1
     9     8     9    1
    10     9    10    1
    11    18    19    2
    12    18    17    1
    13    10    19    1
    14    10    11    2
    15    19    13    1
    16    17    16    1
    17    11    12    1
    18    13    12    2
    19    13    14    1
    20    16    14    2
    21    14    15    2
