@<TRIPOS>MOLECULE
2a0z_GLC_A_1.pdb
 12 12 0 0 0
SMALL
GASTEIGER

@<TRIPOS>ATOM
      1  C1       -26.5230   -7.0780   13.2540 C.3   753  GLC753      0.3024
      2  C2       -28.0750   -7.1170   13.2330 C.3   753  GLC753      0.2434
      3  C3       -28.5680   -7.7970   14.5250 C.3   753  GLC753      0.2199
      4  C4       -28.0260   -9.1930   14.6960 C.3   753  GLC753      0.2144
      5  C5       -26.4580   -9.0950   14.6980 C.3   753  GLC753      0.1836
      6  C6       -25.9820  -10.5060   14.9670 C.3   753  GLC753      0.2142
      7  O1       -25.9570   -6.2150   14.2280 O.3   753  GLC753     -0.1869
      8  O2       -28.5800   -5.7910   13.0920 O.3   753  GLC753     -0.2148
      9  O3       -29.9970   -7.8820   14.5360 O.3   753  GLC753     -0.2174
     10  O4       -28.5210   -9.7700   15.9190 O.3   753  GLC753     -0.2176
     11  O5       -25.9890   -8.5120   13.4130 O.3   753  GLC753     -0.3236
     12  O6       -25.9780  -11.1030   13.6620 O.3   753  GLC753     -0.2176
@<TRIPOS>BOND
     1     8     2    1
     2     2     1    1
     3     2     3    1
     4     1    11    1
     5     1     7    1
     6    11     5    1
     7    12     6    1
     8     3     9    1
     9     3     4    1
    10     4     5    1
    11     4    10    1
    12     5     6    1
