@<TRIPOS>MOLECULE
2a14_SAH_A_1.pdb
 26 28 0 0 0
SMALL
GASTEIGER

@<TRIPOS>ATOM
      1  N         18.6650   40.4080    7.5850 N.3   4001  SAH4001    -0.1208
      2  CA        19.8600   39.6850    8.1230 C.3   4001  SAH4001     0.1952
      3  CB        21.0470   40.6200    8.4200 C.3   4001  SAH4001     0.0422
      4  CG        20.8660   41.6720    9.5290 C.3   4001  SAH4001     0.0597
      5  SD        22.4720   42.3730   10.0020 S.3   4001  SAH4001    -0.1375
      6  C         19.4580   38.7810    9.3020 C.2   4001  SAH4001     0.3819
      7  O         18.2580   38.5000    9.4550 O.co2 4001  SAH4001    -0.2441
      8  OXT       20.3010   38.3090   10.0770 O.co2 4001  SAH4001    -0.2441
      9  C5'       22.2510   44.1150    9.5370 C.3   4001  SAH4001     0.0899
     10  C4'       22.3030   44.3790    8.0350 C.3   4001  SAH4001     0.1630
     11  O4'       22.0280   45.7600    7.8240 O.3   4001  SAH4001    -0.3153
     12  C3'       23.6620   44.1040    7.3730 C.3   4001  SAH4001     0.2168
     13  O3'       23.4900   43.1180    6.3710 O.3   4001  SAH4001    -0.2175
     14  C2'       24.0720   45.4500    6.7810 C.3   4001  SAH4001     0.2569
     15  O2'       24.7760   45.3980    5.5510 O.3   4001  SAH4001    -0.2130
     16  C1'       22.6970   46.0970    6.6240 C.3   4001  SAH4001     0.3185
     17  N9        22.7210   47.5470    6.4220 N.pl3 4001  SAH4001    -0.1439
     18  C8        23.5110   48.4940    7.0180 C.3   4001  SAH4001     0.3377
     19  N7        23.1790   49.7030    6.5120 N.2   4001  SAH4001    -0.2095
     20  C5        22.1770   49.5520    5.6150 C.2   4001  SAH4001     0.2526
     21  C6        21.4630   50.4500    4.8180 C.2   4001  SAH4001     0.4393
     22  N6        21.7140   51.7710    4.8460 N.pl3 4001  SAH4001     0.2180
     23  N1        20.4740   49.9560    4.0020 N.2   4001  SAH4001     0.0021
     24  C2        20.1930   48.6000    3.9460 C.3   4001  SAH4001     0.5254
     25  N3        20.9050   47.7190    4.7350 N.2   4001  SAH4001    -0.0055
     26  C4        21.8770   48.1910    5.5540 C.2   4001  SAH4001     0.3518
@<TRIPOS>BOND
     1    24    23    1
     2    24    25    1
     3    23    21    2
     4    25    26    2
     5    21    22    1
     6    21    20    1
     7    15    14    1
     8    26    20    1
     9    26    17    1
    10    20    19    2
    11    13    12    1
    12    17    16    1
    13    17    18    1
    14    19    18    1
    15    16    14    1
    16    16    11    1
    17    14    12    1
    18    12    10    1
    19     1     2    1
    20    11    10    1
    21    10     9    1
    22     2     3    1
    23     2     6    1
    24     3     4    1
    25     6     7   ar
    26     6     8   ar
    27     4     5    1
    28     9     5    1
