@<TRIPOS>MOLECULE
2a1d_0G6_B_1.pdb
 30 31 0 0 0
SMALL
GASTEIGER

@<TRIPOS>ATOM
      1  N         22.1010   53.7380   43.8480 N.3   500  0G6500     -0.1228
      2  CA        21.1580   54.2110   42.8410 C.3   500  0G6500      0.1721
      3  C         19.9970   54.8650   43.6480 C.2   500  0G6500      0.2437
      4  O         20.2860   55.5530   44.6260 O.2   500  0G6500     -0.2733
      5  CB        21.9050   55.2290   41.9090 C.3   500  0G6500      0.0547
      6  CG        20.9950   55.7590   40.8070 C.ar  500  0G6500     -0.0202
      7  CD1       20.6310   54.9010   39.7040 C.ar  500  0G6500     -0.0042
      8  CD2       20.4890   57.1080   40.8540 C.ar  500  0G6500     -0.0042
      9  CE1       19.7630   55.3850   38.6540 C.ar  500  0G6500     -0.0003
     10  CE2       19.6200   57.5940   39.8030 C.ar  500  0G6500     -0.0003
     11  CZ        19.2560   56.7270   38.7010 C.ar  500  0G6500     -0.0000
     12  N1        18.6790   54.6680   43.2430 N.am  500  0G6500     -0.2718
     13  CA1       17.6120   55.3230   44.0400 C.3   500  0G6500      0.1535
     14  C1        17.4980   54.7830   45.4470 C.2   500  0G6500      0.2598
     15  O1        17.8730   53.6220   45.6750 O.2   500  0G6500     -0.2715
     16  CB1       16.3210   55.1090   43.2840 C.3   500  0G6500      0.0310
     17  CG1       16.5950   54.1270   42.2250 C.3   500  0G6500      0.0237
     18  CD        18.1000   54.0090   42.0590 C.3   500  0G6500      0.0939
     19  N2        16.9810   55.6320   46.3800 N.am  500  0G6500     -0.1983
     20  CA2       16.8130   55.2480   47.7690 C.3   500  0G6500      0.1524
     21  C2        15.3540   55.2530   48.1720 C.2   500  0G6500      0.1707
     22  O2        15.0180   54.9430   49.3170 O.2   500  0G6500     -0.2943
     23  CB2       17.6470   56.1580   48.6710 C.3   500  0G6500      0.0329
     24  CG2       19.1050   55.7720   48.5700 C.3   500  0G6500      0.0491
     25  CD3       20.0280   56.5980   49.3880 C.3   500  0G6500      0.2205
     26  NE        21.4030   56.1390   49.1950 N.pl3 500  0G6500     -0.0865
     27  CZ1       22.5030   56.6530   49.7600 C.cat 500  0G6500      0.5346
     28  NH1       23.6740   56.1150   49.4820 N.pl3 500  0G6500      0.1354
     29  NH2       22.4610   57.6890   50.5940 N.pl3 500  0G6500      0.1354
     30  C3        14.3440   55.5870   47.0910 C.3   500  0G6500      0.0741
@<TRIPOS>BOND
     1     9    11   ar
     2     9     7   ar
     3    11    10   ar
     4     7     6   ar
     5    10     8   ar
     6     6     8   ar
     7     6     5    1
     8     5     2    1
     9    18    17    1
    10    18    12    1
    11    17    16    1
    12     2     3    1
    13     2     1    1
    14    12     3   am
    15    12    13    1
    16    16    13    1
    17     3     4    2
    18    13    14    1
    19    14    15    2
    20    14    19   am
    21    19    20    1
    22    30    21    1
    23    20    21    1
    24    20    23    1
    25    21    22    2
    26    24    23    1
    27    24    25    1
    28    26    25    1
    29    26    27    2
    30    28    27    1
    31    27    29    1
