@<TRIPOS>MOLECULE
2a1h_PLP_A_1.pdb
 15 15 0 0 0
SMALL
GASTEIGER

@<TRIPOS>ATOM
      1  N1         9.7970    9.9910   14.0710 N.ar  400  PLP400     -0.2452
      2  C2        10.6090    8.9390   13.8330 C.ar  400  PLP400      0.0978
      3  C2A       11.0630    8.0940   15.0170 C.3   400  PLP400      0.0555
      4  C3        10.9990    8.6750   12.5160 C.ar  400  PLP400      0.2049
      5  O3        11.7940    7.6420   12.2880 O.3   400  PLP400     -0.2857
      6  C4        10.5630    9.4860   11.4480 C.ar  400  PLP400      0.0182
      7  C4A       11.0420    9.1670    9.9890 C.3   400  PLP400      0.0342
      8  C5         9.7000   10.5710   11.7630 C.ar  400  PLP400      0.0261
      9  C6         9.3390   10.7950   13.0590 C.ar  400  PLP400      0.0965
     10  C5A        9.0890   11.4850   10.7660 C.3   400  PLP400      0.1815
     11  O4P        9.9570   12.1010    9.8940 O.3   400  PLP400     -0.2653
     12  P          9.4280   12.5990    8.5070 P.3   400  PLP400      0.5329
     13  O1P        9.1810   11.5110    7.6160 O.2   400  PLP400     -0.2224
     14  O2P       10.6800   13.3220    7.9970 O.3   400  PLP400     -0.1145
     15  O3P        8.3940   13.6290    8.7450 O.3   400  PLP400     -0.1145
@<TRIPOS>BOND
     1    13    12    2
     2    14    12    1
     3    12    15    1
     4    12    11    1
     5    11    10    1
     6     7     6    1
     7    10     8    1
     8     6     8   ar
     9     6     4   ar
    10     8     9   ar
    11     5     4    1
    12     4     2   ar
    13     9     1   ar
    14     2     1   ar
    15     2     3    1
