@<TRIPOS>MOLECULE
2a1h_GBN_A_1.pdb
 12 12 0 0 0
SMALL
GASTEIGER

@<TRIPOS>ATOM
      1  N1         6.9890    5.5830   10.3960 N.3   502  GBN502     -0.1314
      2  C2         7.5980    5.0570    9.1650 C.3   502  GBN502      0.1098
      3  C3         8.6890    7.3080    8.9400 C.3   502  GBN502      0.1155
      4  C1R        8.9050    5.7940    8.8550 C.3   502  GBN502      0.0284
      5  C2R        9.9870    5.4280    9.8770 C.3   502  GBN502      0.0020
      6  C3R       10.4040    3.9560    9.7960 C.3   502  GBN502      0.0001
      7  C4R       10.8790    3.6050    8.3840 C.3   502  GBN502      0.0000
      8  C5R        9.7900    3.9350    7.3590 C.3   502  GBN502      0.0001
      9  C6R        9.3940    5.4110    7.4520 C.3   502  GBN502      0.0020
     10  C          7.5320    7.8190    8.0790 C.2   502  GBN502      0.3649
     11  OA         7.6700    7.9450    6.8630 O.co2 502  GBN502     -0.2457
     12  OB         6.4560    8.1060    8.6010 O.co2 502  GBN502     -0.2457
@<TRIPOS>BOND
     1    11    10   ar
     2     8     9    1
     3     8     7    1
     4     9     4    1
     5    10    12   ar
     6    10     3    1
     7     7     6    1
     8     4     3    1
     9     4     2    1
    10     4     5    1
    11     2     1    1
    12     6     5    1
