@<TRIPOS>MOLECULE
2a1m_CAM_A_1.pdb
 11 12 0 0 0
SMALL
GASTEIGER

@<TRIPOS>ATOM
      1  C1        22.9070   -2.1080   50.1310 C.3   1422  CAM1422     0.0515
      2  C2        24.0000   -1.9150   51.2340 C.2   1422  CAM1422     0.1498
      3  O         24.4300   -2.7980   51.9760 O.2   1422  CAM1422    -0.2961
      4  C3        24.4350   -0.4500   51.2310 C.3   1422  CAM1422     0.0645
      5  C4        23.4430   -0.0420   50.0380 C.3   1422  CAM1422     0.0077
      6  C5        24.0790   -0.5980   48.6530 C.3   1422  CAM1422     0.0009
      7  C6        23.6910   -2.1450   48.7310 C.3   1422  CAM1422     0.0069
      8  C7        22.1340   -0.7880   50.2000 C.3   1422  CAM1422     0.0066
      9  C8        21.3110   -0.5040   51.5510 C.3   1422  CAM1422     0.0004
     10  C9        21.1250   -0.4550   49.0390 C.3   1422  CAM1422     0.0004
     11  C10       22.0080   -3.3520   50.2960 C.3   1422  CAM1422     0.0073
@<TRIPOS>BOND
     1     6     7    1
     2     6     5    1
     3     7     1    1
     4    10     8    1
     5     5     8    1
     6     5     4    1
     7     1     8    1
     8     1    11    1
     9     1     2    1
    10     8     9    1
    11     4     2    1
    12     2     3    2
