@<TRIPOS>MOLECULE
2a1m_HEM_A_1.pdb
 43 50 0 0 0
SMALL
GASTEIGER

@<TRIPOS>ATOM
      1 FE         22.8940    2.8260   46.0860 Fe    417  HEM417      0.0000
      2  CHA       24.3690    3.5740   49.1230 C.2   417  HEM417      0.0000
      3  CHB       19.8000    3.4040   47.4780 C.2   417  HEM417      0.0000
      4  CHC       21.4630    2.4080   43.0040 C.2   417  HEM417      0.0000
      5  CHD       25.9620    2.0990   44.7840 C.2   417  HEM417      0.0000
      6  NA        22.2310    3.2930   47.9270 N.2   417  HEM417      0.0000
      7  C1A       22.9730    3.6020   49.0730 C.2   417  HEM417      0.0000
      8  C2A       22.1240    3.9410   50.2030 C.2   417  HEM417      0.0000
      9  C3A       20.8400    3.8260   49.7430 C.2   417  HEM417      0.0000
     10  C4A       20.9040    3.4470   48.3390 C.2   417  HEM417      0.0000
     11  CMA       19.5560    4.1030   50.5090 C.3   417  HEM417      0.0000
     12  CAA       22.6330    4.3650   51.6010 C.3   417  HEM417      0.0000
     13  CBA       22.3520    3.3270   52.6850 C.3   417  HEM417      0.0000
     14  CGA       22.9960    3.6670   54.0230 C.2   417  HEM417      0.0000
     15  O1A       23.0090    4.8590   54.4070 O.co2 417  HEM417      0.0000
     16  O2A       23.4800    2.7340   54.6950 O.co2 417  HEM417      0.0000
     17  NB        21.0180    2.8750   45.3940 N.ar  417  HEM417      0.0000
     18  C1B       19.8410    3.1200   46.1160 C.ar  417  HEM417      0.0000
     19  C2B       18.6850    3.1150   45.2510 C.ar  417  HEM417      0.0000
     20  C3B       19.1480    2.8570   43.9890 C.ar  417  HEM417      0.0000
     21  C4B       20.5920    2.7110   44.0830 C.ar  417  HEM417      0.0000
     22  CMB       17.2420    3.3880   45.6680 C.3   417  HEM417      0.0000
     23  CAB       18.4280    2.6300   42.8170 C.2   417  HEM417      0.0000
     24  CBB       17.1840    3.0420   42.4820 C.2   417  HEM417      0.0000
     25  NC        23.5720    2.3330   44.2770 N.2   417  HEM417      0.0000
     26  C1C       22.8540    2.2230   43.0950 C.2   417  HEM417      0.0000
     27  C2C       23.7160    1.7700   42.0010 C.2   417  HEM417      0.0000
     28  C3C       24.9480    1.5800   42.5170 C.2   417  HEM417      0.0000
     29  C4C       24.8670    1.9730   43.9220 C.2   417  HEM417      0.0000
     30  CMC       23.3340    1.5490   40.5390 C.3   417  HEM417      0.0000
     31  CAC       26.0530    1.1160   41.7880 C.2   417  HEM417      0.0000
     32  CBC       26.9060    0.1590   42.2520 C.2   417  HEM417      0.0000
     33  ND        24.7500    2.8460   46.7960 N.ar  417  HEM417      0.0000
     34  C1D       25.9100    2.5000   46.1220 C.ar  417  HEM417      0.0000
     35  C2D       27.0780    2.5880   46.9800 C.ar  417  HEM417      0.0000
     36  C3D       26.6300    2.9980   48.1750 C.ar  417  HEM417      0.0000
     37  C4D       25.1940    3.1850   48.0600 C.ar  417  HEM417      0.0000
     38  CMD       28.5170    2.2910   46.5950 C.3   417  HEM417      0.0000
     39  CAD       27.4420    3.1660   49.4440 C.3   417  HEM417      0.0000
     40  CBD       27.8390    4.6030   49.7150 C.3   417  HEM417      0.0000
     41  CGD       28.4570    4.7810   51.0890 C.2   417  HEM417      0.0000
     42  O1D       28.9930    5.8810   51.3600 O.co2 417  HEM417      0.0000
     43  O2D       28.4000    3.8250   51.8960 O.co2 417  HEM417      0.0000
@<TRIPOS>BOND
     1    30    27    1
     2    31    32    2
     3    31    28    1
     4    27    28    2
     5    27    26    1
     6    24    23    2
     7    28    29    1
     8    23    20    1
     9     4    26    2
    10     4    21    1
    11    26    25    1
    12    29    25    2
    13    29     5    1
    14    20    21   ar
    15    20    19   ar
    16    21    17   ar
    17    25     1    1
    18     5    34    2
    19    19    22    1
    20    19    18   ar
    21    17     1    1
    22    17    18   ar
    23     1    33    1
    24     1     6    1
    25    18     3    1
    26    34    33   ar
    27    34    35   ar
    28    38    35    1
    29    33    37   ar
    30    35    36   ar
    31     3    10    2
    32     6    10    1
    33     6     7    2
    34    37    36   ar
    35    37     2    2
    36    36    39    1
    37    10     9    1
    38     7     2    1
    39     7     8    1
    40    39    40    1
    41    40    41    1
    42     9     8    2
    43     9    11    1
    44     8    12    1
    45    41    42   ar
    46    41    43   ar
    47    12    13    1
    48    13    14    1
    49    14    15   ar
    50    14    16   ar
