@<TRIPOS>MOLECULE
2a1n_HEM_A_1.pdb
 43 50 0 0 0
SMALL
GASTEIGER

@<TRIPOS>ATOM
      1 FE         56.5490    2.6910   45.8000 Fe    417  HEM417      0.0000
      2  CHA       57.9880    3.3650   48.8780 C.2   417  HEM417      0.0000
      3  CHB       53.4430    3.2700   47.1660 C.2   417  HEM417      0.0000
      4  CHC       55.1290    2.0510   42.7590 C.2   417  HEM417      0.0000
      5  CHD       59.6200    1.9410   44.5480 C.2   417  HEM417      0.0000
      6  NA        55.8810    3.1980   47.6230 N.2   417  HEM417      0.0000
      7  C1A       56.5990    3.4390   48.7920 C.2   417  HEM417      0.0000
      8  C2A       55.7190    3.7820   49.9020 C.2   417  HEM417      0.0000
      9  C3A       54.4550    3.7310   49.4030 C.2   417  HEM417      0.0000
     10  C4A       54.5460    3.3900   48.0140 C.2   417  HEM417      0.0000
     11  CMA       53.1400    4.0140   50.1460 C.3   417  HEM417      0.0000
     12  CAA       56.1570    4.2140   51.3300 C.3   417  HEM417      0.0000
     13  CBA       56.3000    3.0400   52.2950 C.3   417  HEM417      0.0000
     14  CGA       56.6780    3.4600   53.7120 C.2   417  HEM417      0.0000
     15  O1A       56.9710    2.5620   54.5290 O.co2 417  HEM417      0.0000
     16  O2A       56.6790    4.6760   54.0180 O.co2 417  HEM417      0.0000
     17  NB        54.7010    2.6680   45.1230 N.ar  417  HEM417      0.0000
     18  C1B       53.5150    2.9190   45.8230 C.ar  417  HEM417      0.0000
     19  C2B       52.3760    2.9070   44.9410 C.ar  417  HEM417      0.0000
     20  C3B       52.8510    2.6570   43.6850 C.ar  417  HEM417      0.0000
     21  C4B       54.2820    2.4560   43.8110 C.ar  417  HEM417      0.0000
     22  CMB       50.9400    3.2380   45.3540 C.3   417  HEM417      0.0000
     23  CAB       52.1790    2.5840   42.4590 C.2   417  HEM417      0.0000
     24  CBB       50.8420    2.5400   42.2340 C.2   417  HEM417      0.0000
     25  NC        57.2300    2.0770   44.0370 N.2   417  HEM417      0.0000
     26  C1C       56.5080    1.8700   42.8740 C.2   417  HEM417      0.0000
     27  C2C       57.3590    1.3860   41.8100 C.2   417  HEM417      0.0000
     28  C3C       58.6220    1.2970   42.3220 C.2   417  HEM417      0.0000
     29  C4C       58.5350    1.7630   43.7000 C.2   417  HEM417      0.0000
     30  CMC       56.8830    1.0030   40.4070 C.3   417  HEM417      0.0000
     31  CAC       59.7530    0.8400   41.6400 C.2   417  HEM417      0.0000
     32  CBC       60.5590   -0.1670   42.0750 C.2   417  HEM417      0.0000
     33  ND        58.4050    2.7030   46.5370 N.ar  417  HEM417      0.0000
     34  C1D       59.5770    2.3540   45.8700 C.ar  417  HEM417      0.0000
     35  C2D       60.7490    2.4390   46.7350 C.ar  417  HEM417      0.0000
     36  C3D       60.2780    2.8610   47.9390 C.ar  417  HEM417      0.0000
     37  C4D       58.8320    3.0200   47.8160 C.ar  417  HEM417      0.0000
     38  CMD       62.1980    2.0350   46.3670 C.3   417  HEM417      0.0000
     39  CAD       61.0440    3.0710   49.2300 C.3   417  HEM417      0.0000
     40  CBD       61.5020    4.4920   49.4930 C.3   417  HEM417      0.0000
     41  CGD       62.0310    4.6730   50.9020 C.2   417  HEM417      0.0000
     42  O1D       62.6530    5.7220   51.1790 O.co2 417  HEM417      0.0000
     43  O2D       61.8110    3.7700   51.7380 O.co2 417  HEM417      0.0000
@<TRIPOS>BOND
     1    30    27    1
     2    31    32    2
     3    31    28    1
     4    27    28    2
     5    27    26    1
     6    24    23    2
     7    28    29    1
     8    23    20    1
     9     4    26    2
    10     4    21    1
    11    26    25    1
    12    20    21   ar
    13    20    19   ar
    14    29    25    2
    15    29     5    1
    16    21    17   ar
    17    25     1    1
    18     5    34    2
    19    19    22    1
    20    19    18   ar
    21    17     1    1
    22    17    18   ar
    23     1    33    1
    24     1     6    1
    25    18     3    1
    26    34    33   ar
    27    34    35   ar
    28    38    35    1
    29    33    37   ar
    30    35    36   ar
    31     3    10    2
    32     6    10    1
    33     6     7    2
    34    37    36   ar
    35    37     2    2
    36    36    39    1
    37    10     9    1
    38     7     2    1
    39     7     8    1
    40    39    40    1
    41     9     8    2
    42     9    11    1
    43    40    41    1
    44     8    12    1
    45    41    42   ar
    46    41    43   ar
    47    12    13    1
    48    13    14    1
    49    14    16   ar
    50    14    15   ar
