@<TRIPOS>MOLECULE
2a1n_CAM_A_1.pdb
 11 12 0 0 0
SMALL
GASTEIGER

@<TRIPOS>ATOM
      1  C1        56.4270   -2.2860   49.7790 C.3   1422  CAM1422     0.0515
      2  C2        57.5260   -2.1580   50.8950 C.2   1422  CAM1422     0.1498
      3  O         57.9710   -3.0860   51.5750 O.2   1422  CAM1422    -0.2961
      4  C3        57.9460   -0.6930   50.9910 C.3   1422  CAM1422     0.0645
      5  C4        56.9530   -0.2120   49.8220 C.3   1422  CAM1422     0.0077
      6  C5        57.5990   -0.6800   48.4090 C.3   1422  CAM1422     0.0009
      7  C6        57.2150   -2.2270   48.3800 C.3   1422  CAM1422     0.0069
      8  C7        55.6490   -0.9740   49.9240 C.3   1422  CAM1422     0.0066
      9  C8        54.8170   -0.7790   51.2830 C.3   1422  CAM1422     0.0004
     10  C9        54.6510   -0.5640   48.7760 C.3   1422  CAM1422     0.0004
     11  C10       55.5340   -3.5420   49.8610 C.3   1422  CAM1422     0.0073
@<TRIPOS>BOND
     1     7     6    1
     2     7     1    1
     3     6     5    1
     4    10     8    1
     5     1    11    1
     6     1     8    1
     7     1     2    1
     8     5     8    1
     9     5     4    1
    10     8     9    1
    11     2     4    1
    12     2     3    2
