@<TRIPOS>MOLECULE
2a1o_CAM_A_1.pdb
 11 12 0 0 0
SMALL
GASTEIGER

@<TRIPOS>ATOM
      1  C1        56.5420   -2.2500   49.7530 C.3   1422  CAM1422     0.0515
      2  C2        57.6310   -2.1130   50.8710 C.2   1422  CAM1422     0.1498
      3  O         58.1020   -3.0380   51.5310 O.2   1422  CAM1422    -0.2961
      4  C3        58.0000   -0.6360   50.9990 C.3   1422  CAM1422     0.0645
      5  C4        56.9940   -0.1630   49.8400 C.3   1422  CAM1422     0.0077
      6  C5        57.6540   -0.5700   48.4160 C.3   1422  CAM1422     0.0009
      7  C6        57.3250   -2.1310   48.3580 C.3   1422  CAM1422     0.0069
      8  C7        55.7220   -0.9740   49.9310 C.3   1422  CAM1422     0.0066
      9  C8        54.8920   -0.8370   51.2990 C.3   1422  CAM1422     0.0004
     10  C9        54.7030   -0.5890   48.7900 C.3   1422  CAM1422     0.0004
     11  C10       55.6880   -3.5410   49.8090 C.3   1422  CAM1422     0.0073
@<TRIPOS>BOND
     1     7     6    1
     2     7     1    1
     3     6     5    1
     4    10     8    1
     5     1    11    1
     6     1     8    1
     7     1     2    1
     8     5     8    1
     9     5     4    1
    10     8     9    1
    11     2     4    1
    12     2     3    2
