@<TRIPOS>MOLECULE
2a1o_HEM_A_1.pdb
 43 50 0 0 0
SMALL
GASTEIGER

@<TRIPOS>ATOM
      1 FE         56.6150    2.7260   45.8680 Fe    417  HEM417      0.0000
      2  CHA       58.0890    3.3670   48.9360 C.2   417  HEM417      0.0000
      3  CHB       53.5260    3.2250   47.2470 C.2   417  HEM417      0.0000
      4  CHC       55.1670    2.0060   42.8220 C.2   417  HEM417      0.0000
      5  CHD       59.6900    1.8710   44.6080 C.2   417  HEM417      0.0000
      6  NA        55.9430    3.1700   47.7090 N.2   417  HEM417      0.0000
      7  C1A       56.6850    3.4330   48.8690 C.2   417  HEM417      0.0000
      8  C2A       55.8200    3.8050   49.9890 C.2   417  HEM417      0.0000
      9  C3A       54.5420    3.7330   49.5080 C.2   417  HEM417      0.0000
     10  C4A       54.6150    3.3620   48.1120 C.2   417  HEM417      0.0000
     11  CMA       53.2830    3.9820   50.3440 C.3   417  HEM417      0.0000
     12  CAA       56.2460    4.2040   51.4150 C.3   417  HEM417      0.0000
     13  CBA       56.3620    3.0050   52.3630 C.3   417  HEM417      0.0000
     14  CGA       56.7870    3.3970   53.7760 C.2   417  HEM417      0.0000
     15  O1A       57.0770    2.4880   54.5830 O.co2 417  HEM417      0.0000
     16  O2A       56.8290    4.6080   54.0880 O.co2 417  HEM417      0.0000
     17  NB        54.7470    2.6240   45.1700 N.ar  417  HEM417      0.0000
     18  C1B       53.5860    2.8900   45.8860 C.ar  417  HEM417      0.0000
     19  C2B       52.4250    2.8670   45.0180 C.ar  417  HEM417      0.0000
     20  C3B       52.8730    2.5550   43.7560 C.ar  417  HEM417      0.0000
     21  C4B       54.3090    2.3760   43.8710 C.ar  417  HEM417      0.0000
     22  CMB       51.0010    3.1940   45.4740 C.3   417  HEM417      0.0000
     23  CAB       52.1460    2.3390   42.5710 C.2   417  HEM417      0.0000
     24  CBB       50.9110    2.7940   42.2420 C.2   417  HEM417      0.0000
     25  NC        57.2840    2.0580   44.1100 N.2   417  HEM417      0.0000
     26  C1C       56.5540    1.8630   42.9330 C.2   417  HEM417      0.0000
     27  C2C       57.4200    1.4230   41.8520 C.2   417  HEM417      0.0000
     28  C3C       58.6650    1.3020   42.3570 C.2   417  HEM417      0.0000
     29  C4C       58.5920    1.7170   43.7500 C.2   417  HEM417      0.0000
     30  CMC       57.0070    1.1650   40.4010 C.3   417  HEM417      0.0000
     31  CAC       59.7850    0.9250   41.5960 C.2   417  HEM417      0.0000
     32  CBC       60.6690   -0.0350   41.9780 C.2   417  HEM417      0.0000
     33  ND        58.4740    2.6510   46.6110 N.ar  417  HEM417      0.0000
     34  C1D       59.6390    2.3000   45.9240 C.ar  417  HEM417      0.0000
     35  C2D       60.8130    2.4310   46.7660 C.ar  417  HEM417      0.0000
     36  C3D       60.3720    2.8590   47.9720 C.ar  417  HEM417      0.0000
     37  C4D       58.9250    3.0040   47.8700 C.ar  417  HEM417      0.0000
     38  CMD       62.2440    2.0530   46.3470 C.3   417  HEM417      0.0000
     39  CAD       61.1540    3.0150   49.2680 C.3   417  HEM417      0.0000
     40  CBD       61.5470    4.4630   49.5720 C.3   417  HEM417      0.0000
     41  CGD       62.1430    4.6360   50.9560 C.2   417  HEM417      0.0000
     42  O1D       62.7780    5.6890   51.1990 O.co2 417  HEM417      0.0000
     43  O2D       61.9670    3.7340   51.8140 O.co2 417  HEM417      0.0000
@<TRIPOS>BOND
     1    30    27    1
     2    31    32    2
     3    31    28    1
     4    27    28    2
     5    27    26    1
     6    24    23    2
     7    28    29    1
     8    23    20    1
     9     4    26    2
    10     4    21    1
    11    26    25    1
    12    29    25    2
    13    29     5    1
    14    20    21   ar
    15    20    19   ar
    16    21    17   ar
    17    25     1    1
    18     5    34    2
    19    19    22    1
    20    19    18   ar
    21    17     1    1
    22    17    18   ar
    23     1    33    1
    24     1     6    1
    25    18     3    1
    26    34    33   ar
    27    34    35   ar
    28    38    35    1
    29    33    37   ar
    30    35    36   ar
    31     3    10    2
    32     6    10    1
    33     6     7    2
    34    37    36   ar
    35    37     2    2
    36    36    39    1
    37    10     9    1
    38     7     2    1
    39     7     8    1
    40    39    40    1
    41     9     8    2
    42     9    11    1
    43    40    41    1
    44     8    12    1
    45    41    42   ar
    46    41    43   ar
    47    12    13    1
    48    13    14    1
    49    14    16   ar
    50    14    15   ar
