@<TRIPOS>MOLECULE
2a1t_AMP_S_1.pdb
 23 25 0 0 0
SMALL
GASTEIGER

@<TRIPOS>ATOM
      1  P         -5.5970   58.4330   -1.9880 P.3   600  AMP600      0.5327
      2  O1P       -6.1860   58.7100   -3.3520 O.2   600  AMP600     -0.2224
      3  O2P       -6.4870   57.6860   -1.0240 O.3   600  AMP600     -0.1145
      4  O3P       -4.1630   57.9650   -2.0800 O.3   600  AMP600     -0.1145
      5  O5'       -5.5560   59.8460   -1.2300 O.3   600  AMP600     -0.2675
      6  C5'       -4.5830   60.8160   -1.5820 C.3   600  AMP600      0.1860
      7  C4'       -5.0830   62.1380   -1.0660 C.3   600  AMP600      0.1823
      8  O4'       -6.5120   62.1710   -1.1160 O.3   600  AMP600     -0.3135
      9  C3'       -4.6760   62.3820    0.3870 C.3   600  AMP600      0.2184
     10  O3'       -3.3510   62.9230    0.5420 O.3   600  AMP600     -0.2174
     11  C2'       -5.7560   63.3370    0.8460 C.3   600  AMP600      0.2570
     12  O2'       -5.3830   64.6930    0.5970 O.3   600  AMP600     -0.2130
     13  C1'       -6.9650   62.9170    0.0110 C.3   600  AMP600      0.3186
     14  N9        -7.7890   62.0000    0.8150 N.pl3 600  AMP600     -0.1439
     15  C8        -7.8480   60.6560    0.7120 C.3   600  AMP600      0.3377
     16  N7        -8.7190   60.1580    1.6230 N.2   600  AMP600     -0.2095
     17  C5        -9.2190   61.1800    2.3240 C.2   600  AMP600      0.2526
     18  C6       -10.1740   61.3270    3.4260 C.2   600  AMP600      0.4393
     19  N6       -10.8020   60.2720    4.0000 N.pl3 600  AMP600      0.2180
     20  N1       -10.3930   62.5750    3.8420 N.2   600  AMP600      0.0021
     21  C2        -9.7920   63.6530    3.2920 C.3   600  AMP600      0.5254
     22  N3        -8.9130   63.5820    2.2810 N.2   600  AMP600     -0.0055
     23  C4        -8.6000   62.3870    1.7830 C.2   600  AMP600      0.3518
@<TRIPOS>BOND
     1     2     1    2
     2     4     1    1
     3     1     5    1
     4     1     3    1
     5     6     5    1
     6     6     7    1
     7     8     7    1
     8     8    13    1
     9     7     9    1
    10    13    14    1
    11    13    11    1
    12     9    10    1
    13     9    11    1
    14    12    11    1
    15    15    14    1
    16    15    16    1
    17    14    23    1
    18    16    17    2
    19    23    22    2
    20    23    17    1
    21    22    21    1
    22    17    18    1
    23    21    20    1
    24    18    20    2
    25    18    19    1
