@<TRIPOS>MOLECULE
2a1u_AMP_B_1.pdb
 23 25 0 0 0
SMALL
GASTEIGER

@<TRIPOS>ATOM
      1  P          6.2850   28.3190   19.1490 P.3   600  AMP600      0.5327
      2  O1P        6.2550   27.0620   18.2720 O.2   600  AMP600     -0.2224
      3  O2P        5.0200   29.1590   19.2580 O.3   600  AMP600     -0.1145
      4  O3P        6.8840   28.0340   20.5010 O.3   600  AMP600     -0.1145
      5  O5'        7.3120   29.2960   18.3920 O.3   600  AMP600     -0.2675
      6  C5'        8.6540   28.8280   18.1460 C.3   600  AMP600      0.1860
      7  C4'        9.3890   29.7000   17.1400 C.3   600  AMP600      0.1823
      8  O4'        8.6080   29.7910   15.9540 O.3   600  AMP600     -0.3135
      9  C3'        9.5780   31.1550   17.5710 C.3   600  AMP600      0.2184
     10  O3'       10.7980   31.4030   18.2810 O.3   600  AMP600     -0.2174
     11  C2'        9.5640   31.8930   16.2470 C.3   600  AMP600      0.2570
     12  O2'       10.8780   31.8780   15.6650 O.3   600  AMP600     -0.2130
     13  C1'        8.6130   31.0870   15.3860 C.3   600  AMP600      0.3186
     14  N9         7.2950   31.7400   15.5040 N.pl3 600  AMP600     -0.1439
     15  C8         6.2600   31.4120   16.3090 C.3   600  AMP600      0.3377
     16  N7         5.2060   32.2560   16.1660 N.2   600  AMP600     -0.2095
     17  C5         5.5770   33.1810   15.2420 C.2   600  AMP600      0.2526
     18  C6         4.9790   34.3660   14.5870 C.2   600  AMP600      0.4393
     19  N6         3.7390   34.7980   14.8680 N.pl3 600  AMP600      0.2180
     20  N1         5.7080   35.0240   13.6650 N.2   600  AMP600      0.0021
     21  C2         6.9620   34.6420   13.3340 C.3   600  AMP600      0.5254
     22  N3         7.5660   33.5790   13.8860 N.2   600  AMP600     -0.0055
     23  C4         6.9390   32.8260   14.8120 C.2   600  AMP600      0.3518
@<TRIPOS>BOND
     1    21    20    1
     2    21    22    1
     3    20    18    2
     4    22    23    2
     5    18    19    1
     6    18    17    1
     7    23    17    1
     8    23    14    1
     9    17    16    2
    10    13    14    1
    11    13     8    1
    12    13    11    1
    13    14    15    1
    14    12    11    1
    15     8     7    1
    16    16    15    1
    17    11     9    1
    18     7     9    1
    19     7     6    1
    20     9    10    1
    21     6     5    1
    22     2     1    2
    23     5     1    1
    24     1     3    1
    25     1     4    1
