@<TRIPOS>MOLECULE
2a1x_AKG_A_1.pdb
 10 9 0 0 0
SMALL
GASTEIGER

@<TRIPOS>ATOM
      1  C1        15.0210   23.1200   35.1000 C.2   451  AKG451      0.4219
      2  O1        15.3590   23.5710   36.2380 O.co2 451  AKG451     -0.2373
      3  O2        15.8520   23.0130   34.1780 O.co2 451  AKG451     -0.2373
      4  C2        13.6450   22.6740   34.7940 C.2   451  AKG451      0.2526
      5  O5        13.3470   22.3100   33.6510 O.2   451  AKG451     -0.2843
      6  C3        12.5870   22.6370   35.8830 C.3   451  AKG451      0.0881
      7  C4        12.0990   21.1980   36.0440 C.3   451  AKG451      0.1224
      8  C5        10.7220   21.1090   36.6830 C.2   451  AKG451      0.3653
      9  O3         9.9380   22.0900   36.6590 O.co2 451  AKG451     -0.2456
     10  O4        10.3960   20.0330   37.2280 O.co2 451  AKG451     -0.2456
@<TRIPOS>BOND
     1     5     4    2
     2     3     1   ar
     3     4     1    1
     4     4     6    1
     5     1     2   ar
     6     6     7    1
     7     7     8    1
     8     9     8   ar
     9     8    10   ar
