@<TRIPOS>MOLECULE
2a1y_5GP_A_1.pdb
 24 26 0 0 0
SMALL
GASTEIGER

@<TRIPOS>ATOM
      1  P        -37.8600  -28.2800    5.8270 P.3   1344  5GP1344     0.5327
      2  O1P      -36.3930  -28.4370    5.6130 O.3   1344  5GP1344    -0.1145
      3  O2P      -38.1780  -28.2870    7.3320 O.3   1344  5GP1344    -0.1145
      4  O3P      -38.6290  -29.3590    5.1480 O.2   1344  5GP1344    -0.2224
      5  O5'      -38.3610  -26.9030    5.2190 O.3   1344  5GP1344    -0.2675
      6  C5'      -37.7490  -25.6050    5.3100 C.3   1344  5GP1344     0.1859
      7  C4'      -38.7880  -24.4620    5.4920 C.3   1344  5GP1344     0.1801
      8  O4'      -40.1270  -24.7220    5.0180 O.3   1344  5GP1344    -0.3326
      9  C3'      -38.5270  -23.0530    4.9720 C.3   1344  5GP1344     0.2158
     10  O3'      -37.4220  -22.9800    4.1410 O.3   1344  5GP1344    -0.2175
     11  C2'      -39.8100  -22.6250    4.2280 C.3   1344  5GP1344     0.2310
     12  O2'      -39.7800  -22.7790    2.7900 O.3   1344  5GP1344    -0.2158
     13  C1'      -40.8950  -23.5630    4.7070 C.3   1344  5GP1344     0.2293
     14  N9       -41.6530  -23.0180    5.8490 N.pl3 1344  5GP1344    -0.2354
     15  C8       -41.2180  -22.8050    7.0950 C.3   1344  5GP1344     0.2246
     16  N7       -42.2290  -22.2880    7.8390 N.2   1344  5GP1344    -0.2322
     17  C5       -43.3090  -22.1720    7.0380 C.2   1344  5GP1344     0.2182
     18  C6       -44.6150  -21.7180    7.2460 C.1   1344  5GP1344     0.2372
     19  O6       -44.9560  -21.2930    8.3740 O.2   1344  5GP1344    -0.2069
     20  N1       -45.4860  -21.7420    6.2200 N.2   1344  5GP1344    -0.2485
     21  C2       -45.1050  -22.1770    4.9900 C.1   1344  5GP1344     0.2531
     22  N2       -45.9750  -22.1800    3.9470 N.pl3 1344  5GP1344    -0.0226
     23  N3       -43.8430  -22.6330    4.7700 N.2   1344  5GP1344    -0.3074
     24  C4       -42.9320  -22.6340    5.7840 C.2   1344  5GP1344     0.2300
@<TRIPOS>BOND
     1    12    11    1
     2    22    21    1
     3    10     9    1
     4    11    13    1
     5    11     9    1
     6    13     8    1
     7    13    14    1
     8    23    21    2
     9    23    24    2
    10     9     7    1
    11    21    20    2
    12     8     7    1
    13     4     1    2
    14     5     6    1
    15     5     1    1
    16     6     7    1
    17     2     1    1
    18    24    14    1
    19    24    17    1
    20     1     3    1
    21    14    15    1
    22    20    18    2
    23    17    18    1
    24    17    16    2
    25    15    16    1
    26    18    19    2
