@<TRIPOS>MOLECULE
2a21_PEP_A_1.pdb
 10 9 0 0 0
SMALL
GASTEIGER

@<TRIPOS>ATOM
      1  C1        32.5410   51.6140   22.5220 C.2   1268  PEP1268     0.4216
      2  O1        33.3080   52.1040   23.3940 O.co2 1268  PEP1268    -0.2371
      3  O2'       31.2860   51.6780   22.6970 O.co2 1268  PEP1268    -0.2371
      4  C2        33.1160   50.9470   21.3020 C.2   1268  PEP1268     0.2283
      5  C3        34.4160   50.7830   21.0770 C.2   1268  PEP1268     0.0477
      6  O2        32.1170   50.5040   20.4480 O.2   1268  PEP1268    -0.3930
      7  P         32.1950   49.4870   19.2050 P.3   1268  PEP1268     0.5889
      8  O1P       32.8290   48.1960   19.7300 O.3   1268  PEP1268    -0.1039
      9  O2P       32.9830   50.2090   18.1250 O.2   1268  PEP1268    -0.2114
     10  O3P       30.7250   49.3030   18.8110 O.3   1268  PEP1268    -0.1039
@<TRIPOS>BOND
     1     9     7    2
     2    10     7    1
     3     7     8    1
     4     7     6    1
     5     6     4    1
     6     5     4    2
     7     4     1    1
     8     1     3   ar
     9     1     2   ar
