@<TRIPOS>MOLECULE
2a29_ANP_A_1.pdb
 44 46 0 0 0
SMALL
GASTEIGER

@<TRIPOS>ATOM
      1  PG       116.3370   -0.2220   -9.9420 P.3   1001  ANP1001     0.4710
      2  O1G      115.6550   -1.5310  -10.2470 O.3   1001  ANP1001    -0.1250
      3  O2G      117.4230    0.0700  -10.9460 O.2   1001  ANP1001    -0.2347
      4  O3G      116.8790   -0.2050   -8.5360 O.3   1001  ANP1001    -0.1250
      5  PB       115.4260    2.1870   -9.0350 P.3   1001  ANP1001     0.4495
      6  O1B      115.7610    1.6300   -7.6800 O.3   1001  ANP1001    -0.1263
      7  O2B      116.5190    3.0670   -9.5700 O.2   1001  ANP1001    -0.2367
      8  N3B      115.2340    0.9470  -10.0550 N.3   1001  ANP1001    -0.1200
      9  PA       113.7340    4.4110   -8.5360 P.3   1001  ANP1001     0.2213
     10  O1A      114.9620    4.8990   -7.8650 O.3   1001  ANP1001    -0.4371
     11  O2A      113.2250    5.2460   -9.6500 O.2   1001  ANP1001    -0.5170
     12  O3A      113.9820    2.9030   -9.0700 O.3   1001  ANP1001    -0.2370
     13  O5'      112.5630    4.2190   -7.4350 O.3   1001  ANP1001    -0.3245
     14  C5'      112.4810    3.0640   -6.5690 C.3   1001  ANP1001     0.0836
     15  C4'      111.8170    3.4490   -5.2550 C.3   1001  ANP1001     0.1131
     16  O4'      110.3880    3.2260   -5.3930 O.3   1001  ANP1001    -0.3474
     17  C3'      112.3360    2.4100   -4.2800 C.3   1001  ANP1001     0.1133
     18  O3'      113.5560    2.8130   -3.6720 O.3   1001  ANP1001    -0.3864
     19  C2'      111.2200    2.3460   -3.2720 C.3   1001  ANP1001     0.1266
     20  O2'      111.3940    3.3050   -2.2370 O.3   1001  ANP1001    -0.3849
     21  C1'      109.9820    2.6670   -4.1090 C.3   1001  ANP1001     0.1617
     22  N9       109.2100    1.4100   -4.4050 N.pl3 1001  ANP1001    -0.2234
     23  C8       109.7340    0.1780   -4.4510 C.2   1001  ANP1001     0.1451
     24  N7       108.7870   -0.7230   -4.7280 N.2   1001  ANP1001    -0.3871
     25  C5       107.6430   -0.0700   -4.8650 C.2   1001  ANP1001     0.2211
     26  C6       106.2920   -0.4270   -5.1400 C.2   1001  ANP1001     0.2227
     27  N6       105.9550   -1.6990   -5.3200 N.pl3 1001  ANP1001    -0.3300
     28  N1       105.3250    0.5500   -5.2080 N.2   1001  ANP1001    -0.3296
     29  C2       105.5970    1.8790   -5.0190 C.1   1001  ANP1001     0.0930
     30  N3       106.8860    2.2370   -4.7600 N.2   1001  ANP1001    -0.3287
     31  C4       107.9090    1.3070   -4.6650 C.2   1001  ANP1001     0.2354
     32 HNB1      114.3760    0.5100   -9.7560 H     1001  ANP1001     0.1458
     33 H5'1      113.4110    2.7280   -6.4200 H     1001  ANP1001     0.0591
     34 H5'2      111.9610    2.3500   -7.0650 H     1001  ANP1001     0.0591
     35  H4'      112.0390    4.4020   -4.9830 H     1001  ANP1001     0.0647
     36  H3'      112.5180    1.5200   -4.7300 H     1001  ANP1001     0.0647
     37 HO3'      113.8050    2.1650   -2.9380 H     1001  ANP1001     0.2100
     38  H2'      111.1660    1.4440   -2.8150 H     1001  ANP1001     0.0663
     39 HO2'      112.1200    3.0010   -1.6040 H     1001  ANP1001     0.2101
     40  H1'      109.3440    3.3030   -3.6010 H     1001  ANP1001     0.0841
     41  H8       110.6970   -0.0370   -4.2990 H     1001  ANP1001     0.1149
     42 HN61      105.0010   -1.9400   -5.5030 H     1001  ANP1001     0.1448
     43 HN62      106.6560   -2.4100   -5.2680 H     1001  ANP1001     0.1448
     44  H2       104.8730    2.5650   -5.0640 H     1001  ANP1001     0.1751
@<TRIPOS>BOND
     1     3     1    2
     2     2     1    1
     3     8     1    1
     4     8    32    1
     5     8     5    1
     6     1     4    1
     7    11     9    2
     8     7     5    2
     9    12     5    1
    10    12     9    1
    11     5     6    1
    12     9    10    1
    13     9    13    1
    14    13    14    1
    15    34    14    1
    16    14    33    1
    17    14    15    1
    18    42    27    1
    19    16    15    1
    20    16    21    1
    21    27    43    1
    22    27    26    1
    23    15    35    1
    24    15    17    1
    25    28    26    2
    26    28    29    2
    27    26    25    1
    28    44    29    1
    29    29    30    2
    30    25    24    2
    31    25    31    1
    32    30    31    2
    33    36    17    1
    34    24    23    2
    35    31    22    1
    36    23    22    1
    37    23    41    1
    38    22    21    1
    39    17    18    1
    40    17    19    1
    41    21    40    1
    42    21    19    1
    43    18    37    1
    44    19    38    1
    45    19    20    1
    46    20    39    1
