@<TRIPOS>MOLECULE
2a2c_NG1_A_1.pdb
 19 19 0 0 0
SMALL
GASTEIGER

@<TRIPOS>ATOM
      1  P1        42.3010   24.7500    0.6110 P.3   459  NG1459      0.5345
      2  OP1       43.0160   24.6210    2.0590 O.3   459  NG1459     -0.1145
      3  OP2       43.1120   23.9400   -0.4780 O.2   459  NG1459     -0.2223
      4  OP3       42.2560   26.1500    0.0220 O.3   459  NG1459     -0.1145
      5  C1        39.9560   24.0460    1.6730 C.3   459  NG1459      0.2675
      6  C2        39.4810   22.5940    2.0800 C.3   459  NG1459      0.1846
      7  C3        38.6290   21.8490    1.0110 C.3   459  NG1459      0.2094
      8  C4        37.5480   22.8030    0.4310 C.3   459  NG1459      0.2136
      9  C5        38.2390   24.1450    0.0070 C.3   459  NG1459      0.1834
     10  C6        37.2090   25.1550   -0.5100 C.3   459  NG1459      0.2142
     11  C7        40.7150   21.2000    3.6370 C.2   459  NG1459      0.2420
     12  C8        41.8200   20.1800    3.9040 C.3   459  NG1459      0.0964
     13  N2        40.6210   21.7780    2.4190 N.am  459  NG1459     -0.1992
     14  O1        40.8220   24.0490    0.6420 O.3   459  NG1459     -0.2425
     15  O3        38.0150   20.6660    1.5250 O.3   459  NG1459     -0.2183
     16  O4        36.4660   22.9850    1.3710 O.3   459  NG1459     -0.2176
     17  O5        38.8060   24.7450    1.1870 O.3   459  NG1459     -0.3259
     18  O6        36.4560   24.5850   -1.6030 O.3   459  NG1459     -0.2176
     19  O7        39.9300   21.4940    4.5530 O.2   459  NG1459     -0.2733
@<TRIPOS>BOND
     1    18    10    1
     2    10     9    1
     3     3     1    2
     4     9     8    1
     5     9    17    1
     6     4     1    1
     7     8     7    1
     8     8    16    1
     9     1    14    1
    10     1     2    1
    11    14     5    1
    12     7    15    1
    13     7     6    1
    14    17     5    1
    15     5     6    1
    16     6    13    1
    17    13    11   am
    18    11    12    1
    19    11    19    2
