@<TRIPOS>MOLECULE
2a2c_ADP_A_1.pdb
 27 29 0 0 0
SMALL
GASTEIGER

@<TRIPOS>ATOM
      1  PB        46.8520   25.7030    1.5930 P.3   463  ADP463      0.5373
      2  O1B       46.4060   24.2660    1.8060 O.3   463  ADP463     -0.1143
      3  O2B       48.1020   25.7940    0.7920 O.2   463  ADP463     -0.2221
      4  O3B       45.7390   26.6720    0.9800 O.3   463  ADP463     -0.1143
      5  PA        46.9370   25.9450    4.4700 P.3   463  ADP463      0.2231
      6  O1A       46.7290   27.2130    5.2550 O.3   463  ADP463     -0.4370
      7  O2A       45.7770   24.9900    4.5810 O.2   463  ADP463     -0.5169
      8  O3A       47.2720   26.3190    2.9750 O.3   463  ADP463     -0.2261
      9  O5'       48.2080   25.2000    5.0630 O.3   463  ADP463     -0.3111
     10  C5'       49.4580   25.9010    5.0580 C.3   463  ADP463      0.1813
     11  C4'       50.3770   25.1960    6.0620 C.3   463  ADP463      0.1821
     12  O4'       50.8530   23.8990    5.5300 O.3   463  ADP463     -0.3135
     13  C3'       51.6650   25.9820    6.2790 C.3   463  ADP463      0.2184
     14  O3'       51.4100   27.0490    7.1930 O.3   463  ADP463     -0.2174
     15  C2'       52.6570   24.8910    6.7390 C.3   463  ADP463      0.2570
     16  O2'       52.4750   24.6520    8.1400 O.3   463  ADP463     -0.2130
     17  C1'       52.2070   23.6820    5.9290 C.3   463  ADP463      0.3186
     18  N9        53.0470   23.5870    4.7560 N.pl3 463  ADP463     -0.1439
     19  C8        52.7130   23.8450    3.4640 C.3   463  ADP463      0.3377
     20  N7        53.7430   23.7010    2.6280 N.2   463  ADP463     -0.2095
     21  C5        54.7970   23.2970    3.4390 C.2   463  ADP463      0.2526
     22  C6        56.1490   22.9840    3.0930 C.2   463  ADP463      0.4393
     23  N6        56.6660   23.0040    1.9450 N.pl3 463  ADP463      0.2180
     24  N1        56.8410   22.6030    4.2060 N.2   463  ADP463      0.0021
     25  C2        56.3200   22.5500    5.4680 C.3   463  ADP463      0.5254
     26  N3        55.0880   22.8520    5.8000 N.2   463  ADP463     -0.0055
     27  C4        54.3710   23.2200    4.7460 C.2   463  ADP463      0.3518
@<TRIPOS>BOND
     1     3     1    2
     2     4     1    1
     3     1     2    1
     4     1     8    1
     5    23    22    1
     6    20    21    2
     7    20    19    1
     8     8     5    1
     9    22    21    1
    10    22    24    2
    11    21    27    1
    12    19    18    1
    13    24    25    1
    14     5     7    2
    15     5     9    1
    16     5     6    1
    17    27    18    1
    18    27    26    2
    19    18    17    1
    20    10     9    1
    21    10    11    1
    22    25    26    1
    23    12    17    1
    24    12    11    1
    25    17    15    1
    26    11    13    1
    27    13    15    1
    28    13    14    1
    29    15    16    1
