@<TRIPOS>MOLECULE
2a2d_A2G_A_1.pdb
 15 15 0 0 0
SMALL
GASTEIGER

@<TRIPOS>ATOM
      1  C1        19.6370   79.7840   -1.8930 C.3   459  A2G459      0.2917
      2  C2        21.1460   79.4240   -2.0420 C.3   459  A2G459      0.1871
      3  C3        22.0810   79.7950   -0.9310 C.3   459  A2G459      0.2095
      4  C4        21.7150   81.1510   -0.2900 C.3   459  A2G459      0.2136
      5  C5        20.2270   81.2060   -0.0490 C.3   459  A2G459      0.1835
      6  C6        19.8880   82.5640    0.5290 C.3   459  A2G459      0.2142
      7  C7        21.4420   77.6670   -3.7250 C.2   459  A2G459      0.2421
      8  C8        21.5090   76.2030   -4.0960 C.3   459  A2G459      0.0964
      9  O         19.2970   80.9300   -1.1170 O.3   459  A2G459     -0.3242
     10  O1        18.9140   78.7230   -1.5370 O.3   459  A2G459     -0.1879
     11  O3        23.3350   79.7970   -1.5730 O.3   459  A2G459     -0.2183
     12  O4        22.0840   82.2550   -1.0990 O.3   459  A2G459     -0.2176
     13  O6        20.6990   82.8290    1.6820 O.3   459  A2G459     -0.2176
     14  O7        21.5400   78.5060   -4.6400 O.2   459  A2G459     -0.2733
     15  N2        21.3620   78.0360   -2.4150 N.am  459  A2G459     -0.1991
@<TRIPOS>BOND
     1    14     7    2
     2     8     7    1
     3     7    15   am
     4    15     2    1
     5     2     1    1
     6     2     3    1
     7     1    10    1
     8     1     9    1
     9    11     3    1
    10     9     5    1
    11    12     4    1
    12     3     4    1
    13     4     5    1
    14     5     6    1
    15     6    13    1
