@<TRIPOS>MOLECULE
2a2d_ANP_A_1.pdb
 31 33 0 0 0
SMALL
GASTEIGER

@<TRIPOS>ATOM
      1  PG        16.2610   77.1950   -1.0610 P.3   461  ANP461      0.4884
      2  O1G       17.1000   77.2140   -2.2950 O.2   461  ANP461     -0.2331
      3  O2G       15.7900   78.5950   -0.7160 O.3   461  ANP461     -0.1240
      4  O3G       17.2200   76.8330    0.1660 O.3   461  ANP461     -0.1240
      5  PB        14.5740   74.7460   -2.0300 P.3   461  ANP461      0.4669
      6  O1B       15.8770   74.0580   -2.2880 O.2   461  ANP461     -0.2351
      7  O2B       13.6820   73.8720   -1.1840 O.3   461  ANP461     -0.1253
      8  N3B       14.9480   76.1750   -1.2690 N.3   461  ANP461     -0.0163
      9  PA        14.5730   74.7920   -4.8810 P.3   461  ANP461      0.2220
     10  O1A       13.9540   75.7960   -5.7200 O.2   461  ANP461     -0.5170
     11  O2A       16.0400   75.1020   -4.7480 O.3   461  ANP461     -0.4370
     12  O3A       13.8640   74.8340   -3.4400 O.3   461  ANP461     -0.2360
     13  O5'       14.4140   73.4330   -5.6450 O.3   461  ANP461     -0.3111
     14  C5'       13.1770   72.7530   -5.5230 C.3   461  ANP461      0.1813
     15  C4'       13.2740   71.5850   -6.4890 C.3   461  ANP461      0.1821
     16  O4'       14.1260   70.4860   -6.0270 O.3   461  ANP461     -0.3135
     17  C3'       11.9500   70.9740   -6.8320 C.3   461  ANP461      0.2184
     18  O3'       11.3420   71.8350   -7.8060 O.3   461  ANP461     -0.2174
     19  C2'       12.4050   69.6090   -7.3350 C.3   461  ANP461      0.2570
     20  O2'       12.7180   69.7000   -8.7180 O.3   461  ANP461     -0.2130
     21  C1'       13.6660   69.2910   -6.5440 C.3   461  ANP461      0.3186
     22  N9        13.3630   68.3710   -5.4580 N.pl3 461  ANP461     -0.1439
     23  C8        13.1910   68.6170   -4.1300 C.3   461  ANP461      0.3377
     24  N7        12.8170   67.5390   -3.4340 N.2   461  ANP461     -0.2095
     25  C5        12.7800   66.5360   -4.3810 C.2   461  ANP461      0.2526
     26  C6        12.4820   65.1690   -4.2630 C.2   461  ANP461      0.4393
     27  N6        12.1580   64.4960   -3.2590 N.pl3 461  ANP461      0.2180
     28  N1        12.6040   64.5470   -5.4380 N.2   461  ANP461      0.0021
     29  C2        12.9070   65.1230   -6.6280 C.3   461  ANP461      0.5254
     30  N3        13.2040   66.3750   -6.7730 N.2   461  ANP461     -0.0055
     31  C4        13.1260   67.0320   -5.6190 C.2   461  ANP461      0.3518
@<TRIPOS>BOND
     1    20    19    1
     2    18    17    1
     3    19    17    1
     4    19    21    1
     5    17    15    1
     6    30    29    1
     7    30    31    2
     8    29    28    1
     9    21    16    1
    10    21    22    1
    11    15    16    1
    12    15    14    1
    13    10     9    2
    14    13    14    1
    15    13     9    1
    16    31    22    1
    17    31    25    1
    18    22    23    1
    19    28    26    2
    20     9    11    1
    21     9    12    1
    22    25    26    1
    23    25    24    2
    24    26    27    1
    25    23    24    1
    26    12     5    1
    27     2     1    2
    28     6     5    2
    29     5     8    1
    30     5     7    1
    31     8     1    1
    32     1     3    1
    33     1     4    1
