@<TRIPOS>MOLECULE
2a2g_LEO_A_1.pdb
 11 12 0 0 0
SMALL
GASTEIGER

@<TRIPOS>ATOM
      1  C2        21.3400    1.4530   58.7970 C.3   201  LEO201      0.0360
      2  C3        19.4020    2.4970   57.4160 C.3   201  LEO201      0.1176
      3  C4        19.0920    0.3830   58.8100 C.3   201  LEO201      0.0066
      4  C5        18.5390    1.2760   57.6840 C.3   201  LEO201      0.0300
      5  C6        20.6000    0.1040   58.6340 C.3   201  LEO201      0.0209
      6  C7        20.7750    2.5590   57.9450 C.3   201  LEO201      0.1400
      7  C8        18.6860    3.7800   57.0670 C.3   201  LEO201      0.0321
      8  O14       20.5580    2.2300   56.5260 O.3   201  LEO201     -0.3562
      9  C17       20.9370   -0.6800   57.3570 C.2   201  LEO201     -0.0442
     10  C21       20.0950   -0.7600   56.3450 C.2   201  LEO201     -0.0091
     11  C22       22.2440   -1.4480   57.3280 C.3   201  LEO201      0.0263
@<TRIPOS>BOND
     1    10     9    2
     2     8     2    1
     3     8     6    1
     4     7     2    1
     5    11     9    1
     6     9     5    1
     7     2     4    1
     8     2     6    1
     9     4     3    1
    10     6     1    1
    11     5     1    1
    12     5     3    1
