@<TRIPOS>MOLECULE
2a2i_PEP_A_1.pdb
 10 9 0 0 0
SMALL
GASTEIGER

@<TRIPOS>ATOM
      1  C1        32.4440   51.5810   22.5170 C.2   1268  PEP1268     0.4216
      2  O1        33.1470   51.9960   23.4870 O.co2 1268  PEP1268    -0.2371
      3  O2'       31.1860   51.7550   22.5510 O.co2 1268  PEP1268    -0.2371
      4  C2        33.0860   50.8750   21.3490 C.2   1268  PEP1268     0.2283
      5  C3        34.3810   50.5870   21.3280 C.2   1268  PEP1268     0.0477
      6  O2        32.2030   50.5150   20.3340 O.2   1268  PEP1268    -0.3930
      7  P         32.2090   49.3620   19.1960 P.3   1268  PEP1268     0.5889
      8  O1P       32.9500   48.1040   19.6370 O.3   1268  PEP1268    -0.1039
      9  O2P       32.8360   50.0070   17.9680 O.2   1268  PEP1268    -0.2114
     10  O3P       30.7400   49.0710   18.8600 O.3   1268  PEP1268    -0.1039
@<TRIPOS>BOND
     1     9     7    2
     2    10     7    1
     3     7     8    1
     4     7     6    1
     5     6     4    1
     6     5     4    2
     7     4     1    1
     8     1     3   ar
     9     1     2   ar
