@<TRIPOS>MOLECULE
2a2i_A5P_A_1.pdb
 14 13 0 0 0
SMALL
GASTEIGER

@<TRIPOS>ATOM
      1  C1        35.7250   51.3700   18.4270 C.2   1269  A5P1269     0.2427
      2  O1        35.8330   50.3820   17.7800 O.2   1269  A5P1269    -0.2854
      3  C2        35.0970   52.5860   17.8560 C.3   1269  A5P1269     0.2486
      4  O2        33.6670   52.5990   17.9650 O.3   1269  A5P1269    -0.2118
      5  C3        35.7750   53.7260   18.5940 C.3   1269  A5P1269     0.2224
      6  O3        34.9350   54.2460   19.6480 O.3   1269  A5P1269    -0.2171
      7  C4        36.2640   54.8150   17.6310 C.3   1269  A5P1269     0.2151
      8  O4        35.2320   55.5720   17.0320 O.3   1269  A5P1269    -0.2176
      9  C5        37.2070   54.3230   16.5370 C.3   1269  A5P1269     0.1892
     10  O5        38.5140   54.8350   16.6030 O.3   1269  A5P1269    -0.2674
     11  P         39.2130   55.6930   15.6360 P.3   1269  A5P1269     0.5327
     12  O1P       40.6150   55.5240   16.0310 O.3   1269  A5P1269    -0.1145
     13  O2P       39.1010   55.1120   14.2920 O.2   1269  A5P1269    -0.2224
     14  O3P       38.8640   57.1320   15.7400 O.3   1269  A5P1269    -0.1145
@<TRIPOS>BOND
     1    13    11    2
     2    11    14    1
     3    11    12    1
     4    11    10    1
     5     9    10    1
     6     9     7    1
     7     8     7    1
     8     7     5    1
     9     2     1    2
    10     3     4    1
    11     3     1    1
    12     3     5    1
    13     5     6    1
