@<TRIPOS>MOLECULE
2a2q_GLC_L_1.pdb
 11 11 0 0 0
SMALL
GASTEIGER

@<TRIPOS>ATOM
      1  C1        37.3290   34.2740   63.6750 C.3   201  GLC201      0.1777
      2  C2        37.6310   32.7800   63.4160 C.3   201  GLC201      0.2141
      3  C3        38.6270   32.7350   62.2170 C.3   201  GLC201      0.2173
      4  C4        38.0600   33.3260   61.0720 C.3   201  GLC201      0.2142
      5  C5        37.6120   34.7880   61.3620 C.3   201  GLC201      0.1810
      6  C6        36.8210   35.4210   60.1920 C.3   201  GLC201      0.2141
      7  O2        38.2160   32.1680   64.5760 O.3   201  GLC201     -0.2176
      8  O3        39.0060   31.3910   61.9130 O.3   201  GLC201     -0.2175
      9  O4        38.9560   33.2960   59.9100 O.3   201  GLC201     -0.2176
     10  O5        36.7720   34.8190   62.5050 O.3   201  GLC201     -0.3481
     11  O6        35.8020   36.3910   60.5680 O.3   201  GLC201     -0.2176
@<TRIPOS>BOND
     1     9     4    1
     2     6    11    1
     3     6     5    1
     4     4     5    1
     5     4     3    1
     6     5    10    1
     7     8     3    1
     8     3     2    1
     9    10     1    1
    10     2     1    1
    11     2     7    1
