@<TRIPOS>MOLECULE
2a2q_FUC_L_1.pdb
 10 10 0 0 0
SMALL
GASTEIGER

@<TRIPOS>ATOM
      1  C1        21.7480   31.3870   64.0080 C.3   203  FUC203      0.1776
      2  C2        20.6860   32.3410   64.6740 C.3   203  FUC203      0.2141
      3  C3        20.0920   33.3020   63.6570 C.3   203  FUC203      0.2172
      4  C4        19.4820   32.4490   62.5310 C.3   203  FUC203      0.2116
      5  C5        20.6180   31.5840   61.9100 C.3   203  FUC203      0.1483
      6  C6        20.1300   30.7410   60.7440 C.3   203  FUC203      0.0349
      7  O2        21.2840   33.0720   65.7570 O.3   203  FUC203     -0.2176
      8  O3        19.1030   34.1580   64.2960 O.3   203  FUC203     -0.2175
      9  O4        18.4930   31.5720   63.0780 O.3   203  FUC203     -0.2177
     10  O5        21.1870   30.6860   62.9120 O.3   203  FUC203     -0.3508
@<TRIPOS>BOND
     1     6     5    1
     2     5     4    1
     3     5    10    1
     4     4     9    1
     5     4     3    1
     6    10     1    1
     7     3     8    1
     8     3     2    1
     9     1     2    1
    10     2     7    1
