@<TRIPOS>MOLECULE
2a2q_PBZ_H_1.pdb
 10 10 0 0 0
SMALL
GASTEIGER

@<TRIPOS>ATOM
      1  N2        28.5580    8.0270   16.3040 N.pl3 1016  PBZ1016     0.2047
      2  N3        29.8930    6.1760   15.9320 N.pl3 1016  PBZ1016     0.2047
      3  C7        29.2610    7.2550   15.4540 C.2   1016  PBZ1016     0.4766
      4  C4        29.3980    7.5340   14.0900 C.ar  1016  PBZ1016     0.0976
      5  C2        30.2750    7.0170   11.7680 C.ar  1016  PBZ1016     0.0183
      6  C3        30.1400    6.6980   13.2640 C.ar  1016  PBZ1016     0.0094
      7  C5        28.7380    8.6390   13.5050 C.ar  1016  PBZ1016     0.0094
      8  C6        28.8440    8.9520   12.1350 C.ar  1016  PBZ1016     0.0183
      9  C1        29.6150    8.1170   11.2620 C.ar  1016  PBZ1016     0.0891
     10  N1        29.7060    8.4060    9.9790 N.pl3 1016  PBZ1016    -0.1281
@<TRIPOS>BOND
     1    10     9    1
     2     9     5   ar
     3     9     8   ar
     4     5     6   ar
     5     8     7   ar
     6     6     4   ar
     7     7     4   ar
     8     4     3    1
     9     3     2    2
    10     3     1    1
