@<TRIPOS>MOLECULE
2a2r_GSN_A_1.pdb
 22 21 0 0 0
SMALL
GASTEIGER

@<TRIPOS>ATOM
      1  OXT       15.2020    8.3670   25.0700 O.co2 1221  GSN1221    -0.2441
      2  C         14.8490    8.7870   23.9450 C.2   1221  GSN1221     0.3819
      3  O         15.3280    8.4300   22.8480 O.co2 1221  GSN1221    -0.2441
      4  CA        13.7410    9.8420   23.9070 C.3   1221  GSN1221     0.1948
      5  N         13.8460   10.6130   22.6600 N.3   1221  GSN1221    -0.1208
      6  CB        12.3620    9.1810   23.9780 C.3   1221  GSN1221     0.0402
      7  CAG       12.1040    8.5330   25.3400 C.3   1221  GSN1221     0.0889
      8  CAH       10.7220    7.8780   25.4110 C.2   1221  GSN1221     0.2418
      9  OAI        9.9400    7.9310   24.4630 O.2   1221  GSN1221    -0.2733
     10  NAJ       10.4620    7.2800   26.5710 N.am  1221  GSN1221    -0.1968
     11  CAK        9.2000    6.5810   26.8530 C.3   1221  GSN1221     0.1849
     12  CAL        9.4800    5.0800   26.9570 C.3   1221  GSN1221     0.1087
     13  SAM       10.2380    4.3740   25.4470 S.3   1221  GSN1221    -0.0135
     14  NAN        8.9880    4.5160   24.4100 N.4   1221  GSN1221     0.0121
     15  OAV        9.1230    4.0740   23.0660 O.3   1221  GSN1221    -0.0880
     16  CAO        8.6300    7.0810   28.1840 C.2   1221  GSN1221     0.2627
     17  OAP        9.3770    7.4450   29.0900 O.2   1221  GSN1221    -0.2714
     18  NAQ        7.3020    7.0960   28.2630 N.am  1221  GSN1221    -0.1917
     19  CAR        6.5960    7.5330   29.4770 C.3   1221  GSN1221     0.2285
     20  CAS        5.9760    8.9180   29.2790 C.2   1221  GSN1221     0.3865
     21  OAU        5.2990    9.3720   30.2270 O.co2 1221  GSN1221    -0.2437
     22  OAT        6.1940    9.4940   28.1920 O.co2 1221  GSN1221    -0.2437
@<TRIPOS>BOND
     1     5     4    1
     2     3     2   ar
     3    15    14    1
     4     4     2    1
     5     4     6    1
     6     2     1   ar
     7     6     7    1
     8    14    13    1
     9     9     8    2
    10     7     8    1
    11     8    10   am
    12    13    12    1
    13    10    11    1
    14    11    12    1
    15    11    16    1
    16    16    18   am
    17    16    17    2
    18    22    20   ar
    19    18    19    1
    20    20    19    1
    21    20    21   ar
