@<TRIPOS>MOLECULE
2a2s_GSN_A_1.pdb
 22 21 0 0 0
SMALL
GASTEIGER

@<TRIPOS>ATOM
      1  OXT       15.7930    8.4830   25.2950 O.co2 1221  GSN1221    -0.2441
      2  C         15.4310    8.8750   24.1640 C.2   1221  GSN1221     0.3819
      3  O         15.8880    8.4800   23.0700 O.co2 1221  GSN1221    -0.2441
      4  CA        14.3270    9.9350   24.1160 C.3   1221  GSN1221     0.1948
      5  N         14.4320   10.6970   22.8630 N.3   1221  GSN1221    -0.1208
      6  CB        12.9460    9.2790   24.1980 C.3   1221  GSN1221     0.0402
      7  CAG       12.7010    8.6250   25.5610 C.3   1221  GSN1221     0.0889
      8  CAH       11.3050    8.0050   25.6590 C.2   1221  GSN1221     0.2418
      9  OAI       10.5110    8.0690   24.7220 O.2   1221  GSN1221    -0.2733
     10  NAJ       11.0410    7.4220   26.8260 N.am  1221  GSN1221    -0.1968
     11  CAK        9.7600    6.7640   27.1240 C.3   1221  GSN1221     0.1849
     12  CAL        9.9890    5.2590   27.2780 C.3   1221  GSN1221     0.1087
     13  SAM       10.6640    4.4630   25.7740 S.3   1221  GSN1221    -0.0135
     14  NAN        9.4590    4.7820   24.7240 N.4   1221  GSN1221     0.0121
     15  OAV        9.5500    4.3370   23.3770 O.3   1221  GSN1221    -0.0880
     16  CAO        9.1870    7.3110   28.4340 C.2   1221  GSN1221     0.2627
     17  OAP        9.9310    7.6860   29.3390 O.2   1221  GSN1221    -0.2714
     18  NAQ        7.8580    7.3400   28.5060 N.am  1221  GSN1221    -0.1917
     19  CAR        7.1500    7.8220   29.7020 C.3   1221  GSN1221     0.2285
     20  CAS        6.5920    9.2280   29.4740 C.2   1221  GSN1221     0.3865
     21  OAU        5.9520    9.7390   30.4190 O.co2 1221  GSN1221    -0.2437
     22  OAT        6.8150    9.7630   28.3660 O.co2 1221  GSN1221    -0.2437
@<TRIPOS>BOND
     1     5     4    1
     2     3     2   ar
     3    15    14    1
     4     4     2    1
     5     4     6    1
     6     2     1   ar
     7     6     7    1
     8     9     8    2
     9    14    13    1
    10     7     8    1
    11     8    10   am
    12    13    12    1
    13    10    11    1
    14    11    12    1
    15    11    16    1
    16    22    20   ar
    17    16    18   am
    18    16    17    2
    19    18    19    1
    20    20    19    1
    21    20    21   ar
