@<TRIPOS>MOLECULE
2a2x_NA9_H_1.pdb
 32 33 0 0 0
SMALL
GASTEIGER

@<TRIPOS>ATOM
      1  C1        12.4160   20.9810   22.4580 C.ar  501  NA9501      0.0271
      2  C2        12.1040   22.2140   23.0930 C.ar  501  NA9501      0.1785
      3  N3        12.7230   23.3480   22.7090 N.ar  501  NA9501     -0.2361
      4  C4        13.6450   23.3730   21.7340 C.ar  501  NA9501      0.0965
      5  C5        14.0050   22.1920   21.0610 C.ar  501  NA9501      0.0186
      6  C6        13.3810   20.9770   21.4290 C.ar  501  NA9501      0.0008
      7  C7        15.0460   22.2250   19.9720 C.3   501  NA9501      0.1431
      8  C8        11.1000   22.2730   24.1850 C.2   501  NA9501      0.4938
      9  N9        10.3980   21.1890   24.5240 N.pl3 501  NA9501      0.2065
     10  N10       10.9090   23.4190   24.8350 N.pl3 501  NA9501      0.2065
     11  N11       16.3750   22.1220   20.5990 N.am  501  NA9501     -0.1991
     12  C12       17.1270   20.9880   20.5150 C.2   501  NA9501      0.2598
     13  C13       18.4710   20.9460   21.1980 C.3   501  NA9501      0.1536
     14  O14       16.7290   20.0050   19.9140 O.2   501  NA9501     -0.2715
     15  C15       19.5720   21.3730   20.2110 C.3   501  NA9501      0.0315
     16  C16       19.7050   18.6630   21.1420 C.3   501  NA9501      0.1153
     17  N17       18.7030   19.5640   21.7630 N.am  501  NA9501     -0.2701
     18  C18       17.9700   19.1410   22.8710 C.2   501  NA9501      0.2418
     19  C19       18.1620   17.7540   23.4920 C.3   501  NA9501      0.1495
     20  O20       17.1470   19.8810   23.3700 O.2   501  NA9501     -0.2734
     21  N21       16.9170   16.9810   23.3260 N.3   501  NA9501     -0.1988
     22  C22       16.3280   16.7280   22.0020 C.3   501  NA9501      0.2033
     23  C23       14.8510   16.4450   22.1540 C.2   501  NA9501      0.3823
     24  O24       14.3770   16.2070   23.2590 O.co2 501  NA9501     -0.2440
     25  O25       14.1270   16.4540   21.1660 O.co2 501  NA9501     -0.2440
     26  C26       18.4380   17.8530   24.9980 C.3   501  NA9501      0.0267
     27  C27       19.8950   18.0940   25.4300 C.3   501  NA9501      0.0019
     28  C28       20.9610   17.6870   24.3790 C.3   501  NA9501      0.0001
     29  C29       22.3790   17.9240   24.9520 C.3   501  NA9501      0.0000
     30  C30       22.5640   19.4070   25.3530 C.3   501  NA9501      0.0000
     31  C31       21.4970   19.8170   26.3920 C.3   501  NA9501      0.0000
     32  C32       20.0780   19.5860   25.8140 C.3   501  NA9501      0.0001
@<TRIPOS>BOND
     1    14    12    2
     2     7    11    1
     3     7     5    1
     4    15    13    1
     5    12    11   am
     6    12    13    1
     7     5     6   ar
     8     5     4   ar
     9    16    17    1
    10    25    23   ar
    11    13    17    1
    12     6     1   ar
    13     4     3   ar
    14    17    18   am
    15    22    23    1
    16    22    21    1
    17    23    24   ar
    18     1     2   ar
    19     3     2   ar
    20    18    20    2
    21    18    19    1
    22     2     8    1
    23    21    19    1
    24    19    26    1
    25     8     9    2
    26     8    10    1
    27    28    29    1
    28    28    27    1
    29    29    30    1
    30    26    27    1
    31    30    31    1
    32    27    32    1
    33    32    31    1
