@<TRIPOS>MOLECULE
2a2z_UDP_A_1.pdb
 25 26 0 0 0
SMALL
GASTEIGER

@<TRIPOS>ATOM
      1  N1        34.9020   84.8140   56.2220 N.am  301  UDP301     -0.1766
      2  C2        34.7950   85.2390   57.5570 C.1   301  UDP301      0.2845
      3  N3        35.4860   86.4080   57.8930 N.2   301  UDP301     -0.2452
      4  C4        36.2690   87.2050   57.0240 C.1   301  UDP301      0.2182
      5  C5        36.3990   86.7140   55.5960 C.2   301  UDP301      0.1242
      6  C6        35.7000   85.4870   55.2650 C.2   301  UDP301      0.0929
      7  O2        34.1240   84.6130   58.3990 O.2   301  UDP301     -0.1918
      8  O4        36.8080   88.2160   57.3940 O.2   301  UDP301     -0.2085
      9  C1'       34.1000   83.5900   55.8180 C.3   301  UDP301      0.2401
     10  C2'       32.7390   84.1070   55.2830 C.3   301  UDP301      0.2319
     11  O2'       31.7880   84.2450   56.3510 O.3   301  UDP301     -0.2157
     12  C3'       32.3450   83.0390   54.2800 C.3   301  UDP301      0.2158
     13  C4'       33.6830   82.4350   53.8170 C.3   301  UDP301      0.1799
     14  O4'       34.6900   83.0010   54.6920 O.3   301  UDP301     -0.3320
     15  O3'       31.4910   82.0550   54.8950 O.3   301  UDP301     -0.2175
     16  C5'       34.1100   82.7200   52.3660 C.3   301  UDP301      0.1813
     17  O5'       34.3380   84.1370   52.1640 O.3   301  UDP301     -0.3111
     18  PA        33.9150   84.7370   50.7640 P.3   301  UDP301      0.2231
     19  O1A       32.4500   84.5270   50.5550 O.2   301  UDP301     -0.5169
     20  O2A       34.3640   86.1670   50.7660 O.3   301  UDP301     -0.4370
     21  O3A       34.7580   83.8400   49.6800 O.3   301  UDP301     -0.2261
     22  PB        35.5370   84.4340   48.3400 P.3   301  UDP301      0.5373
     23  O1B       34.5670   85.4320   47.7060 O.3   301  UDP301     -0.1143
     24  O2B       35.7650   83.1740   47.5380 O.2   301  UDP301     -0.2221
     25  O3B       36.7870   85.1320   48.7990 O.3   301  UDP301     -0.1143
@<TRIPOS>BOND
     1    24    22    2
     2    23    22    1
     3    22    25    1
     4    22    21    1
     5    21    18    1
     6    19    18    2
     7    18    20    1
     8    18    17    1
     9    17    16    1
    10    16    13    1
    11    13    12    1
    12    13    14    1
    13    12    15    1
    14    12    10    1
    15    14     9    1
    16     6     5    2
    17     6     1    1
    18    10     9    1
    19    10    11    1
    20     5     4    1
    21     9     1    1
    22     1     2   am
    23     4     8    2
    24     4     3    2
    25     2     3    2
    26     2     7    2
