@<TRIPOS>MOLECULE
2a2z_DCZ_A_1.pdb
 16 17 0 0 0
SMALL
GASTEIGER

@<TRIPOS>ATOM
      1  N1        37.2320   78.7480   39.9700 N.am  304  DCZ304     -0.1802
      2  C2        37.9640   77.9220   39.1070 C.1   304  DCZ304      0.2756
      3  N3        38.4890   78.3660   37.9030 N.2   304  DCZ304     -0.3024
      4  C4        38.2560   79.6470   37.6020 C.2   304  DCZ304      0.2346
      5  C5        37.5590   80.4580   38.4260 C.2   304  DCZ304      0.0687
      6  C6        37.0550   80.0240   39.5890 C.2   304  DCZ304      0.0835
      7  O2        38.2190   76.6570   39.3450 O.2   304  DCZ304     -0.1925
      8  N4        38.7690   80.0520   36.4090 N.pl3 304  DCZ304     -0.0921
      9  C1'       36.6690   78.1780   41.2670 C.3   304  DCZ304      0.2090
     10  C2'       37.2440   78.5460   42.6230 C.3   304  DCZ304      0.0874
     11  C3'       36.0460   78.2770   43.5420 C.3   304  DCZ304      0.1858
     12  C4'       34.8350   78.6260   42.7300 C.3   304  DCZ304      0.1802
     13  O4'       35.2650   78.5240   41.3540 O.3   304  DCZ304     -0.3338
     14  O3'       35.9880   76.8850   43.8560 O.3   304  DCZ304     -0.2203
     15  C5'       34.3540   80.0190   43.0660 C.3   304  DCZ304      0.2141
     16  O5'       35.3430   80.9950   42.7260 O.3   304  DCZ304     -0.2176
@<TRIPOS>BOND
     1     8     4    1
     2     4     3    2
     3     4     5    1
     4     3     2    2
     5     5     6    2
     6     2     7    2
     7     2     1   am
     8     6     1    1
     9     1     9    1
    10     9    13    1
    11     9    10    1
    12    13    12    1
    13    10    11    1
    14    16    15    1
    15    12    15    1
    16    12    11    1
    17    11    14    1
