@<TRIPOS>MOLECULE
2a30_DCZ_A_1.pdb
 16 17 0 0 0
SMALL
GASTEIGER

@<TRIPOS>ATOM
      1  N1        -5.9650   -2.8380   44.6070 N.am  302  DCZ302     -0.1802
      2  C2        -5.0980   -3.6720   44.0080 C.1   302  DCZ302      0.2756
      3  N3        -4.0250   -4.2150   44.6930 N.2   302  DCZ302     -0.3024
      4  C4        -3.8870   -3.8710   45.9780 C.2   302  DCZ302      0.2346
      5  C5        -4.7410   -3.0640   46.5740 C.2   302  DCZ302      0.0687
      6  C6        -5.7520   -2.5580   45.8990 C.2   302  DCZ302      0.0835
      7  O2        -5.1590   -4.0460   42.7950 O.2   302  DCZ302     -0.1925
      8  N4        -2.8100   -4.4020   46.6390 N.pl3 302  DCZ302     -0.0921
      9  C1'       -7.0870   -2.2500   43.8430 C.3   302  DCZ302      0.2090
     10  C2'       -8.3790   -2.9810   43.7070 C.3   302  DCZ302      0.0874
     11  C3'       -9.3960   -1.8060   43.6640 C.3   302  DCZ302      0.1858
     12  C4'       -8.7270   -0.5830   44.3710 C.3   302  DCZ302      0.1802
     13  O4'       -7.3550   -0.9250   44.4310 O.3   302  DCZ302     -0.3338
     14  O3'       -9.6830   -1.4700   42.2880 O.3   302  DCZ302     -0.2203
     15  C5'       -9.3200   -0.3640   45.7390 C.3   302  DCZ302      0.2141
     16  O5'       -8.5530   -0.9780   46.7650 O.3   302  DCZ302     -0.2176
@<TRIPOS>BOND
     1    14    11    1
     2     7     2    2
     3    11    10    1
     4    11    12    1
     5    10     9    1
     6     9    13    1
     7     9     1    1
     8     2     1   am
     9     2     3    2
    10    12    13    1
    11    12    15    1
    12     1     6    1
    13     3     4    2
    14    15    16    1
    15     6     5    2
    16     4     5    1
    17     4     8    1
