@<TRIPOS>MOLECULE
2a31_PG3_A_1.pdb
 20 19 0 0 0
SMALL
GASTEIGER

@<TRIPOS>ATOM
      1  OA        35.7140   26.7680   11.3540 O.3   501  PG3501     -0.3949
      2  CB        34.4270   26.1990   11.4080 C.3   501  PG3501      0.0471
      3  CG        33.3230   27.2280   11.1990 C.3   501  PG3501      0.0010
      4  CD        33.5260   28.4430   12.1270 C.3   501  PG3501      0.0666
      5  NE        32.2580   28.8610   12.7360 N.pl3 501  PG3501     -0.2787
      6  CZ        31.8390   28.4320   13.9250 C.cat 501  PG3501      0.3410
      7  NH1       32.4110   27.4120   14.5790 N.pl3 501  PG3501     -0.2919
      8  NH2       30.8350   29.0700   14.4930 N.pl3 501  PG3501     -0.2919
      9  HA        35.7370   27.5290   11.9380 H     501  PG3501      0.2094
     10  HB1       34.2980   25.7740   12.3960 H     501  PG3501      0.0558
     11  HB2       34.3300   25.4220   10.6490 H     501  PG3501      0.0558
     12  HG1       32.3800   26.7400   11.4440 H     501  PG3501      0.0318
     13  HG2       33.3010   27.5460   10.1560 H     501  PG3501      0.0318
     14  HD1       33.9770   29.2710   11.5770 H     501  PG3501      0.0655
     15  HD2       34.2200   28.1770   12.9240 H     501  PG3501      0.0655
     16  HE        31.7820   29.6470   12.3170 H     501  PG3501      0.2578
     17 HH11       32.0420   27.1190   15.4720 H     501  PG3501      0.2545
     18 HH12       33.1950   26.9310   14.1630 H     501  PG3501      0.2545
     19 HH21       30.5040   28.7770   15.4000 H     501  PG3501      0.2545
     20 HH22       30.3900   29.8330   14.0010 H     501  PG3501      0.2545
@<TRIPOS>BOND
     1    13     3    1
     2    11     2    1
     3     3     2    1
     4     3    12    1
     5     3     4    1
     6     1     2    1
     7     1     9    1
     8     2    10    1
     9    14     4    1
    10     4     5    1
    11     4    15    1
    12    16     5    1
    13     5     6    1
    14     6     8    2
    15     6     7    1
    16    20     8    1
    17    18     7    1
    18     8    19    1
    19     7    17    1
