@<TRIPOS>MOLECULE
2a32_PG3_A_1.pdb
 20 19 0 0 0
SMALL
GASTEIGER

@<TRIPOS>ATOM
      1  OA        31.5790   23.0080   12.5610 O.3   801  PG3801     -0.3949
      2  CB        31.7490   23.9690   13.5770 C.3   801  PG3801      0.0471
      3  CG        32.0150   25.3730   13.0590 C.3   801  PG3801      0.0010
      4  CD        32.9250   26.2890   13.8730 C.3   801  PG3801      0.0666
      5  NE        32.7230   27.6590   13.3770 N.pl3 801  PG3801     -0.2787
      6  CZ        31.8130   28.5010   13.9000 C.cat 801  PG3801      0.3410
      7  NH1       31.2340   28.3080   15.0940 N.pl3 801  PG3801     -0.2919
      8  NH2       31.4360   29.5700   13.2020 N.pl3 801  PG3801     -0.2919
      9  HA        31.8400   22.1480   12.9020 H     801  PG3801      0.2094
     10  HB1       32.6000   23.7490   14.2050 H     801  PG3801      0.0558
     11  HB2       30.8350   23.9450   14.1610 H     801  PG3801      0.0558
     12  HG1       32.3750   25.3350   12.0320 H     801  PG3801      0.0318
     13  HG2       31.0770   25.8550   13.0580 H     801  PG3801      0.0318
     14  HD1       32.7940   26.2720   14.9320 H     801  PG3801      0.0655
     15  HD2       33.9340   25.9560   13.8180 H     801  PG3801      0.0655
     16  HE        33.0990   27.8710   12.4630 H     801  PG3801      0.2578
     17 HH11       30.5760   28.9870   15.4450 H     801  PG3801      0.2545
     18 HH12       31.4680   27.4930   15.6400 H     801  PG3801      0.2545
     19 HH21       31.8160   29.7320   12.2820 H     801  PG3801      0.2545
     20 HH22       30.7400   30.1970   13.5800 H     801  PG3801      0.2545
@<TRIPOS>BOND
     1    12     3    1
     2    19     8    1
     3    16     5    1
     4     1     9    1
     5     1     2    1
     6    13     3    1
     7     3     2    1
     8     3     4    1
     9     8    20    1
    10     8     6    2
    11     5     4    1
    12     5     6    1
    13     2    11    1
    14     2    10    1
    15    15     4    1
    16     4    14    1
    17     6     7    1
    18     7    17    1
    19     7    18    1
