@<TRIPOS>MOLECULE
2a32_PBC_A_1.pdb
 13 13 0 0 0
SMALL
GASTEIGER

@<TRIPOS>ATOM
      1  B         37.3940   25.8790    8.8350 B     802  PBC802      0.0000
      2  O1        37.4100   24.8300    7.8540 O.3   802  PBC802      0.0000
      3  CG1       35.5350   25.7870   12.0390 C.ar  802  PBC802      0.0000
      4  CD1       35.0150   24.4720   12.0630 C.ar  802  PBC802      0.0000
      5  CG2       35.2970   23.6070   11.0050 C.ar  802  PBC802      0.0000
      6  CB2       36.1230   24.0450    9.9580 C.ar  802  PBC802      0.0000
      7  CA        36.5890   25.3680    9.9040 C.ar  802  PBC802      0.0000
      8  CB1       36.2390   26.2470   10.9310 C.ar  802  PBC802      0.0000
      9  HG1       35.4480   26.4920   12.8420 H     802  PBC802      0.0000
     10  HD1       34.4770   24.0910   12.9150 H     802  PBC802      0.0000
     11  HG2       34.9370   22.5900   11.0320 H     802  PBC802      0.0000
     12  HB2       36.3860   23.3800    9.1500 H     802  PBC802      0.0000
     13  HB1       36.5270   27.2730   10.8650 H     802  PBC802      0.0000
@<TRIPOS>BOND
     1     2     1    1
     2     1     7    1
     3    12     6    1
     4     7     6   ar
     5     7     8   ar
     6     6     5   ar
     7    13     8    1
     8     8     3   ar
     9     5    11    1
    10     5     4   ar
    11     3     4   ar
    12     3     9    1
    13     4    10    1
