@<TRIPOS>MOLECULE
2a39_NAG_A_1.pdb
 14 14 0 0 0
SMALL
GASTEIGER

@<TRIPOS>ATOM
      1  C1        23.7790   51.0120  108.6710 C.3   800  NAG800      0.1665
      2  C2        23.6430   51.0590  110.1880 C.3   800  NAG800      0.1576
      3  C3        24.8660   50.3890  110.8050 C.3   800  NAG800      0.2069
      4  C4        24.9660   48.9490  110.2400 C.3   800  NAG800      0.2134
      5  C5        25.0220   48.9890  108.6800 C.3   800  NAG800      0.1809
      6  C6        24.9790   47.5460  108.1980 C.3   800  NAG800      0.2141
      7  C7        22.6000   53.0010  111.3640 C.2   800  NAG800      0.2420
      8  C8        22.8060   54.4240  111.7530 C.3   800  NAG800      0.0964
      9  N2        23.6310   52.4570  110.6710 N.am  800  NAG800     -0.2019
     10  O3        24.6840   50.2750  112.2280 O.3   800  NAG800     -0.2184
     11  O4        26.2110   48.3940  110.7240 O.3   800  NAG800     -0.2176
     12  O5        23.8460   49.6420  108.2000 O.3   800  NAG800     -0.3489
     13  O6        24.7810   47.4000  106.8530 O.3   800  NAG800     -0.2176
     14  O7        21.6430   52.4190  111.6020 O.2   800  NAG800     -0.2733
@<TRIPOS>BOND
     1    13     6    1
     2     6     5    1
     3    12     1    1
     4    12     5    1
     5     1     2    1
     6     5     4    1
     7     2     9    1
     8     2     3    1
     9     4    11    1
    10     4     3    1
    11     9     7   am
    12     3    10    1
    13     7    14    2
    14     7     8    1
