@<TRIPOS>MOLECULE
2a3f_HEM_X_1.pdb
 43 50 0 0 0
SMALL
GASTEIGER

@<TRIPOS>ATOM
      1 FE         22.1430   78.5330   27.2490 Fe    201  HEM201      0.0000
      2  CHA       24.8240   76.4690   27.4940 C.2   201  HEM201      0.0000
      3  CHB       22.7130   79.7560   30.2890 C.2   201  HEM201      0.0000
      4  CHC       19.9910   81.0260   26.6070 C.2   201  HEM201      0.0000
      5  CHD       20.8440   76.6910   24.6830 C.2   201  HEM201      0.0000
      6  NA        23.5050   78.1300   28.6790 N.2   201  HEM201      0.0000
      7  C1A       24.5250   77.2090   28.6010 C.2   201  HEM201      0.0000
      8  C2A       25.2280   77.2390   29.8210 C.2   201  HEM201      0.0000
      9  C3A       24.6280   78.0980   30.6160 C.2   201  HEM201      0.0000
     10  C4A       23.5520   78.7140   29.8890 C.2   201  HEM201      0.0000
     11  CMA       25.0000   78.4220   32.0540 C.3   201  HEM201      0.0000
     12  CAA       26.4410   76.3660   30.1180 C.3   201  HEM201      0.0000
     13  CBA       26.0830   74.9270   30.4920 C.3   201  HEM201      0.0000
     14  CGA       27.3540   74.1700   30.7550 C.2   201  HEM201      0.0000
     15  O1A       27.4570   72.9790   30.3750 O.co2 201  HEM201      0.0000
     16  O2A       28.2900   74.7630   31.3220 O.co2 201  HEM201      0.0000
     17  NB        21.4700   80.0910   28.2680 N.ar  201  HEM201      0.0000
     18  C1B       21.9150   80.5030   29.5010 C.ar  201  HEM201      0.0000
     19  C2B       21.4140   81.8340   29.7540 C.ar  201  HEM201      0.0000
     20  C3B       20.6470   82.1880   28.7210 C.ar  201  HEM201      0.0000
     21  C4B       20.7050   81.1360   27.7640 C.ar  201  HEM201      0.0000
     22  CMB       21.5850   82.5250   31.0930 C.3   201  HEM201      0.0000
     23  CAB       19.8980   83.5160   28.4590 C.2   201  HEM201      0.0000
     24  CBB       20.3890   84.6670   28.7900 C.2   201  HEM201      0.0000
     25  NC        20.6260   78.7580   25.9350 N.2   201  HEM201      0.0000
     26  C1C       19.8890   79.9080   25.7990 C.2   201  HEM201      0.0000
     27  C2C       19.0510   79.7330   24.6790 C.2   201  HEM201      0.0000
     28  C3C       19.2900   78.5160   24.1300 C.2   201  HEM201      0.0000
     29  C4C       20.2390   77.8860   24.9370 C.2   201  HEM201      0.0000
     30  CMC       18.1120   80.8190   24.1830 C.3   201  HEM201      0.0000
     31  CAC       18.6480   77.8130   22.9320 C.2   201  HEM201      0.0000
     32  CBC       17.7680   78.3490   22.0950 C.2   201  HEM201      0.0000
     33  ND        22.7190   76.8620   26.2940 N.ar  201  HEM201      0.0000
     34  C1D       22.0590   76.3120   25.2040 C.ar  201  HEM201      0.0000
     35  C2D       22.9190   75.2500   24.6690 C.ar  201  HEM201      0.0000
     36  C3D       24.1130   75.2490   25.4980 C.ar  201  HEM201      0.0000
     37  C4D       23.9230   76.2330   26.5060 C.ar  201  HEM201      0.0000
     38  CMD       22.6530   74.3730   23.4420 C.3   201  HEM201      0.0000
     39  CAD       25.2540   74.2470   25.3810 C.3   201  HEM201      0.0000
     40  CBD       26.4060   74.8840   24.6810 C.3   201  HEM201      0.0000
     41  CGD       27.5760   73.9500   24.4300 C.2   201  HEM201      0.0000
     42  O1D       28.3540   74.1420   23.4450 O.co2 201  HEM201      0.0000
     43  O2D       27.7710   73.0180   25.2450 O.co2 201  HEM201      0.0000
@<TRIPOS>BOND
     1    32    31    2
     2    31    28    1
     3    38    35    1
     4    42    41   ar
     5    28    27    2
     6    28    29    1
     7    30    27    1
     8    41    40    1
     9    41    43   ar
    10    35    34   ar
    11    35    36   ar
    12    27    26    1
    13    40    39    1
    14     5    29    1
    15     5    34    2
    16    29    25    2
    17    34    33   ar
    18    39    36    1
    19    36    37   ar
    20    26    25    1
    21    26     4    2
    22    25     1    1
    23    33    37   ar
    24    33     1    1
    25    37     2    2
    26     4    21    1
    27     1    17    1
    28     1     6    1
    29     2     7    1
    30    21    17   ar
    31    21    20   ar
    32    17    18   ar
    33    23    20    1
    34    23    24    2
    35     7     6    2
    36     7     8    1
    37     6    10    1
    38    20    19   ar
    39    18    19   ar
    40    18     3    1
    41    19    22    1
    42     8    12    1
    43     8     9    2
    44    10     3    2
    45    10     9    1
    46    12    13    1
    47    15    14   ar
    48    13    14    1
    49     9    11    1
    50    14    16   ar
