@<TRIPOS>MOLECULE
2a3h_CBI_A_1.pdb
 23 24 0 0 0
SMALL
GASTEIGER

@<TRIPOS>ATOM
      1  C1        57.6690   50.1140   37.7910 C.3     1  CBI1        0.2695
      2  C2        57.1000   50.7610   39.0440 C.3     1  CBI1        0.2406
      3  C3        55.8720   51.5910   38.6940 C.3     1  CBI1        0.2198
      4  C4        56.3260   52.6310   37.6520 C.3     1  CBI1        0.2144
      5  C5        56.9470   51.9640   36.4450 C.3     1  CBI1        0.1835
      6  C6        57.5200   52.9940   35.5020 C.3     1  CBI1        0.2142
      7  O2        56.7380   49.7480   39.9770 O.3     1  CBI1       -0.2149
      8  O3        55.3610   52.2130   39.8570 O.3     1  CBI1       -0.2174
      9  O4        55.2340   53.4830   37.2620 O.3     1  CBI1       -0.2176
     10  O5        58.0710   51.1350   36.8470 O.3     1  CBI1       -0.3256
     11  O6        58.3710   53.8510   36.2480 O.3     1  CBI1       -0.2176
     12  C1'       61.3000   46.3880   36.7330 C.3     1  CBI1        0.3023
     13  C2'       61.5990   47.7940   36.2830 C.3     1  CBI1        0.2433
     14  C3'       60.9890   48.7810   37.3180 C.3     1  CBI1        0.2168
     15  C4'       59.4760   48.5010   37.2830 C.3     1  CBI1        0.1804
     16  C5'       59.2140   47.1080   37.7600 C.3     1  CBI1        0.1804
     17  C6'       57.7930   46.6760   37.8720 C.3     1  CBI1        0.2141
     18  O1'       61.7620   45.3660   35.9150 O.3     1  CBI1       -0.1869
     19  O2'       63.0120   47.9730   36.2840 O.3     1  CBI1       -0.2148
     20  O3'       61.2350   50.1030   36.9010 O.3     1  CBI1       -0.2175
     21  O4'       58.7980   49.3760   38.1970 O.3     1  CBI1       -0.3257
     22  O5'       59.8860   46.2200   36.8380 O.3     1  CBI1       -0.3237
     23  O6'       57.0900   46.8270   36.6660 O.3     1  CBI1       -0.2176
@<TRIPOS>BOND
     1     6    11    1
     2     6     5    1
     3    18    12    1
     4    13    19    1
     5    13    12    1
     6    13    14    1
     7     5    10    1
     8     5     4    1
     9    23    17    1
    10    12    22    1
    11    22    16    1
    12    10     1    1
    13    20    14    1
    14     9     4    1
    15    15    14    1
    16    15    16    1
    17    15    21    1
    18     4     3    1
    19    16    17    1
    20     1    21    1
    21     1     2    1
    22     3     2    1
    23     3     8    1
    24     2     7    1
