@<TRIPOS>MOLECULE
2a3i_C0R_A_1.pdb
 25 28 0 0 0
SMALL
GASTEIGER

@<TRIPOS>ATOM
      1  C1        23.9540   72.0080   15.0720 C.2   301  C0R301     -0.0197
      2  C2        23.9180   70.6490   14.9210 C.2   301  C0R301      0.0377
      3  C3        22.7570   70.0410   14.1200 C.2   301  C0R301      0.1948
      4  C4        21.6850   70.9680   13.5300 C.2   301  C0R301      0.0338
      5  C5        21.7730   72.3000   13.7040 C.2   301  C0R301     -0.0378
      6  C6        20.6600   73.1620   13.0740 C.3   301  C0R301      0.0224
      7  C7        20.1530   74.1870   14.1130 C.3   301  C0R301      0.0045
      8  C8        21.2620   75.0020   14.8500 C.3   301  C0R301      0.0034
      9  C9        22.2820   74.0090   15.5460 C.3   301  C0R301      0.0376
     10  C10       22.9190   73.0030   14.4890 C.3   301  C0R301      0.0362
     11  C11       23.3930   74.7690   16.3940 C.3   301  C0R301      0.1525
     12  C12       22.7800   75.8130   17.3680 C.3   301  C0R301      0.0333
     13  C13       21.8060   76.8500   16.6200 C.3   301  C0R301      0.0091
     14  C14       20.6780   76.0040   15.8950 C.3   301  C0R301      0.0006
     15  C15       19.6460   77.0980   15.4420 C.3   301  C0R301      0.0004
     16  C16       19.7800   78.2040   16.5190 C.3   301  C0R301      0.0074
     17  C17       20.8800   77.7280   17.5060 C.3   301  C0R301      0.0604
     18  C18       22.6750   77.7830   15.6390 C.3   301  C0R301      0.0005
     19  C19       23.7520   73.6680   13.3210 C.3   301  C0R301      0.0085
     20  C20       21.6520   78.9470   18.1290 C.2   301  C0R301      0.1834
     21  C21       22.5500   78.7890   19.3710 C.3   301  C0R301      0.2458
     22  O1        22.6890   68.8280   13.9600 O.2   301  C0R301     -0.2866
     23  O2        24.3580   75.4270   15.5940 O.3   301  C0R301     -0.2231
     24  O3        21.5680   80.0840   17.6150 O.2   301  C0R301     -0.2933
     25  O4        23.5580   79.7860   19.4620 O.3   301  C0R301     -0.2119
@<TRIPOS>BOND
     1     6     5    1
     2     6     7    1
     3    19    10    1
     4     4     5    2
     5     4     3    1
     6     5    10    1
     7    22     3    2
     8     7     8    1
     9     3     2    1
    10    10     1    1
    11    10     9    1
    12     8     9    1
    13     8    14    1
    14     2     1    2
    15    15    14    1
    16    15    16    1
    17     9    11    1
    18    23    11    1
    19    18    13    1
    20    14    13    1
    21    11    12    1
    22    16    17    1
    23    13    12    1
    24    13    17    1
    25    17    20    1
    26    24    20    2
    27    20    21    1
    28    21    25    1
