@<TRIPOS>MOLECULE
2a3l_CF5_A_1.pdb
 24 26 0 0 0
SMALL
GASTEIGER

@<TRIPOS>ATOM
      1  O1P      -13.5650  -36.9060  -17.4660 O.2   841  CF5841     -0.2224
      2  P        -14.1250  -38.1010  -16.5060 P.3   841  CF5841      0.5327
      3  O3P      -15.3910  -39.0860  -17.4140 O.3   841  CF5841     -0.1145
      4  O2P      -12.6100  -38.9980  -15.9250 O.3   841  CF5841     -0.1145
      5  O5S      -14.8950  -37.4570  -15.2450 O.3   841  CF5841     -0.2675
      6  C5S      -16.2800  -37.7240  -14.9910 C.3   841  CF5841      0.1860
      7  C4S      -16.8490  -36.6660  -14.0820 C.3   841  CF5841      0.1823
      8  C3S      -17.4940  -37.2600  -12.8260 C.3   841  CF5841      0.2184
      9  O3S      -16.7680  -36.8640  -11.6870 O.3   841  CF5841     -0.2174
     10  O4S      -17.8670  -35.8340  -14.7220 O.3   841  CF5841     -0.3135
     11  C1S      -19.1650  -35.9730  -14.1340 C.3   841  CF5841      0.3186
     12  C2S      -18.9100  -36.7290  -12.8620 C.3   841  CF5841      0.2570
     13  O2S      -19.1420  -35.8740  -11.7700 O.3   841  CF5841     -0.2130
     14  N3       -20.0870  -36.9080  -14.8210 N.pl3 841  CF5841     -0.1444
     15  C2       -19.8710  -37.6740  -15.9320 C.3   841  CF5841      0.3373
     16  C10      -21.3470  -37.2100  -14.4830 C.2   841  CF5841      0.3392
     17  N4       -22.1430  -36.7380  -13.4170 N.2   841  CF5841     -0.0431
     18  C5       -22.9050  -37.4150  -12.6900 C.3   841  CF5841      0.3566
     19  N6       -23.1130  -38.6960  -12.8030 N.3   841  CF5841     -0.1639
     20  C7       -23.2650  -39.4520  -13.9780 C.3   841  CF5841      0.1324
     21  C8       -23.1800  -38.5950  -15.2230 C.3   841  CF5841      0.2160
     22  C9       -21.8920  -38.1710  -15.3920 C.2   841  CF5841      0.1710
     23  N1       -20.9390  -38.4280  -16.2740 N.2   841  CF5841     -0.2182
     24  O8       -23.9830  -37.3570  -15.0330 O.3   841  CF5841     -0.2148
@<TRIPOS>BOND
     1     1     2    2
     2     3     2    1
     3     2     4    1
     4     2     5    1
     5    23    15    1
     6    23    22    2
     7    15    14    1
     8    22    21    1
     9    22    16    1
    10     5     6    1
    11    21    24    1
    12    21    20    1
    13     6     7    1
    14    14    16    1
    15    14    11    1
    16    10    11    1
    17    10     7    1
    18    16    17    2
    19    11    12    1
    20     7     8    1
    21    20    19    1
    22    17    18    1
    23    12     8    1
    24    12    13    1
    25     8     9    1
    26    19    18    1
