@<TRIPOS>MOLECULE
2a3m_HEM_A_1.pdb
 43 50 0 0 0
SMALL
GASTEIGER

@<TRIPOS>ATOM
      1  CHA       19.3570   -6.9590    0.1110 C.2   501  HEM501      0.0000
      2  CHB       23.8290   -8.2530    1.4690 C.2   501  HEM501      0.0000
      3  CHC       24.6410   -3.7840    3.0830 C.2   501  HEM501      0.0000
      4  CHD       19.8990   -2.9620    2.8900 C.2   501  HEM501      0.0000
      5  C1A       20.5200   -7.6750    0.2750 C.ar  501  HEM501      0.0000
      6  C2A       20.7760   -9.0040   -0.2420 C.ar  501  HEM501      0.0000
      7  C3A       22.0030   -9.3580    0.1370 C.ar  501  HEM501      0.0000
      8  C4A       22.5770   -8.2670    0.8970 C.ar  501  HEM501      0.0000
      9  CMA       22.7350  -10.6850   -0.1820 C.3   501  HEM501      0.0000
     10  CAA       19.7960   -9.8460   -1.0840 C.3   501  HEM501      0.0000
     11  CBA       18.8290  -10.6020   -0.1800 C.3   501  HEM501      0.0000
     12  CGA       17.9960  -11.5120   -1.0510 C.2   501  HEM501      0.0000
     13  O1A       17.8230  -12.7000   -0.6710 O.co2 501  HEM501      0.0000
     14  O2A       17.5190  -11.0590   -2.1280 O.co2 501  HEM501      0.0000
     15  C1B       24.4480   -7.1500    1.9910 C.2   501  HEM501      0.0000
     16  C2B       25.8360   -7.0780    2.3910 C.2   501  HEM501      0.0000
     17  C3B       26.0630   -5.8280    2.8170 C.2   501  HEM501      0.0000
     18  C4B       24.8230   -5.0870    2.7100 C.2   501  HEM501      0.0000
     19  CMB       26.8320   -8.2640    2.3210 C.3   501  HEM501      0.0000
     20  CAB       27.3870   -5.2260    3.3290 C.2   501  HEM501      0.0000
     21  CBB       28.4420   -5.2050    2.4700 C.2   501  HEM501      0.0000
     22  C1C       23.4190   -3.1960    3.2460 C.ar  501  HEM501      0.0000
     23  C2C       23.1740   -1.9410    3.9210 C.ar  501  HEM501      0.0000
     24  C3C       21.8570   -1.7060    3.8710 C.ar  501  HEM501      0.0000
     25  C4C       21.2320   -2.8190    3.1770 C.ar  501  HEM501      0.0000
     26  CMC       24.2780   -1.0860    4.5740 C.3   501  HEM501      0.0000
     27  CAC       21.0800   -0.4970    4.4530 C.2   501  HEM501      0.0000
     28  CBC       21.4280    0.8030    4.2520 C.2   501  HEM501      0.0000
     29  C1D       19.3450   -3.9430    2.1120 C.2   501  HEM501      0.0000
     30  C2D       17.9610   -3.9720    1.7500 C.2   501  HEM501      0.0000
     31  C3D       17.7700   -5.1900    0.8870 C.2   501  HEM501      0.0000
     32  C4D       19.0700   -5.8080    0.8010 C.2   501  HEM501      0.0000
     33  CMD       16.8870   -2.9650    2.1660 C.3   501  HEM501      0.0000
     34  CAD       16.4440   -5.6610    0.2710 C.3   501  HEM501      0.0000
     35  CBD       15.8170   -6.5730    1.3160 C.3   501  HEM501      0.0000
     36  CGD       14.3760   -6.8200    0.9790 C.2   501  HEM501      0.0000
     37  O1D       13.7390   -7.5900    1.7330 O.co2 501  HEM501      0.0000
     38  O2D       13.8620   -6.2800   -0.0460 O.co2 501  HEM501      0.0000
     39  NA        21.6410   -7.2490    0.9490 N.ar  501  HEM501      0.0000
     40  NB        23.8690   -5.9110    2.1920 N.2   501  HEM501      0.0000
     41  NC        22.2200   -3.7020    2.7970 N.ar  501  HEM501      0.0000
     42  ND        19.9740   -5.0360    1.5300 N.2   501  HEM501      0.0000
     43 FE         21.9310   -5.4610    1.8420 Fe    501  HEM501      0.0000
@<TRIPOS>BOND
     1    14    12   ar
     2    10     6    1
     3    10    11    1
     4    12    13   ar
     5    12    11    1
     6     6     7   ar
     7     6     5   ar
     8     9     7    1
     9    38    36   ar
    10     1     5    2
    11     1    32    1
    12     7     8   ar
    13    34    31    1
    14    34    35    1
    15     5    39   ar
    16    32    31    1
    17    32    42    2
    18    31    30    2
    19     8    39   ar
    20     8     2    2
    21    39    43    1
    22    36    35    1
    23    36    37   ar
    24     2    15    1
    25    42    43    1
    26    42    29    1
    27    30    29    1
    28    30    33    1
    29    43    40    1
    30    43    41    1
    31    15    40    2
    32    15    16    1
    33    29     4    2
    34    40    18    1
    35    19    16    1
    36    16    17    2
    37    21    20    2
    38    18    17    1
    39    18     3    2
    40    41    25   ar
    41    41    22   ar
    42    17    20    1
    43     4    25    1
    44     3    22    1
    45    25    24   ar
    46    22    23   ar
    47    24    23   ar
    48    24    27    1
    49    23    26    1
    50    28    27    2
