@<TRIPOS>MOLECULE
2a3p_HEM_A_1.pdb
 43 50 0 0 0
SMALL
GASTEIGER

@<TRIPOS>ATOM
      1  CHA       19.2820   -7.0040    0.2680 C.2   501  HEM501      0.0000
      2  CHB       23.8570   -8.1870    1.3800 C.2   501  HEM501      0.0000
      3  CHC       24.6530   -3.7140    3.0960 C.2   501  HEM501      0.0000
      4  CHD       19.8540   -2.9920    3.0330 C.2   501  HEM501      0.0000
      5  C1A       20.4460   -7.7280    0.4070 C.ar  501  HEM501      0.0000
      6  C2A       20.6710   -9.0920   -0.0140 C.ar  501  HEM501      0.0000
      7  C3A       21.9400   -9.4190    0.2940 C.ar  501  HEM501      0.0000
      8  C4A       22.5570   -8.2650    0.9200 C.ar  501  HEM501      0.0000
      9  CMA       22.6630  -10.7690    0.0490 C.3   501  HEM501      0.0000
     10  CAA       19.6040   -9.9880   -0.6780 C.3   501  HEM501      0.0000
     11  CBA       19.6450   -9.8230   -2.1890 C.3   501  HEM501      0.0000
     12  CGA       18.6410  -10.7370   -2.8570 C.2   501  HEM501      0.0000
     13  O1A       18.8790  -11.0900   -4.0440 O.co2 501  HEM501      0.0000
     14  O2A       17.6180  -11.1110   -2.2160 O.co2 501  HEM501      0.0000
     15  C1B       24.4790   -7.0970    1.9420 C.2   501  HEM501      0.0000
     16  C2B       25.8290   -7.0490    2.4460 C.2   501  HEM501      0.0000
     17  C3B       26.0650   -5.8070    2.9170 C.2   501  HEM501      0.0000
     18  C4B       24.8560   -5.0300    2.7320 C.2   501  HEM501      0.0000
     19  CMB       26.7970   -8.2440    2.4290 C.3   501  HEM501      0.0000
     20  CAB       27.3730   -5.2770    3.5610 C.2   501  HEM501      0.0000
     21  CBB       28.4460   -5.0670    2.7750 C.2   501  HEM501      0.0000
     22  C1C       23.4240   -3.1440    3.3270 C.ar  501  HEM501      0.0000
     23  C2C       23.1430   -1.9260    4.0680 C.ar  501  HEM501      0.0000
     24  C3C       21.8190   -1.7270    4.0610 C.ar  501  HEM501      0.0000
     25  C4C       21.2090   -2.8190    3.3000 C.ar  501  HEM501      0.0000
     26  CMC       24.1910   -1.0380    4.7570 C.3   501  HEM501      0.0000
     27  CAC       21.0600   -0.5550    4.7510 C.2   501  HEM501      0.0000
     28  CBC       21.1080    0.6670    4.1960 C.2   501  HEM501      0.0000
     29  C1D       19.2370   -3.9350    2.2130 C.2   501  HEM501      0.0000
     30  C2D       17.8500   -3.9440    1.7890 C.2   501  HEM501      0.0000
     31  C3D       17.6810   -5.2000    0.9360 C.2   501  HEM501      0.0000
     32  C4D       18.9700   -5.8310    0.9250 C.2   501  HEM501      0.0000
     33  CMD       16.7290   -2.9340    2.1070 C.3   501  HEM501      0.0000
     34  CAD       16.3920   -5.6850    0.2460 C.3   501  HEM501      0.0000
     35  CBD       15.7220   -6.6970    1.1730 C.3   501  HEM501      0.0000
     36  CGD       14.3060   -7.0210    0.7610 C.2   501  HEM501      0.0000
     37  O1D       13.5150   -7.3660    1.6710 O.co2 501  HEM501      0.0000
     38  O2D       13.9540   -6.9540   -0.4560 O.co2 501  HEM501      0.0000
     39  NA        21.6090   -7.2610    0.9690 N.ar  501  HEM501      0.0000
     40  NB        23.9130   -5.8530    2.1430 N.2   501  HEM501      0.0000
     41  NC        22.2240   -3.6600    2.8750 N.ar  501  HEM501      0.0000
     42  ND        19.8490   -5.0590    1.6700 N.2   501  HEM501      0.0000
     43 FE         21.8670   -5.5320    1.9440 Fe    501  HEM501      0.0000
@<TRIPOS>BOND
     1    13    12   ar
     2    12    14   ar
     3    12    11    1
     4    11    10    1
     5    10     6    1
     6    38    36   ar
     7     6     7   ar
     8     6     5   ar
     9     9     7    1
    10    34    31    1
    11    34    35    1
    12     1     5    2
    13     1    32    1
    14     7     8   ar
    15     5    39   ar
    16    36    35    1
    17    36    37   ar
    18     8    39   ar
    19     8     2    2
    20    32    31    1
    21    32    42    2
    22    31    30    2
    23    39    43    1
    24     2    15    1
    25    42    43    1
    26    42    29    1
    27    30    33    1
    28    30    29    1
    29    15    40    2
    30    15    16    1
    31    43    40    1
    32    43    41    1
    33    40    18    1
    34    29     4    2
    35    19    16    1
    36    16    17    2
    37    18    17    1
    38    18     3    2
    39    21    20    2
    40    41    25   ar
    41    41    22   ar
    42    17    20    1
    43     4    25    1
    44     3    22    1
    45    25    24   ar
    46    22    23   ar
    47    24    23   ar
    48    24    27    1
    49    23    26    1
    50    28    27    2
