@<TRIPOS>MOLECULE
2a3r_A3P_A_1.pdb
 27 29 0 0 0
SMALL
GASTEIGER

@<TRIPOS>ATOM
      1  P1        57.2320  104.8710   -2.0480 P.3   296  A3P296      0.5327
      2  O1P       58.3040  104.6640   -3.0170 O.2   296  A3P296     -0.2224
      3  O2P       55.8850  105.2600   -2.5530 O.3   296  A3P296     -0.1145
      4  O3P       57.2500  103.6920   -1.1560 O.3   296  A3P296     -0.1145
      5  P2        56.7800  111.6880    1.1470 P.3   296  A3P296      0.5327
      6  O4P       56.2150  111.6100    2.5190 O.3   296  A3P296     -0.1145
      7  O5P       57.8580  112.6900    0.9030 O.3   296  A3P296     -0.1145
      8  O6P       55.6290  111.7800    0.1870 O.2   296  A3P296     -0.2224
      9  O5'       57.4190  110.2760    0.8640 O.3   296  A3P296     -0.2675
     10  C5'       56.6290  109.1640    0.4810 C.3   296  A3P296      0.1859
     11  C4'       57.5130  107.9630    0.2650 C.3   296  A3P296      0.1796
     12  O4'       58.2170  107.5830    1.5160 O.3   296  A3P296     -0.3136
     13  C3'       56.7820  106.7010   -0.1710 C.3   296  A3P296      0.1928
     14  O3'       57.6940  106.0420   -1.0600 O.3   296  A3P296     -0.2673
     15  C2'       56.5690  105.9830    1.1530 C.3   296  A3P296      0.2543
     16  O2'       56.1390  104.6300    1.0700 O.3   296  A3P296     -0.2131
     17  C1'       57.9390  106.2060    1.8190 C.3   296  A3P296      0.3185
     18  N9        57.9700  106.0360    3.2990 N.pl3 296  A3P296     -0.1439
     19  C8        57.1230  106.5620    4.2610 C.3   296  A3P296      0.3377
     20  N7        57.4240  106.2230    5.4940 N.2   296  A3P296     -0.2095
     21  C5        58.5430  105.4270    5.3530 C.2   296  A3P296      0.2526
     22  C6        59.3770  104.7220    6.2950 C.2   296  A3P296      0.4393
     23  N6        59.1710  104.7390    7.6140 N.pl3 296  A3P296      0.2180
     24  N1        60.4480  104.0000    5.8120 N.2   296  A3P296      0.0021
     25  C2        60.6790  103.9670    4.4610 C.3   296  A3P296      0.5254
     26  N3        59.9590  104.5810    3.4800 N.2   296  A3P296     -0.0055
     27  C4        58.9000  105.3020    3.9950 C.2   296  A3P296      0.3518
@<TRIPOS>BOND
     1     2     1    2
     2     3     1    1
     3     1     4    1
     4     1    14    1
     5    14    13    1
     6    13    11    1
     7    13    15    1
     8     8     5    2
     9    11    10    1
    10    11    12    1
    11    10     9    1
    12     9     5    1
    13     7     5    1
    14    16    15    1
    15     5     6    1
    16    15    17    1
    17    12    17    1
    18    17    18    1
    19    18    27    1
    20    18    19    1
    21    26    27    2
    22    26    25    1
    23    27    21    1
    24    19    20    1
    25    25    24    1
    26    21    20    2
    27    21    22    1
    28    24    22    2
    29    22    23    1
