@<TRIPOS>MOLECULE
2a3r_LDP_A_1.pdb
 11 11 0 0 0
SMALL
GASTEIGER

@<TRIPOS>ATOM
      1  C7        48.2950  117.5540   -0.2420 C.3   297  LDP297      0.0469
      2  C1        49.7590  117.2940   -0.8340 C.ar  297  LDP297     -0.0173
      3  C4        52.4130  116.8640   -2.0410 C.ar  297  LDP297      0.2342
      4  C2        50.8700  116.7520    0.0100 C.ar  297  LDP297      0.0412
      5  C6        50.0430  117.5990   -2.2820 C.ar  297  LDP297     -0.0007
      6  C5        51.3300  117.3860   -2.8570 C.ar  297  LDP297      0.0451
      7  C3        52.1980  116.5350   -0.5860 C.ar  297  LDP297      0.2339
      8  O1        53.2570  116.0400    0.1410 O.3   297  LDP297     -0.2832
      9  O2        53.6360  116.6810   -2.6480 O.3   297  LDP297     -0.2831
     10  C8        47.0850  117.2280   -1.2820 C.3   297  LDP297      0.1140
     11  N1        47.0110  118.2190   -2.4360 N.3   297  LDP297     -0.1310
@<TRIPOS>BOND
     1     6     5   ar
     2     6     3   ar
     3     9     3    1
     4    11    10    1
     5     5     2   ar
     6     3     7   ar
     7    10     1    1
     8     2     1    1
     9     2     4   ar
    10     7     4   ar
    11     7     8    1
