@<TRIPOS>MOLECULE
2a3u_MA4_A_1.pdb
 35 37 0 0 0
SMALL
GASTEIGER

@<TRIPOS>ATOM
      1  C1        60.3290   52.8960    2.1750 C.3   400  MA4400      0.2695
      2  C2        60.8850   52.2230    0.9020 C.3   400  MA4400      0.2406
      3  C3        60.4730   50.7520    0.8320 C.3   400  MA4400      0.2198
      4  C4        60.8850   50.0550    2.0970 C.3   400  MA4400      0.2144
      5  C5        60.3360   50.8210    3.3450 C.3   400  MA4400      0.1835
      6  C6        60.7520   50.2340    4.5360 C.3   400  MA4400      0.2142
      7  O2        60.3850   52.9320   -0.2410 O.3   400  MA4400     -0.2149
      8  O3        61.1100   50.2000   -0.3790 O.3   400  MA4400     -0.2174
      9  O5        60.7570   52.1860    3.3460 O.3   400  MA4400     -0.3256
     10  O6        62.1810   50.2830    4.6720 O.3   400  MA4400     -0.2176
     11  O1        58.9040   52.8760    2.0740 O.3   400  MA4400     -0.3257
     12  O4        60.3720   48.7520    2.1160 O.3   400  MA4400     -0.2176
     13  C10       55.6030   55.3090    2.5890 C.3   400  MA4400      0.2695
     14  C20       56.4010   55.6020    1.3110 C.3   400  MA4400      0.2404
     15  C30       57.2340   54.3380    1.0580 C.3   400  MA4400      0.2167
     16  C40       58.1240   54.1050    2.2740 C.3   400  MA4400      0.1804
     17  C50       57.3280   53.9180    3.5040 C.3   400  MA4400      0.1803
     18  C60       58.1800   53.7610    4.7670 C.3   400  MA4400      0.2141
     19  O10       54.7980   56.4400    2.9000 O.3   400  MA4400     -0.3286
     20  O20       55.5480   55.8440    0.2220 O.3   400  MA4400     -0.2149
     21  O30       58.0260   54.5570   -0.1000 O.3   400  MA4400     -0.2175
     22  O50       56.4890   55.0630    3.7070 O.3   400  MA4400     -0.3257
     23  O60       59.0720   54.9370    4.8600 O.3   400  MA4400     -0.2176
     24  C11       53.7780   56.1150    3.8690 C.3   400  MA4400      0.1449
     25  C21       52.4960   55.9030    3.1160 C.3   400  MA4400      0.0325
     26  C31       51.4660   55.5480    4.1800 C.3   400  MA4400      0.0072
     27  C41       50.0750   55.7890    3.6160 C.3   400  MA4400      0.0258
     28  C51       48.9570   55.4540    4.5650 C.2   400  MA4400     -0.0304
     29  C61       49.1580   55.1670    6.0110 C.2   400  MA4400     -0.0267
     30  C12       47.9150   54.8570    6.7860 C.3   400  MA4400      0.0433
     31  C22       47.9690   55.5990    8.1350 C.2   400  MA4400     -0.0267
     32  C32       47.0850   55.0360    9.2780 C.2   400  MA4400     -0.0304
     33  C42       46.4060   53.7050    9.0260 C.3   400  MA4400      0.0257
     34  C52       47.2680   52.7740    8.1840 C.3   400  MA4400      0.0053
     35  C62       47.7520   53.3510    6.8730 C.3   400  MA4400      0.0090
@<TRIPOS>BOND
     1     8     3    1
     2     7     2    1
     3    21    15    1
     4    20    14    1
     5     3     2    1
     6     3     4    1
     7     2     1    1
     8    15    14    1
     9    15    16    1
    10    14    13    1
    11    11     1    1
    12    11    16    1
    13     4    12    1
    14     4     5    1
    15     1     9    1
    16    16    17    1
    17    13    19    1
    18    13    22    1
    19    19    24    1
    20    25    24    1
    21    25    26    1
    22     5     9    1
    23     5     6    1
    24    17    22    1
    25    17    18    1
    26    27    26    1
    27    27    28    1
    28     6    10    1
    29    28    29    2
    30    18    23    1
    31    29    30    1
    32    30    35    1
    33    30    31    1
    34    35    34    1
    35    31    32    2
    36    34    33    1
    37    33    32    1
