@<TRIPOS>MOLECULE
2a3u_TSL_A_1.pdb
 15 14 0 0 0
SMALL
GASTEIGER

@<TRIPOS>ATOM
      1  C14       29.6200   66.5810    2.2810 C.3   501  TSL501      0.0259
      2  C2        31.0550   66.4830    2.8080 C.3   501  TSL501      0.1391
      3  S1        32.1870   66.3640    1.3750 S.3   501  TSL501     -0.0192
      4  O12       31.9720   64.9350    0.9720 O.3   501  TSL501     -0.0782
      5  O13       33.5250   66.4690    2.0430 O.3   501  TSL501     -0.0782
      6  C20       31.4040   67.7470    3.5980 C.3   501  TSL501      0.0259
      7  C3        31.2220   65.2300    3.6750 C.3   501  TSL501      0.2250
      8  C9        30.2700   65.2780    4.8740 C.2   501  TSL501      0.3882
      9  O11       29.2150   64.6460    4.8550 O.co2 501  TSL501     -0.2434
     10  O10       30.5440   65.9620    5.8590 O.co2 501  TSL501     -0.2434
     11  N4        32.6140   65.1290    4.1430 N.2   501  TSL501     -0.2619
     12  C5        33.0620   64.0470    4.7800 C.2   501  TSL501      0.0757
     13  C6        32.3710   62.8610    5.0050 C.3   501  TSL501      0.1186
     14  C7        32.9020   61.8650    5.8180 C.2   501  TSL501      0.2138
     15  O8        33.9500   62.0310    6.4410 O.2   501  TSL501     -0.2879
@<TRIPOS>BOND
     1     4     3    1
     2     3     5    1
     3     3     2    1
     4     1     2    1
     5     2     6    1
     6     2     7    1
     7     7    11    1
     8     7     8    1
     9    11    12    2
    10    12    13    1
    11     9     8   ar
    12     8    10   ar
    13    13    14    1
    14    14    15    2
