@<TRIPOS>MOLECULE
2a3w_CPJ_A_1.pdb
 30 31 0 0 0
SMALL
GASTEIGER

@<TRIPOS>ATOM
      1  O31       11.2230   17.2110  -36.7420 O.co2 341  CPJ341     -0.2402
      2  C29       11.2800   16.2740  -35.9100 C.2   341  CPJ341      0.4151
      3  O30       12.2260   16.1510  -35.1000 O.co2 341  CPJ341     -0.2402
      4  C26       10.1750   15.2410  -35.8940 C.3   341  CPJ341      0.2840
      5  O27        8.9080   15.9210  -36.0060 O.3   341  CPJ341     -0.3221
      6  C28        7.7520   15.1250  -35.7240 C.3   341  CPJ341      0.1912
      7  C32       10.3870   14.3130  -37.0940 C.3   341  CPJ341      0.0737
      8  O25       10.2770   14.4960  -34.6650 O.3   341  CPJ341     -0.3221
      9  C24        9.1610   13.6570  -34.3430 C.3   341  CPJ341      0.1912
     10  C23        7.8930   14.4960  -34.3420 C.3   341  CPJ341      0.2294
     11  O22        8.0570   15.5620  -33.4130 O.3   341  CPJ341     -0.4320
     12  C20        6.8080   16.1750  -32.9800 C.2   341  CPJ341      0.4212
     13  O21        5.7370   15.7490  -33.4000 O.2   341  CPJ341     -0.2246
     14  N17        6.9240   17.1900  -32.1200 N.am  341  CPJ341     -0.1668
     15  C16        5.7920   17.9150  -31.5780 C.3   341  CPJ341      0.1421
     16  C15        5.0400   17.0550  -30.5820 C.3   341  CPJ341      0.1421
     17  N14        3.8620   17.7090  -30.0550 N.am  341  CPJ341     -0.1668
     18  C12        3.7540   17.9330  -28.7510 C.2   341  CPJ341      0.4212
     19  O13        4.6230   17.6180  -27.9450 O.2   341  CPJ341     -0.2246
     20  O11        2.5400   18.5800  -28.2870 O.3   341  CPJ341     -0.4320
     21  C3         2.5480   18.7540  -26.8720 C.3   341  CPJ341      0.2294
     22  C2         2.7800   20.2230  -26.5370 C.3   341  CPJ341      0.1912
     23  O1         1.6850   20.9980  -27.0270 O.3   341  CPJ341     -0.3221
     24  C4         1.1950   18.3090  -26.3260 C.3   341  CPJ341      0.1912
     25  O5         0.1710   19.1720  -26.8310 O.3   341  CPJ341     -0.3221
     26  C6         0.3850   20.5740  -26.5810 C.3   341  CPJ341      0.2840
     27  C10        0.1740   20.8940  -25.1000 C.3   341  CPJ341      0.0737
     28  C7        -0.6130   21.3760  -27.3690 C.2   341  CPJ341      0.4151
     29  O8        -1.6340   20.8150  -27.8300 O.co2 341  CPJ341     -0.2402
     30  O9        -0.3770   22.5900  -27.5270 O.co2 341  CPJ341     -0.2402
@<TRIPOS>BOND
     1     7     4    1
     2     1     2   ar
     3     5     4    1
     4     5     6    1
     5     2     4    1
     6     2     3   ar
     7     4     8    1
     8     6    10    1
     9     8     9    1
    10     9    10    1
    11    10    11    1
    12    11    12    1
    13    13    12    2
    14    12    14   am
    15    14    15    1
    16    15    16    1
    17    16    17    1
    18    17    18   am
    19    18    20    1
    20    18    19    2
    21    20    21    1
    22    29    28   ar
    23    30    28   ar
    24    28    26    1
    25    23    26    1
    26    23    22    1
    27    21    22    1
    28    21    24    1
    29    25    26    1
    30    25    24    1
    31    26    27    1
