@<TRIPOS>MOLECULE
2a3x_CPK_C_1.pdb
 32 34 0 0 0
SMALL
GASTEIGER

@<TRIPOS>ATOM
      1  O30      -22.1080  105.9470   54.0200 O.co2 402  CPK402     -0.2402
      2  C29      -21.2180  106.3960   53.2640 C.2   402  CPK402      0.4151
      3  O31      -20.8160  107.5810   53.3160 O.co2 402  CPK402     -0.2402
      4  C26      -20.5860  105.4870   52.2440 C.3   402  CPK402      0.2840
      5  O27      -21.2700  104.2250   52.2250 O.3   402  CPK402     -0.3221
      6  C28      -20.8610  103.3390   51.1720 C.3   402  CPK402      0.1912
      7  C32      -19.1170  105.2970   52.6300 C.3   402  CPK402      0.0737
      8  O25      -20.6910  106.1370   50.9750 O.3   402  CPK402     -0.3221
      9  C24      -20.2590  105.3440   49.8700 C.3   402  CPK402      0.1912
     10  C23      -21.0300  104.0290   49.8260 C.3   402  CPK402      0.2294
     11  O22      -22.4190  104.2780   49.6580 O.3   402  CPK402     -0.4330
     12  C20      -22.8640  104.6080   48.3350 C.2   402  CPK402      0.4050
     13  O21      -22.0470  104.4060   47.1760 O.2   402  CPK402     -0.2262
     14  N17      -24.3020  104.7530   48.1940 N.am  402  CPK402     -0.2425
     15  C16      -24.7830  105.6020   49.2860 C.3   402  CPK402      0.1183
     16  C15      -26.3000  105.6930   49.1710 C.3   402  CPK402      0.1183
     17  C18      -24.8540  103.4140   47.9690 C.3   402  CPK402      0.1183
     18  C19      -26.3710  103.5380   47.8700 C.3   402  CPK402      0.1183
     19  N14      -26.7860  104.3240   49.0270 N.am  402  CPK402     -0.2425
     20  C12      -28.2380  104.2830   49.1080 C.2   402  CPK402      0.4050
     21  O13      -28.8740  103.0740   49.5260 O.2   402  CPK402     -0.2262
     22  O11      -28.9400  105.5300   49.1190 O.3   402  CPK402     -0.4330
     23  C3       -30.3480  105.4330   49.2820 C.3   402  CPK402      0.2294
     24  C2       -30.8650  106.7860   49.7570 C.3   402  CPK402      0.1912
     25  O1       -30.6140  107.7950   48.7670 O.3   402  CPK402     -0.3221
     26  C4       -30.9710  105.1340   47.9200 C.3   402  CPK402      0.1912
     27  O5       -30.7090  106.2020   46.9970 O.3   402  CPK402     -0.3221
     28  C6       -31.0950  107.5140   47.4390 C.3   402  CPK402      0.2840
     29  C10      -32.6200  107.6310   47.3850 C.3   402  CPK402      0.0737
     30  C7       -30.5060  108.5360   46.4880 C.2   402  CPK402      0.4151
     31  O8       -29.5440  109.2500   46.8640 O.co2 402  CPK402     -0.2402
     32  O9       -31.0040  108.6350   45.3440 O.co2 402  CPK402     -0.2402
@<TRIPOS>BOND
     1    32    30   ar
     2    30    31   ar
     3    30    28    1
     4    27    28    1
     5    27    26    1
     6    13    12    2
     7    29    28    1
     8    28    25    1
     9    18    17    1
    10    18    19    1
    11    26    23    1
    12    17    14    1
    13    14    12   am
    14    14    15    1
    15    12    11    1
    16    25    24    1
    17    19    20   am
    18    19    16    1
    19    20    22    1
    20    20    21    2
    21    22    23    1
    22    16    15    1
    23    23    24    1
    24    11    10    1
    25    10     9    1
    26    10     6    1
    27     9     8    1
    28     8     4    1
    29     6     5    1
    30     5     4    1
    31     4     7    1
    32     4     2    1
    33     2     3   ar
    34     2     1   ar
