@<TRIPOS>MOLECULE
2a3y_CPJ_A_1.pdb
 13 13 0 0 0
SMALL
GASTEIGER

@<TRIPOS>ATOM
      1  C12       -4.0280   22.2840   31.9150 C.2   610  CPJ610      0.4182
      2  O13       -3.7680   23.4640   31.7470 O.2   610  CPJ610     -0.2375
      3  O11       -5.3660   21.7900   31.6300 O.3   610  CPJ610     -0.4394
      4  C3        -5.5750   20.4090   31.3460 C.3   610  CPJ610      0.2283
      5  C2        -6.8850   19.9480   31.9700 C.3   610  CPJ610      0.1912
      6  O1        -7.1510   18.5860   31.6160 O.3   610  CPJ610     -0.3221
      7  C4        -5.6870   20.2080   29.8410 C.3   610  CPJ610      0.1912
      8  O5        -5.9860   18.8390   29.5460 O.3   610  CPJ610     -0.3221
      9  C6        -7.1290   18.2710   30.2120 C.3   610  CPJ610      0.2840
     10  C10       -7.0110   16.7580   30.0860 C.3   610  CPJ610      0.0737
     11  C7        -8.4230   18.6960   29.5450 C.2   610  CPJ610      0.4151
     12  O8        -8.4040   19.0320   28.3400 O.co2 610  CPJ610     -0.2402
     13  O9        -9.4780   18.6920   30.2170 O.co2 610  CPJ610     -0.2402
@<TRIPOS>BOND
     1    12    11   ar
     2    11     9    1
     3    11    13   ar
     4     8     7    1
     5     8     9    1
     6     7     4    1
     7    10     9    1
     8     9     6    1
     9     4     3    1
    10     4     5    1
    11     6     5    1
    12     3     1    1
    13     2     1    2
