@<TRIPOS>MOLECULE
2a3z_ATP_A_1.pdb
 31 33 0 0 0
SMALL
GASTEIGER

@<TRIPOS>ATOM
      1  PG        59.5980   -4.7300   14.5900 P.3   1380  ATP1380     0.5373
      2  O1G       58.9540   -3.7260   13.6610 O.2   1380  ATP1380    -0.2221
      3  O2G       59.8750   -6.0780   13.8940 O.3   1380  ATP1380    -0.1143
      4  O3G       60.7710   -4.0800   15.2530 O.3   1380  ATP1380    -0.1143
      5  PB        58.2190   -6.2310   16.7660 P.3   1380  ATP1380     0.2277
      6  O1B       59.3690   -7.1480   16.6080 O.2   1380  ATP1380    -0.5168
      7  O2B       57.8110   -5.5990   18.0390 O.3   1380  ATP1380    -0.4368
      8  O3B       58.4960   -4.9520   15.7580 O.3   1380  ATP1380    -0.2258
      9  PA        56.2380   -8.2330   16.0510 P.3   1380  ATP1380     0.2189
     10  O1A       56.7370   -9.1650   14.9870 O.2   1380  ATP1380    -0.5170
     11  O2A       56.3680   -8.7800   17.4560 O.3   1380  ATP1380    -0.4371
     12  O3A       56.9320   -6.7930   15.9320 O.3   1380  ATP1380    -0.2700
     13  O5'       54.6580   -7.9340   15.7990 O.3   1380  ATP1380    -0.3112
     14  C5'       53.9820   -6.8730   16.4800 C.3   1380  ATP1380     0.1813
     15  C4'       52.9870   -6.2350   15.5320 C.3   1380  ATP1380     0.1821
     16  O4'       52.2660   -7.3240   14.9800 O.3   1380  ATP1380    -0.3135
     17  C3'       51.9680   -5.3460   16.2510 C.3   1380  ATP1380     0.2184
     18  O3'       51.7380   -4.1700   15.4530 O.3   1380  ATP1380    -0.2174
     19  C2'       50.7110   -6.2010   16.2560 C.3   1380  ATP1380     0.2570
     20  O2'       49.5300   -5.3630   16.2210 O.3   1380  ATP1380    -0.2130
     21  C1'       50.8850   -6.9880   14.9430 C.3   1380  ATP1380     0.3186
     22  N9        50.0350   -8.2010   14.9210 N.pl3 1380  ATP1380    -0.1439
     23  C8        50.1200   -9.1980   15.8420 C.3   1380  ATP1380     0.3377
     24  N7        49.2270  -10.1730   15.5770 N.2   1380  ATP1380    -0.2095
     25  C5        48.5340   -9.7800   14.5010 C.2   1380  ATP1380     0.2526
     26  C6        47.4540  -10.3660   13.7030 C.2   1380  ATP1380     0.4393
     27  N6        46.8990  -11.5620   14.0250 N.pl3 1380  ATP1380     0.2180
     28  N1        47.0700   -9.6910   12.6210 N.2   1380  ATP1380     0.0021
     29  C2        47.5960   -8.5060   12.2710 C.3   1380  ATP1380     0.5254
     30  N3        48.5920   -7.9050   12.9360 N.2   1380  ATP1380    -0.0055
     31  C4        49.0850   -8.4910   14.0570 C.2   1380  ATP1380     0.3518
@<TRIPOS>BOND
     1    29    28    1
     2    29    30    1
     3    28    26    2
     4    30    31    2
     5     2     1    2
     6    26    27    1
     7    26    25    1
     8     3     1    1
     9    31    25    1
    10    31    22    1
    11    25    24    2
    12     1     4    1
    13     1     8    1
    14    22    21    1
    15    22    23    1
    16    21    16    1
    17    21    19    1
    18    16    15    1
    19    10     9    2
    20    18    17    1
    21    15    17    1
    22    15    14    1
    23    24    23    1
    24     8     5    1
    25    13     9    1
    26    13    14    1
    27    12     9    1
    28    12     5    1
    29     9    11    1
    30    20    19    1
    31    17    19    1
    32     6     5    2
    33     5     7    1
