@<TRIPOS>MOLECULE
2a40_ATP_A_1.pdb
 31 33 0 0 0
SMALL
GASTEIGER

@<TRIPOS>ATOM
      1  PG        27.7350    4.1510   47.5220 P.3   1379  ATP1379     0.5373
      2  O1G       28.4480    3.2650   48.5360 O.3   1379  ATP1379    -0.1143
      3  O2G       28.3360    5.5320   47.4610 O.3   1379  ATP1379    -0.1143
      4  O3G       27.4420    3.4380   46.2240 O.2   1379  ATP1379    -0.2221
      5  PB        25.2240    5.5770   48.1940 P.3   1379  ATP1379     0.2277
      6  O1B       25.6270    6.6520   47.2310 O.2   1379  ATP1379    -0.5168
      7  O2B       23.8300    5.0560   48.1350 O.3   1379  ATP1379    -0.4368
      8  O3B       26.2200    4.2840   48.1350 O.3   1379  ATP1379    -0.2258
      9  PA        25.2310    7.5830   50.2870 P.3   1379  ATP1379     0.2189
     10  O1A       26.3930    8.4870   50.1970 O.3   1379  ATP1379    -0.4371
     11  O2A       23.9180    8.0880   49.8310 O.2   1379  ATP1379    -0.5170
     12  O3A       25.5860    6.1090   49.6760 O.3   1379  ATP1379    -0.2700
     13  O5'       25.0710    7.2560   51.8420 O.3   1379  ATP1379    -0.3112
     14  C5'       24.0640    6.3420   52.3210 C.3   1379  ATP1379     0.1813
     15  C4'       24.6410    5.6280   53.5450 C.3   1379  ATP1379     0.1821
     16  O4'       24.9320    6.6900   54.4190 O.3   1379  ATP1379    -0.3135
     17  C3'       23.6600    4.7110   54.2940 C.3   1379  ATP1379     0.2184
     18  O3'       24.3560    3.5410   54.7840 O.3   1379  ATP1379    -0.2174
     19  C2'       23.2560    5.5500   55.4810 C.3   1379  ATP1379     0.2570
     20  O2'       22.9420    4.7580   56.6470 O.3   1379  ATP1379    -0.2130
     21  C1'       24.5160    6.3690   55.7370 C.3   1379  ATP1379     0.3186
     22  N9        24.2290    7.6260   56.5150 N.pl3 1379  ATP1379    -0.1439
     23  C8        23.3660    8.6020   56.1580 C.3   1379  ATP1379     0.3377
     24  N7        23.3170    9.5740   57.1110 N.2   1379  ATP1379    -0.2095
     25  C5        24.1470    9.2030   58.0800 C.2   1379  ATP1379     0.2526
     26  C6        24.5580    9.7660   59.3650 C.2   1379  ATP1379     0.4393
     27  N6        24.0470   10.9620   59.7560 N.pl3 1379  ATP1379     0.2180
     28  N1        25.4490    9.0780   60.0970 N.2   1379  ATP1379     0.0021
     29  C2        25.9600    7.9000   59.6690 C.3   1379  ATP1379     0.5254
     30  N3        25.6240    7.3050   58.5160 N.2   1379  ATP1379    -0.0055
     31  C4        24.7260    7.9150   57.6950 C.2   1379  ATP1379     0.3518
@<TRIPOS>BOND
     1     4     1    2
     2     6     5    2
     3     3     1    1
     4     1     8    1
     5     1     2    1
     6     7     5    1
     7     8     5    1
     8     5    12    1
     9    12     9    1
    10    11     9    2
    11    10     9    1
    12     9    13    1
    13    13    14    1
    14    14    15    1
    15    15    17    1
    16    15    16    1
    17    17    18    1
    18    17    19    1
    19    16    21    1
    20    19    21    1
    21    19    20    1
    22    21    22    1
    23    23    22    1
    24    23    24    1
    25    22    31    1
    26    24    25    2
    27    31    25    1
    28    31    30    2
    29    25    26    1
    30    30    29    1
    31    26    27    1
    32    26    28    2
    33    29    28    1
