@<TRIPOS>MOLECULE
2a41_ATP_A_1.pdb
 31 33 0 0 0
SMALL
GASTEIGER

@<TRIPOS>ATOM
      1  PG        -3.1930   19.1970   69.9540 P.3   1380  ATP1380     0.5373
      2  O1G       -2.2600   19.9690   69.0410 O.2   1380  ATP1380    -0.2221
      3  O2G       -4.6200   19.1310   69.4430 O.3   1380  ATP1380    -0.1143
      4  O3G       -2.5480   17.9110   70.3910 O.3   1380  ATP1380    -0.1143
      5  PB        -4.4830   20.5220   72.2100 P.3   1380  ATP1380     0.2277
      6  O1B       -5.5310   19.4340   72.2180 O.2   1380  ATP1380    -0.5168
      7  O2B       -3.8870   20.9660   73.5240 O.3   1380  ATP1380    -0.4368
      8  O3B       -3.1890   20.0460   71.3500 O.3   1380  ATP1380    -0.2258
      9  PA        -6.2840   22.7670   71.7550 P.3   1380  ATP1380     0.2189
     10  O1A       -7.4040   22.6880   70.7380 O.2   1380  ATP1380    -0.5170
     11  O2A       -6.5740   22.7230   73.2220 O.3   1380  ATP1380    -0.4371
     12  O3A       -5.0330   21.7900   71.3630 O.3   1380  ATP1380    -0.2700
     13  O5'       -5.6620   24.2280   71.4760 O.3   1380  ATP1380    -0.3112
     14  C5'       -4.6940   24.8510   72.3120 C.3   1380  ATP1380     0.1813
     15  C4'       -4.1180   25.9760   71.4730 C.3   1380  ATP1380     0.1821
     16  O4'       -5.2230   26.7420   70.9830 O.3   1380  ATP1380    -0.3135
     17  C3'       -3.2100   26.9390   72.2330 C.3   1380  ATP1380     0.2184
     18  O3'       -2.0140   27.1590   71.4810 O.3   1380  ATP1380    -0.2174
     19  C2'       -4.0090   28.2230   72.3060 C.3   1380  ATP1380     0.2570
     20  O2'       -3.2440   29.4400   72.3500 O.3   1380  ATP1380    -0.2130
     21  C1'       -4.8740   28.1220   71.0670 C.3   1380  ATP1380     0.3186
     22  N9        -6.0670   28.9470   71.2820 N.pl3 1380  ATP1380    -0.1439
     23  C8        -6.9110   28.8700   72.3270 C.3   1380  ATP1380     0.3377
     24  N7        -7.8780   29.8170   72.2150 N.2   1380  ATP1380    -0.2095
     25  C5        -7.6460   30.4930   71.0650 C.2   1380  ATP1380     0.2526
     26  C6        -8.2730   31.6050   70.3140 C.2   1380  ATP1380     0.4393
     27  N6        -9.3900   32.2250   70.7480 N.pl3 1380  ATP1380     0.2180
     28  N1        -7.6820   31.9960   69.1730 N.2   1380  ATP1380     0.0021
     29  C2        -6.5760   31.4070   68.7170 C.3   1380  ATP1380     0.5254
     30  N3        -5.9660   30.4010   69.3330 N.2   1380  ATP1380    -0.0055
     31  C4        -6.4450   29.9120   70.4750 C.2   1380  ATP1380     0.3518
@<TRIPOS>BOND
     1    29    28    1
     2    29    30    1
     3     2     1    2
     4    28    26    2
     5    30    31    2
     6     3     1    1
     7     1     4    1
     8     1     8    1
     9    26    27    1
    10    26    25    1
    11    31    25    1
    12    31    22    1
    13    10     9    2
    14    16    21    1
    15    16    15    1
    16    25    24    2
    17    21    22    1
    18    21    19    1
    19    22    23    1
    20     8     5    1
    21    12     9    1
    22    12     5    1
    23    15    17    1
    24    15    14    1
    25    13     9    1
    26    13    14    1
    27    18    17    1
    28     9    11    1
    29     5     6    2
    30     5     7    1
    31    24    23    1
    32    17    19    1
    33    19    20    1
