@<TRIPOS>MOLECULE
2a42_ATP_A_1.pdb
 31 33 0 0 0
SMALL
GASTEIGER

@<TRIPOS>ATOM
      1  PG        59.5550   -4.8320   14.6700 P.3   1380  ATP1380     0.5373
      2  O1G       58.8790   -3.8860   13.7060 O.2   1380  ATP1380    -0.2221
      3  O2G       59.8220   -6.1710   14.0970 O.3   1380  ATP1380    -0.1143
      4  O3G       60.6990   -4.1960   15.3980 O.3   1380  ATP1380    -0.1143
      5  PB        58.0970   -6.2980   16.7390 P.3   1380  ATP1380     0.2277
      6  O1B       59.1480   -7.3500   16.6720 O.2   1380  ATP1380    -0.5168
      7  O2B       57.7220   -5.7840   18.0960 O.3   1380  ATP1380    -0.4368
      8  O3B       58.3680   -5.0210   15.7770 O.3   1380  ATP1380    -0.2258
      9  PA        56.1070   -8.3350   16.0920 P.3   1380  ATP1380     0.2189
     10  O1A       56.6250   -9.2040   14.9930 O.2   1380  ATP1380    -0.5170
     11  O2A       56.2040   -8.8490   17.4860 O.3   1380  ATP1380    -0.4371
     12  O3A       56.7550   -6.8600   16.0520 O.3   1380  ATP1380    -0.2700
     13  O5'       54.5720   -7.9980   15.7360 O.3   1380  ATP1380    -0.3112
     14  C5'       53.8030   -7.0460   16.4910 C.3   1380  ATP1380     0.1813
     15  C4'       52.7940   -6.3810   15.5440 C.3   1380  ATP1380     0.1821
     16  O4'       52.0850   -7.4640   14.9480 O.3   1380  ATP1380    -0.3135
     17  C3'       51.7750   -5.5060   16.2700 C.3   1380  ATP1380     0.2184
     18  O3'       51.5690   -4.3230   15.5030 O.3   1380  ATP1380    -0.2174
     19  C2'       50.5190   -6.3560   16.2550 C.3   1380  ATP1380     0.2570
     20  O2'       49.3290   -5.5530   16.3900 O.3   1380  ATP1380    -0.2130
     21  C1'       50.7000   -7.1260   14.9520 C.3   1380  ATP1380     0.3186
     22  N9        49.9260   -8.3710   14.9740 N.pl3 1380  ATP1380    -0.1439
     23  C8        50.0270   -9.3680   15.8790 C.3   1380  ATP1380     0.3377
     24  N7        49.1100  -10.3460   15.6030 N.2   1380  ATP1380    -0.2095
     25  C5        48.4640   -9.9780   14.4790 C.2   1380  ATP1380     0.2526
     26  C6        47.3650  -10.5290   13.6750 C.2   1380  ATP1380     0.4393
     27  N6        46.8370  -11.7360   14.0050 N.pl3 1380  ATP1380     0.2180
     28  N1        46.9950   -9.8280   12.6010 N.2   1380  ATP1380     0.0021
     29  C2        47.5150   -8.6280   12.2540 C.3   1380  ATP1380     0.5254
     30  N3        48.5060   -8.0430   12.9580 N.2   1380  ATP1380    -0.0055
     31  C4        48.9850   -8.6580   14.0680 C.2   1380  ATP1380     0.3518
@<TRIPOS>BOND
     1    29    28    1
     2    29    30    1
     3    28    26    2
     4    30    31    2
     5    26    27    1
     6    26    25    1
     7     2     1    2
     8    31    25    1
     9    31    22    1
    10     3     1    1
    11    25    24    2
    12     1     4    1
    13     1     8    1
    14    16    21    1
    15    16    15    1
    16    21    22    1
    17    21    19    1
    18    22    23    1
    19    10     9    2
    20    18    17    1
    21    15    17    1
    22    15    14    1
    23    24    23    1
    24    13     9    1
    25    13    14    1
    26     8     5    1
    27    12     9    1
    28    12     5    1
    29     9    11    1
    30    19    17    1
    31    19    20    1
    32     6     5    2
    33     5     7    1
