@<TRIPOS>MOLECULE
2a45_0G6_B_1.pdb
 30 31 0 0 0
SMALL
GASTEIGER

@<TRIPOS>ATOM
      1  N         33.1180   11.3680  -49.6660 N.3     1  0G61       -0.1228
      2  CA        32.2930   10.6500  -50.6650 C.3     1  0G61        0.1721
      3  C         30.8590   11.1210  -50.3910 C.2     1  0G61        0.2437
      4  O         30.5960   12.3290  -50.3690 O.2     1  0G61       -0.2733
      5  CB        32.7270   11.0070  -52.1050 C.3     1  0G61        0.0547
      6  CG        31.9830   10.2110  -53.1930 C.ar    1  0G61       -0.0202
      7  CD1       32.5740    9.2140  -53.9530 C.ar    1  0G61       -0.0042
      8  CD2       30.6270   10.2920  -53.2510 C.ar    1  0G61       -0.0042
      9  CE1       31.8200    8.3070  -54.7350 C.ar    1  0G61       -0.0003
     10  CE2       29.8280    9.4420  -53.9950 C.ar    1  0G61       -0.0003
     11  CZ        30.4280    8.4160  -54.7280 C.ar    1  0G61       -0.0000
     12  N1        29.9320   10.1860  -50.1070 N.am    1  0G61       -0.2718
     13  CA1       28.5380   10.5540  -49.8320 C.3     1  0G61        0.1535
     14  C1        28.3680   11.0610  -48.4170 C.2     1  0G61        0.2595
     15  O1        29.2150   10.8370  -47.5440 O.2     1  0G61       -0.2716
     16  CB1       27.7980    9.2610  -50.0140 C.3     1  0G61        0.0310
     17  CG1       28.7590    8.2930  -49.3900 C.3     1  0G61        0.0237
     18  CD        30.1040    8.7300  -50.0190 C.3     1  0G61        0.0939
     19  N2        27.2640   11.7660  -48.1940 N.am    1  0G61       -0.2032
     20  CA2       26.9420   12.3070  -46.8580 C.3     1  0G61        0.1257
     21  C2        25.5210   11.7810  -46.6170 C.3     1  0G61        0.1718
     22  O2        25.0760   12.0630  -45.5210 O.3     1  0G61       -0.2213
     23  CB2       26.9550   13.8570  -46.8370 C.3     1  0G61        0.0280
     24  CG2       28.2690   14.5810  -47.3530 C.3     1  0G61        0.0488
     25  CD3       28.6650   14.5100  -48.8140 C.3     1  0G61        0.2205
     26  NE        28.8630   15.8040  -49.5440 N.pl3   1  0G61       -0.0865
     27  CZ1       28.9540   16.9960  -49.0370 C.cat   1  0G61        0.5346
     28  NH1       29.1540   18.0260  -49.8360 N.pl3   1  0G61        0.1354
     29  NH2       28.9850   17.1320  -47.7740 N.pl3   1  0G61        0.1354
     30  C3        25.4810   10.2220  -46.7210 C.3     1  0G61        0.0373
@<TRIPOS>BOND
     1     9    11   ar
     2     9     7   ar
     3    11    10   ar
     4    10     8   ar
     5     7     6   ar
     6     8     6   ar
     7     6     5    1
     8     5     2    1
     9     2     3    1
    10     2     1    1
    11     3     4    2
    12     3    12   am
    13    12    18    1
    14    12    13    1
    15    18    17    1
    16    16    13    1
    17    16    17    1
    18    28    27    1
    19    13    14    1
    20    26    27    2
    21    26    25    1
    22    27    29    1
    23    25    24    1
    24    14    19   am
    25    14    15    2
    26    19    20    1
    27    24    23    1
    28    20    23    1
    29    20    21    1
    30    30    21    1
    31    21    22    1
