@<TRIPOS>MOLECULE
2a49_MA4_A_1.pdb
 35 37 0 0 0
SMALL
GASTEIGER

@<TRIPOS>ATOM
      1  C1        60.4680   52.9780    1.7720 C.3   400  MA4400      0.2695
      2  C2        60.8900   52.2140    0.4810 C.3   400  MA4400      0.2406
      3  C3        60.4920   50.7660    0.5930 C.3   400  MA4400      0.2198
      4  C4        61.0240   50.1340    1.8750 C.3   400  MA4400      0.2144
      5  C5        60.5900   50.9940    3.1100 C.3   400  MA4400      0.1835
      6  C6        61.1180   50.4660    4.2840 C.3   400  MA4400      0.2142
      7  O2        60.2540   52.8530   -0.6940 O.3   400  MA4400     -0.2149
      8  O3        60.9880   50.1090   -0.6000 O.3   400  MA4400     -0.2174
      9  O5        61.0340   52.3440    2.9460 O.3   400  MA4400     -0.3256
     10  O6        62.5620   50.4760    4.2480 O.3   400  MA4400     -0.2176
     11  O1        59.0610   52.9200    1.8670 O.3   400  MA4400     -0.3257
     12  O4        60.5200   48.8150    2.0300 O.3   400  MA4400     -0.2176
     13  C10       55.8760   55.3980    2.5560 C.3   400  MA4400      0.2695
     14  C20       56.6200   55.6570    1.2320 C.3   400  MA4400      0.2404
     15  C30       57.3970   54.3820    0.9550 C.3   400  MA4400      0.2167
     16  C40       58.3280   54.1350    2.1280 C.3   400  MA4400      0.1804
     17  C50       57.5890   53.9640    3.4200 C.3   400  MA4400      0.1803
     18  C60       58.4770   53.7600    4.6610 C.3   400  MA4400      0.2141
     19  O10       55.1150   56.5370    2.8930 O.3   400  MA4400     -0.3286
     20  O20       55.7390   55.9270    0.1690 O.3   400  MA4400     -0.2149
     21  O30       58.1290   54.5550   -0.2480 O.3   400  MA4400     -0.2175
     22  O50       56.7930   55.1260    3.6510 O.3   400  MA4400     -0.3257
     23  O60       59.3610   54.9200    4.8140 O.3   400  MA4400     -0.2176
     24  C11       54.1180   56.2270    3.9030 C.3   400  MA4400      0.1449
     25  C21       52.8670   55.7820    3.1890 C.3   400  MA4400      0.0322
     26  C31       51.8720   55.4580    4.2810 C.3   400  MA4400      0.0026
     27  C41       50.6240   54.9690    3.5950 C.3   400  MA4400      0.0001
     28  C51       49.4170   54.8980    4.4720 C.3   400  MA4400      0.0003
     29  C61       49.4810   54.6330    5.9200 C.3   400  MA4400      0.0043
     30  C12       48.1430   54.5820    6.6010 C.3   400  MA4400      0.0217
     31  C22       48.1580   55.5010    7.8500 C.2   400  MA4400     -0.0310
     32  C32       47.4030   55.0090    9.1120 C.2   400  MA4400     -0.0307
     33  C42       46.5230   53.7960    8.9340 C.3   400  MA4400      0.0257
     34  C52       47.2480   52.7050    8.1760 C.3   400  MA4400      0.0050
     35  C62       47.8150   53.1170    6.8360 C.3   400  MA4400      0.0047
@<TRIPOS>BOND
     1     7     2    1
     2     8     3    1
     3    21    15    1
     4    20    14    1
     5     2     3    1
     6     2     1    1
     7     3     4    1
     8    15    14    1
     9    15    16    1
    10    14    13    1
    11     1    11    1
    12     1     9    1
    13    11    16    1
    14     4    12    1
    15     4     5    1
    16    16    17    1
    17    13    19    1
    18    13    22    1
    19    19    24    1
    20     9     5    1
    21     5     6    1
    22    25    24    1
    23    25    26    1
    24    17    22    1
    25    17    18    1
    26    27    26    1
    27    27    28    1
    28    10     6    1
    29    28    29    1
    30    18    23    1
    31    29    30    1
    32    30    35    1
    33    30    31    1
    34    35    34    1
    35    31    32    2
    36    34    33    1
    37    33    32    1
