@<TRIPOS>MOLECULE
2a49_TEM_A_1.pdb
 11 10 0 0 0
SMALL
GASTEIGER

@<TRIPOS>ATOM
      1  O1        34.5440   65.4960    2.9460 O.2   501  TEM501     -0.2939
      2  C2        34.1310   66.4020    3.6680 C.2   501  TEM501      0.1777
      3  C3        32.9590   66.1730    4.5860 C.3   501  TEM501      0.1891
      4  N4        32.4300   64.8150    4.3860 N.2   501  TEM501     -0.2651
      5  C5        32.9200   63.8160    5.0950 C.2   501  TEM501      0.0755
      6  C6        32.4400   62.5220    4.9320 C.3   501  TEM501      0.1186
      7  C7        32.9970   61.5140    5.7120 C.2   501  TEM501      0.2138
      8  O8        33.9250   61.8020    6.4650 O.2   501  TEM501     -0.2879
      9  C9        34.7970   67.7800    3.6440 C.3   501  TEM501      0.1021
     10  C10       36.2460   67.6970    4.1270 C.3   501  TEM501      0.1899
     11  O11       36.8450   68.9940    4.0620 O.3   501  TEM501     -0.2199
@<TRIPOS>BOND
     1     1     2    2
     2     9     2    1
     3     9    10    1
     4     2     3    1
     5    11    10    1
     6     4     3    1
     7     4     5    2
     8     6     5    1
     9     6     7    1
    10     7     8    2
