@<TRIPOS>MOLECULE
2a4f_AAU_B_1.pdb
 47 51 0 0 0
SMALL
GASTEIGER

@<TRIPOS>ATOM
      1  C1        18.3860   18.2030    5.5950 C.3   1000  AAU1000     0.2526
      2  O2        18.1270   18.5260    4.2280 O.3   1000  AAU1000    -0.4682
      3  C3        16.8060   18.8950    3.8610 C.ar  1000  AAU1000     0.1771
      4  C4        15.7820   19.2740    4.8040 C.ar  1000  AAU1000     0.0376
      5  C5        14.4850   19.6310    4.3590 C.ar  1000  AAU1000     0.0009
      6  C6        13.4440   20.0030    5.3820 C.3   1000  AAU1000     0.1219
      7  N7        13.1090   21.4310    5.6940 N.am  1000  AAU1000    -0.2575
      8  C8        14.1570   22.5160    5.6030 C.3   1000  AAU1000     0.1136
      9  C9        14.5300   23.0940    7.0070 C.3   1000  AAU1000     0.0489
     10  C10       14.9250   22.0320    8.0090 C.ar  1000  AAU1000    -0.0204
     11  C11       13.9700   21.4920    8.9090 C.ar  1000  AAU1000    -0.0042
     12  C12       14.3410   20.4880    9.8400 C.ar  1000  AAU1000    -0.0003
     13  C13       15.6720   20.0110    9.8820 C.ar  1000  AAU1000    -0.0000
     14  C14       16.6390   20.5380    8.9950 C.ar  1000  AAU1000    -0.0003
     15  C15       16.2630   21.5430    8.0640 C.ar  1000  AAU1000    -0.0042
     16  C16       13.7780   23.6580    4.5860 C.3   1000  AAU1000     0.1919
     17  O17       14.8120   24.5950    4.6060 O.3   1000  AAU1000    -0.2194
     18  C18       12.4710   24.4360    4.8500 C.3   1000  AAU1000     0.1497
     19  N19       11.3620   23.4920    4.7950 N.am  1000  AAU1000    -0.2012
     20  N20       11.1020   22.7850    5.8330 N.am  1000  AAU1000    -0.1850
     21  C21        9.9630   23.1180    6.7360 C.3   1000  AAU1000     0.1432
     22  C22        9.7860   24.5350    7.1600 C.ar  1000  AAU1000     0.0027
     23  C23       10.5040   25.0300    8.2710 C.ar  1000  AAU1000     0.0009
     24  C24       10.3360   26.3720    8.6850 C.ar  1000  AAU1000     0.0449
     25  C25        9.4520   27.2150    7.9850 C.ar  1000  AAU1000     0.2293
     26  O26        9.3020   28.5190    8.4130 O.3   1000  AAU1000    -0.2833
     27  C27        8.7190   26.7420    6.8530 C.ar  1000  AAU1000     0.1771
     28  O28        7.8640   27.6550    6.2150 O.3   1000  AAU1000    -0.4682
     29  C29        7.4580   27.3700    4.8820 C.3   1000  AAU1000     0.2526
     30  C30        8.9020   25.3790    6.4530 C.ar  1000  AAU1000     0.0377
     31  C31       11.8040   21.6260    6.1340 C.2   1000  AAU1000     0.3238
     32  O32       11.2590   20.7380    6.8040 O.2   1000  AAU1000    -0.2508
     33  C33       10.5470   23.2040    3.6850 C.2   1000  AAU1000     0.2418
     34  O34        9.9880   22.1030    3.6490 O.2   1000  AAU1000    -0.2733
     35  C35       10.2840   24.1660    2.4610 C.3   1000  AAU1000     0.0915
     36  C36        8.9210   23.7450    1.7800 C.3   1000  AAU1000     0.0360
     37  C37        7.5310   24.3130    2.0590 C.ar  1000  AAU1000    -0.0215
     38  C38        6.7880   23.6900    3.1120 C.ar  1000  AAU1000    -0.0010
     39  C39        5.4850   24.1280    3.4600 C.ar  1000  AAU1000     0.0417
     40  C40        4.8970   25.1970    2.7640 C.ar  1000  AAU1000     0.1957
     41  O41        3.6250   25.6060    3.1210 O.3   1000  AAU1000    -0.2866
     42  C42        5.6050   25.8340    1.7190 C.ar  1000  AAU1000     0.0417
     43  C43        6.9210   25.3920    1.3670 C.ar  1000  AAU1000    -0.0010
     44  C44       14.1890   19.6180    2.9920 C.ar  1000  AAU1000     0.0009
     45  C45       15.1860   19.2470    2.0450 C.ar  1000  AAU1000     0.0449
     46  C46       16.4780   18.8900    2.4930 C.ar  1000  AAU1000     0.2293
     47  O47       17.4290   18.5320    1.5530 O.3   1000  AAU1000    -0.2833
@<TRIPOS>BOND
     1    43    42   ar
     2    43    37   ar
     3    47    46    1
     4    42    40   ar
     5    36    37    1
     6    36    35    1
     7    45    46   ar
     8    45    44   ar
     9    37    38   ar
    10    35    33    1
    11    46     3   ar
    12    40    41    1
    13    40    39   ar
    14    44     5   ar
    15    38    39   ar
    16    34    33    2
    17    33    19   am
    18     3     2    1
    19     3     4   ar
    20     2     1    1
    21     5     4   ar
    22     5     6    1
    23    16    17    1
    24    16    18    1
    25    16     8    1
    26    19    18    1
    27    19    20    1
    28    29    28    1
    29     6     7    1
    30     8     7    1
    31     8     9    1
    32     7    31   am
    33    20    31   am
    34    20    21    1
    35    31    32    2
    36    28    27    1
    37    30    27   ar
    38    30    22   ar
    39    21    22    1
    40    27    25   ar
    41     9    10    1
    42    22    23   ar
    43    25    26    1
    44    25    24   ar
    45    10    15   ar
    46    10    11   ar
    47    15    14   ar
    48    23    24   ar
    49    11    12   ar
    50    14    13   ar
    51    12    13   ar
