@<TRIPOS>MOLECULE
2a4g_UNH_A_1.pdb
 49 50 0 0 0
SMALL
GASTEIGER

@<TRIPOS>ATOM
      1  C1       192.1520  -10.5310   49.0320 C.2   401  UNH401      0.4215
      2  O2       192.7820  -11.3530   49.7070 O.2   401  UNH401     -0.2246
      3  O3       190.9290  -10.3640   48.9220 O.3   401  UNH401     -0.4335
      4  C4       190.1620  -11.1160   49.8060 C.3   401  UNH401      0.2100
      5  C5       188.8870  -10.3230   50.0490 C.3   401  UNH401      0.0439
      6  C6       187.7360  -10.9900   49.3210 C.3   401  UNH401      0.0038
      7  C7       188.6130  -10.2300   51.5370 C.3   401  UNH401      0.0038
      8  N8       192.7440   -9.6270   48.2640 N.am  401  UNH401     -0.1611
      9  C9       194.1890   -9.4660   48.2640 C.3   401  UNH401      0.1760
     10  C10      194.6450   -8.6690   47.0510 C.3   401  UNH401      0.0291
     11  C11      196.1610   -8.5050   47.0410 C.3   401  UNH401      0.0022
     12  C12      196.6480   -7.7270   45.8400 C.3   401  UNH401      0.0001
     13  C13      196.1900   -8.4010   44.5510 C.3   401  UNH401      0.0000
     14  C14      194.6760   -8.6140   44.5250 C.3   401  UNH401      0.0001
     15  C15      194.2210   -9.3620   45.7600 C.3   401  UNH401      0.0022
     16  C16      194.6220   -8.7120   49.5060 C.2   401  UNH401      0.2617
     17  O17      194.1500   -7.6020   49.7570 O.2   401  UNH401     -0.2715
     18  N18      195.5130   -9.3180   50.2800 N.am  401  UNH401     -0.1963
     19  C19      196.0080   -8.6840   51.4890 C.3   401  UNH401      0.1728
     20  C20      196.6570   -9.7140   52.4060 C.3   401  UNH401      0.0311
     21  C21      195.7720  -10.8760   52.8590 C.3   401  UNH401      0.0022
     22  C22      196.4900  -11.6550   53.9350 C.3   401  UNH401      0.0001
     23  C23      194.4610  -10.3590   53.3870 C.3   401  UNH401      0.0001
     24  C24      197.0060   -7.6010   51.1020 C.2   401  UNH401      0.2613
     25  O25      198.0120   -7.8770   50.4450 O.2   401  UNH401     -0.2715
     26  N26      196.6970   -6.3620   51.4730 N.am  401  UNH401     -0.2026
     27  C27      197.5450   -5.2190   51.1620 C.3   401  UNH401      0.1347
     28  C28      196.7620   -4.1940   50.3330 C.3   401  UNH401      0.0248
     29  C29      196.8230   -4.4370   48.8320 C.3   401  UNH401      0.0019
     30  C30      195.4420   -4.5890   48.3180 C.3   401  UNH401      0.0001
     31  O31      198.7500   -5.8180   53.1790 O.3   401  UNH401     -0.2113
     32  C32      198.3060   -4.7280   52.3810 C.3   401  UNH401      0.2487
     33  O33      199.3770   -2.8110   51.4470 O.2   401  UNH401     -0.2705
     34  N34      200.6880   -4.5480   51.9340 N.am  401  UNH401     -0.1933
     35  C35      201.9350   -3.8820   51.6090 C.3   401  UNH401      0.2014
     36  C36      202.3130   -4.0080   50.1540 C.2   401  UNH401      0.2642
     37  O37      201.5480   -4.5080   49.3230 O.2   401  UNH401     -0.2714
     38  C38      199.5100   -3.9490   51.8810 C.2   401  UNH401      0.2741
     39  N39      203.5070   -3.5190   49.8490 N.am  401  UNH401     -0.1916
     40  C40      204.0500   -3.5630   48.5040 C.3   401  UNH401      0.1966
     41  C41      203.8550   -2.2780   47.7430 C.ar  401  UNH401      0.0063
     42  C42      203.9310   -1.0460   48.3870 C.ar  401  UNH401     -0.0021
     43  C43      203.7910    0.1340   47.6810 C.ar  401  UNH401     -0.0003
     44  C44      203.5680    0.0930   46.3060 C.ar  401  UNH401     -0.0000
     45  C45      203.4850   -1.1320   45.6450 C.ar  401  UNH401     -0.0003
     46  C46      203.6290   -2.3100   46.3650 C.ar  401  UNH401     -0.0021
     47  C47      205.5560   -3.7760   48.6090 C.2   401  UNH401      0.2848
     48  O48      206.2090   -3.2690   49.5330 O.2   401  UNH401     -0.2694
     49  N49      206.1020   -4.5290   47.6600 N.am  401  UNH401     -0.0860
@<TRIPOS>BOND
     1    14    13    1
     2    14    15    1
     3    13    12    1
     4    45    44   ar
     5    45    46   ar
     6    15    10    1
     7    12    11    1
     8    44    43   ar
     9    46    41   ar
    10    11    10    1
    11    10     9    1
    12    49    47   am
    13    43    42   ar
    14    41    42   ar
    15    41    40    1
    16     9     8    1
    17     9    16    1
    18     8     1   am
    19    30    29    1
    20    40    47    1
    21    40    39    1
    22    47    48    2
    23    29    28    1
    24     3     1    1
    25     3     4    1
    26     1     2    2
    27     6     5    1
    28    37    36    2
    29    16    17    2
    30    16    18   am
    31     4     5    1
    32    39    36   am
    33     5     7    1
    34    36    35    1
    35    18    19    1
    36    28    27    1
    37    25    24    2
    38    24    26   am
    39    24    19    1
    40    27    26    1
    41    27    32    1
    42    33    38    2
    43    19    20    1
    44    35    34    1
    45    38    34   am
    46    38    32    1
    47    32    31    1
    48    20    21    1
    49    21    23    1
    50    21    22    1
