@<TRIPOS>MOLECULE
2a4l_RRC_A_1.pdb
 26 28 0 0 0
SMALL
GASTEIGER

@<TRIPOS>ATOM
      1  OAP       96.9410   98.3980   81.7010 O.3   300  RRC300     -0.2185
      2  CAQ       97.8200   99.3160   82.3990 C.3   300  RRC300      0.2044
      3  CAR       99.3030   99.0600   82.1250 C.3   300  RRC300      0.1385
      4  CAK       99.5800   97.5390   82.1130 C.3   300  RRC300      0.0252
      5  CAI      100.8690   97.0700   82.8130 C.3   300  RRC300      0.0019
      6  NAS       99.6890   99.6750   80.7710 N.pl3 300  RRC300     -0.1508
      7  CAT      100.6050  100.5790   80.3970 C.1   300  RRC300      0.2227
      8  NAU      101.5800  100.7310   81.2850 N.2   300  RRC300     -0.3099
      9  CAV      102.5660  101.6080   81.0000 C.2   300  RRC300      0.2197
     10  NAW      103.6710  101.8700   81.7690 N.pl3 300  RRC300     -0.2624
     11  CAZ      103.9420  101.2080   83.0530 C.3   300  RRC300      0.0770
     12  CAY      104.1430   99.6920   82.8200 C.3   300  RRC300      0.0216
     13  CBA      102.7500  101.4540   84.0120 C.3   300  RRC300      0.0216
     14  CAX      104.3850  102.7950   81.0530 C.3   300  RRC300      0.2220
     15  CAN      102.6270  102.3520   79.8510 C.2   300  RRC300      0.1690
     16  NAO      103.7980  103.0970   79.9180 N.2   300  RRC300     -0.2402
     17  NAL      100.6130  101.2930   79.2400 N.2   300  RRC300     -0.3084
     18  CAM      101.5820  102.1980   78.8950 C.2   300  RRC300      0.2344
     19  NAJ      101.4790  102.7930   77.7210 N.pl3 300  RRC300     -0.2027
     20  CAD      100.2390  102.4850   76.9830 C.3   300  RRC300      0.1413
     21  CAE       99.6080  103.8320   76.5810 C.ar  300  RRC300     -0.0006
     22  CAG      100.4390  104.8910   76.2360 C.ar  300  RRC300     -0.0026
     23  CAH       99.8830  106.1120   75.8700 C.ar  300  RRC300     -0.0003
     24  CAF       98.4980  106.2290   75.8640 C.ar  300  RRC300     -0.0000
     25  CAC       97.6480  105.1730   76.1880 C.ar  300  RRC300     -0.0003
     26  CAB       98.2240  103.9610   76.5500 C.ar  300  RRC300     -0.0026
@<TRIPOS>BOND
     1    24    23   ar
     2    24    25   ar
     3    23    22   ar
     4    25    26   ar
     5    22    21   ar
     6    26    21   ar
     7    21    20    1
     8    20    19    1
     9    19    18    1
    10    18    17    2
    11    18    15    1
    12    17     7    2
    13    15    16    2
    14    15     9    1
    15    16    14    1
    16     7     6    1
    17     7     8    2
    18     6     3    1
    19     9     8    2
    20     9    10    1
    21    14    10    1
    22     1     2    1
    23    10    11    1
    24     4     3    1
    25     4     5    1
    26     3     2    1
    27    12    11    1
    28    11    13    1
