@<TRIPOS>MOLECULE
2a4m_TRP_C_1.pdb
 15 16 0 0 0
SMALL
GASTEIGER

@<TRIPOS>ATOM
      1  N         49.4880   14.8270   20.1100 N.3   500  TRP500     -0.1205
      2  CA        49.9380   13.4530   20.2700 C.3   500  TRP500      0.1984
      3  C         49.5240   12.6060   19.0680 C.2   500  TRP500      0.3822
      4  O         49.3770   13.1450   17.9550 O.co2 500  TRP500     -0.2440
      5  CB        49.3420   12.8360   21.5570 C.3   500  TRP500      0.0549
      6  CG        49.6470   11.3910   21.7860 C.2   500  TRP500     -0.0138
      7  CD1       50.8910   10.8190   21.8960 C.2   500  TRP500      0.0907
      8  CD2       48.7050   10.3210   21.9340 C.3   500  TRP500      0.0819
      9  NE1       50.7810    9.4710   22.0810 N.2   500  TRP500     -0.2482
     10  CE2       49.4530    9.1340   22.1260 C.2   500  TRP500      0.0665
     11  CE3       47.3060   10.2410   21.9050 C.2   500  TRP500     -0.0164
     12  CZ2       48.8360    7.8720   22.2650 C.2   500  TRP500      0.0153
     13  CZ3       46.7100    8.9900   22.0530 C.2   500  TRP500     -0.0038
     14  CH2       47.4680    7.8360   22.2390 C.2   500  TRP500      0.0009
     15  OXT       49.3770   11.3690   19.2460 O.co2 500  TRP500     -0.2440
@<TRIPOS>BOND
     1     4     3   ar
     2     3    15   ar
     3     3     2    1
     4     1     2    1
     5     2     5    1
     6     5     6    1
     7     6     7    2
     8     6     8    1
     9     7     9    1
    10    11     8    1
    11    11    13    2
    12     8    10    1
    13    13    14    1
    14     9    10    2
    15    10    12    1
    16    14    12    2
