@<TRIPOS>MOLECULE
2a4n_COA_A_1.pdb
 48 50 0 0 0
SMALL
GASTEIGER

@<TRIPOS>ATOM
      1  N1A       73.5840   99.5680  -63.5950 N.2   400  COA400      0.0021
      2  C2A       73.1720   98.3280  -63.9150 C.3   400  COA400      0.5254
      3  N3A       71.9590   97.9470  -64.3430 N.2   400  COA400     -0.0055
      4  C4A       71.1030   99.0190  -64.4330 C.2   400  COA400      0.3518
      5  C5A       71.3780  100.3350  -64.1420 C.2   400  COA400      0.2526
      6  C6A       72.7100  100.6150  -63.6950 C.2   400  COA400      0.4393
      7  N6A       73.1230  101.8440  -63.3780 N.pl3 400  COA400      0.2180
      8  N7A       70.2630  101.1250  -64.3530 N.2   400  COA400     -0.2095
      9  C8A       69.3570  100.2860  -64.7600 C.3   400  COA400      0.3377
     10  N9A       69.7920   98.9830  -64.8350 N.pl3 400  COA400     -0.1439
     11  C1B       69.0500   97.7840  -65.2460 C.3   400  COA400      0.3185
     12  C2B       67.8610   97.4550  -64.3500 C.3   400  COA400      0.2543
     13  O2B       68.3120   96.6370  -63.2670 O.3   400  COA400     -0.2131
     14  C3B       66.8870   96.6570  -65.2240 C.3   400  COA400      0.1928
     15  O3B       67.3620   95.3110  -65.3070 O.3   400  COA400     -0.2673
     16  P3B       66.5030   94.0890  -64.7130 P.3   400  COA400      0.5327
     17  O7A       66.2000   94.4970  -63.3160 O.3   400  COA400     -0.1145
     18  O8A       67.4210   92.9310  -64.8200 O.3   400  COA400     -0.1145
     19  O9A       65.3210   94.0170  -65.6080 O.2   400  COA400     -0.2224
     20  C4B       67.0950   97.3120  -66.5990 C.3   400  COA400      0.1795
     21  O4B       68.4200   97.8640  -66.5260 O.3   400  COA400     -0.3136
     22  C5B       66.0650   98.3910  -66.9430 C.3   400  COA400      0.1812
     23  O5B       66.1750   99.4470  -65.9860 O.3   400  COA400     -0.3112
     24  P1A       65.1990  100.7160  -65.9740 P.3   400  COA400      0.2189
     25  O1A       64.5680  100.8690  -67.3020 O.2   400  COA400     -0.5170
     26  O2A       64.3600  100.6330  -64.7580 O.3   400  COA400     -0.4371
     27  O3A       66.2690  101.8990  -65.7710 O.3   400  COA400     -0.2703
     28  P2A       65.9280  103.3910  -65.2680 P.3   400  COA400      0.2188
     29  O4A       66.3960  103.5150  -63.8720 O.3   400  COA400     -0.4371
     30  O5A       64.5280  103.6980  -65.6140 O.2   400  COA400     -0.5170
     31  O6A       66.8750  104.2980  -66.2070 O.3   400  COA400     -0.3138
     32  CBP       69.1580  105.1850  -66.2780 C.3   400  COA400      0.0645
     33  CCP       68.2580  103.9600  -66.4010 C.3   400  COA400      0.1519
     34  CDP       70.6200  104.7200  -66.3300 C.3   400  COA400      0.0056
     35  CEP       68.8770  106.1370  -67.4810 C.3   400  COA400      0.0056
     36  CAP       68.8420  105.8940  -64.8810 C.3   400  COA400      0.2312
     37  OAP       69.2610  105.0890  -63.7660 O.3   400  COA400     -0.2131
     38  C9P       69.4150  107.3160  -64.7780 C.2   400  COA400      0.2719
     39  O9P       68.6940  108.2980  -65.0030 O.2   400  COA400     -0.2706
     40  N8P       70.7090  107.4090  -64.4390 N.am  400  COA400     -0.2028
     41  C7P       71.4580  108.6530  -64.2810 C.3   400  COA400      0.1248
     42  C6P       71.8120  109.3130  -65.6150 C.3   400  COA400      0.1102
     43  C5P       72.7500  108.4820  -66.4790 C.2   400  COA400      0.2432
     44  O5P       73.8280  108.0750  -66.0240 O.2   400  COA400     -0.2733
     45  N4P       72.3340  108.2330  -67.7310 N.am  400  COA400     -0.2044
     46  C3P       73.0740  107.4540  -68.7320 C.3   400  COA400      0.1276
     47  C2P       73.6450  108.3230  -69.8430 C.3   400  COA400      0.0920
     48  S1P       75.3770  107.9590  -70.1830 S.3   400  COA400     -0.0802
@<TRIPOS>BOND
     1    48    47    1
     2    47    46    1
     3    46    45    1
     4    45    43   am
     5    35    32    1
     6    25    24    2
     7    22    20    1
     8    22    23    1
     9    20    21    1
    10    20    14    1
    11    21    11    1
    12    43    44    2
    13    43    42    1
    14    33    32    1
    15    33    31    1
    16    34    32    1
    17    32    36    1
    18    31    28    1
    19    23    24    1
    20    24    27    1
    21    24    26    1
    22    27    28    1
    23    42    41    1
    24    30    28    2
    25    19    16    2
    26    15    14    1
    27    15    16    1
    28    28    29    1
    29    11    10    1
    30    11    12    1
    31    14    12    1
    32    39    38    2
    33    36    38    1
    34    36    37    1
    35    10     9    1
    36    10     4    1
    37    18    16    1
    38    38    40   am
    39     9     8    1
    40    16    17    1
    41    40    41    1
    42     4     3    2
    43     4     5    1
    44     8     5    2
    45    12    13    1
    46     3     2    1
    47     5     6    1
    48     2     1    1
    49     6     1    2
    50     6     7    1
