@<TRIPOS>MOLECULE
2a4o_BBL_A_1.pdb
 16 16 0 0 0
SMALL
GASTEIGER

@<TRIPOS>ATOM
      1  OG2       15.3150   16.1090   35.3670 O.co2 901  BBL901     -0.2437
      2  CB2       16.3010   15.7420   36.0570 C.2   901  BBL901      0.3843
      3  OG1       17.3670   16.4220   36.1460 O.co2 901  BBL901     -0.2437
      4  CA        16.1900   14.4090   36.7700 C.3   901  BBL901      0.2012
      5  CBZ       14.9270   14.2600   37.6370 C.3   901  BBL901      0.0358
      6  N         17.3830   14.1340   37.5410 N.am  901  BBL901     -0.1589
      7  C         18.3880   13.4780   36.9900 C.2   901  BBL901      0.4219
      8  O         18.4320   13.0840   35.8250 O.2   901  BBL901     -0.2245
      9  OEZ       19.5120   13.2460   37.8590 O.3   901  BBL901     -0.4285
     10  CB        20.7530   12.7820   37.3430 C.3   901  BBL901      0.2368
     11  CG        21.7910   13.2640   38.3160 C.ar  901  BBL901      0.0213
     12  CD1       23.0790   12.7360   38.2850 C.ar  901  BBL901     -0.0007
     13  CE1       24.0150   13.2120   39.1970 C.ar  901  BBL901     -0.0002
     14  CZ        23.6770   14.2020   40.1260 C.ar  901  BBL901     -0.0000
     15  CE2       22.3950   14.7400   40.1570 C.ar  901  BBL901     -0.0002
     16  CD2       21.4490   14.2600   39.2460 C.ar  901  BBL901     -0.0007
@<TRIPOS>BOND
     1     1     2   ar
     2     8     7    2
     3     2     3   ar
     4     2     4    1
     5     4     6    1
     6     4     5    1
     7     7     6   am
     8     7     9    1
     9    10     9    1
    10    10    11    1
    11    12    11   ar
    12    12    13   ar
    13    11    16   ar
    14    13    14   ar
    15    16    15   ar
    16    14    15   ar
