@<TRIPOS>MOLECULE
2a4o_NFA_A_1.pdb
 12 12 0 0 0
SMALL
GASTEIGER

@<TRIPOS>ATOM
      1  N         -9.4110    0.9780   31.9900 N.3   308  NFA308     -0.1226
      2  CA       -10.6490    1.6020   32.4510 C.3   308  NFA308      0.1753
      3  C        -11.8030    0.7890   31.9190 C.2   308  NFA308      0.2785
      4  O        -11.8650    0.5340   30.7140 O.2   308  NFA308     -0.2701
      5  CB       -10.6950    3.0450   31.9480 C.3   308  NFA308      0.0548
      6  CG       -11.8610    3.7740   32.5800 C.ar  308  NFA308     -0.0202
      7  CD1      -12.9960    4.0370   31.8060 C.ar  308  NFA308     -0.0042
      8  CD2      -11.8120    4.1870   33.9130 C.ar  308  NFA308     -0.0042
      9  CE1      -14.0850    4.7030   32.3690 C.ar  308  NFA308     -0.0003
     10  CE2      -12.9000    4.8570   34.4750 C.ar  308  NFA308     -0.0003
     11  CZ       -14.0340    5.1090   33.7010 C.ar  308  NFA308     -0.0000
     12  NXT      -12.7320    0.3250   32.7710 N.am  308  NFA308     -0.0865
@<TRIPOS>BOND
     1     4     3    2
     2     7     9   ar
     3     7     6   ar
     4     3     2    1
     5     3    12   am
     6     5     2    1
     7     5     6    1
     8     1     2    1
     9     9    11   ar
    10     6     8   ar
    11    11    10   ar
    12     8    10   ar
