@<TRIPOS>MOLECULE
2a4r_BNH_A_1.pdb
 50 53 0 0 0
SMALL
GASTEIGER

@<TRIPOS>ATOM
      1  C1       191.1800  -10.6150   48.8780 C.2   401  BNH401      0.4215
      2  O2       191.7780  -11.4990   49.5040 O.2   401  BNH401     -0.2246
      3  O3       189.9130  -10.5240   48.9240 O.3   401  BNH401     -0.4335
      4  C4       189.0440  -11.3980   49.6700 C.3   401  BNH401      0.2100
      5  C5       187.9290  -10.8220   50.5490 C.3   401  BNH401      0.0439
      6  C6       188.2740  -10.9430   52.0270 C.3   401  BNH401      0.0038
      7  C7       187.6520   -9.3870   50.1940 C.3   401  BNH401      0.0038
      8  N8       191.8070   -9.7090   48.1290 N.am  401  BNH401     -0.1611
      9  C9       193.2600   -9.5430   48.1500 C.3   401  BNH401      0.1760
     10  C10      193.7410   -8.7540   46.9380 C.3   401  BNH401      0.0291
     11  C11      195.2600   -8.5800   46.9690 C.3   401  BNH401      0.0022
     12  C12      193.3560   -9.4530   45.6390 C.3   401  BNH401      0.0022
     13  C13      195.7980   -7.8450   45.7550 C.3   401  BNH401      0.0001
     14  C14      193.8530   -8.7160   44.4110 C.3   401  BNH401      0.0001
     15  C15      195.3700   -8.5420   44.4680 C.3   401  BNH401      0.0000
     16  C16      193.7160   -8.7810   49.3820 C.2   401  BNH401      0.2617
     17  O17      193.2930   -7.6440   49.5990 O.2   401  BNH401     -0.2715
     18  N18      194.5990   -9.3990   50.1580 N.am  401  BNH401     -0.1963
     19  C19      195.1270   -8.7780   51.3690 C.3   401  BNH401      0.1728
     20  C20      196.1830   -7.7450   51.0020 C.2   401  BNH401      0.2613
     21  O21      197.1620   -8.0600   50.3170 O.2   401  BNH401     -0.2715
     22  C22      195.7430   -9.8290   52.2870 C.3   401  BNH401      0.0311
     23  C23      194.6820  -10.8400   52.6830 C.3   401  BNH401      0.0022
     24  C24      193.5660  -10.3740   53.6150 C.3   401  BNH401      0.0001
     25  C25      194.6770  -11.3080   54.1340 C.3   401  BNH401      0.0001
     26  N26      195.9770   -6.5110   51.4540 N.am  401  BNH401     -0.2026
     27  C27      196.9070   -5.4190   51.1700 C.3   401  BNH401      0.1347
     28  C28      196.1980   -4.3240   50.3540 C.3   401  BNH401      0.0248
     29  C29      195.9260   -4.7740   48.8890 C.3   401  BNH401      0.0018
     30  C30      195.1560   -3.8690   47.9210 C.3   401  BNH401      0.0001
     31  C31      194.4930   -5.1470   48.4640 C.3   401  BNH401      0.0001
     32  O32      198.0060   -5.8700   53.2870 O.3   401  BNH401     -0.2113
     33  C33      197.5670   -4.8280   52.4310 C.3   401  BNH401      0.2487
     34  O34      198.6990   -2.9110   51.5300 O.2   401  BNH401     -0.2705
     35  C35      198.7860   -4.0700   51.9370 C.2   401  BNH401      0.2741
     36  N36      199.9360   -4.7280   51.9770 N.am  401  BNH401     -0.1933
     37  C37      201.2120   -4.1190   51.6670 C.3   401  BNH401      0.2014
     38  C38      201.5520   -4.0790   50.1970 C.2   401  BNH401      0.2642
     39  O39      200.7180   -4.3280   49.3220 O.2   401  BNH401     -0.2714
     40  N40      202.8030   -3.7200   49.9390 N.am  401  BNH401     -0.1895
     41  C41      203.3580   -3.6350   48.5990 C.3   401  BNH401      0.2200
     42  C42      203.0040   -2.4400   47.7450 C.ar  401  BNH401      0.0083
     43  C43      203.0240   -1.1470   48.2860 C.ar  401  BNH401     -0.0021
     44  C44      202.7010   -2.6440   46.4010 C.ar  401  BNH401     -0.0021
     45  C45      202.7470   -0.0660   47.5050 C.ar  401  BNH401     -0.0003
     46  C46      202.4220   -1.5460   45.6150 C.ar  401  BNH401     -0.0003
     47  C47      202.4470   -0.2640   46.1600 C.ar  401  BNH401     -0.0000
     48  C48      204.8800   -3.6940   48.7580 C.2   401  BNH401      0.3884
     49  O49      205.4190   -3.3480   49.8220 O.co2 401  BNH401     -0.2434
     50  O50      205.5960   -4.0890   47.8330 O.co2 401  BNH401     -0.2434
@<TRIPOS>BOND
     1    14    15    1
     2    14    12    1
     3    15    13    1
     4    46    47   ar
     5    46    44   ar
     6    12    10    1
     7    13    11    1
     8    47    45   ar
     9    44    42   ar
    10    10    11    1
    11    10     9    1
    12    45    43   ar
    13    42    43   ar
    14    42    41    1
    15    50    48   ar
    16    30    31    1
    17    30    29    1
    18     8     9    1
    19     8     1   am
    20     9    16    1
    21    31    29    1
    22    41    48    1
    23    41    40    1
    24    48    49   ar
    25     1     3    1
    26     1     2    2
    27    29    28    1
    28     3     4    1
    29    39    38    2
    30    16    17    2
    31    16    18   am
    32     4     5    1
    33    40    38   am
    34    18    19    1
    35     7     5    1
    36    38    37    1
    37    21    20    2
    38    28    27    1
    39     5     6    1
    40    20    19    1
    41    20    26   am
    42    27    26    1
    43    27    33    1
    44    19    22    1
    45    34    35    2
    46    37    36    1
    47    35    36   am
    48    35    33    1
    49    22    23    1
    50    33    32    1
    51    23    24    1
    52    23    25    1
    53    24    25    1
