@<TRIPOS>MOLECULE
2a4x_BLM_A_1.pdb
 29 30 0 0 0
SMALL
GASTEIGER

@<TRIPOS>ATOM
      1  NL         3.2480    3.0110   26.4310 N.3   700  BLM700     -0.1203
      2  C37        4.5780    2.5170   26.1210 C.3   700  BLM700      0.1993
      3  C40        5.6690    3.5160   26.5150 C.2   700  BLM700      0.2614
      4  O40        5.4490    4.3820   27.3650 O.2   700  BLM700     -0.2717
      5  C38        4.6610    2.1540   24.6280 C.3   700  BLM700      0.1784
      6  OH3        3.9750    3.1800   23.9180 O.3   700  BLM700     -0.2211
      7  CD         4.0460    0.7910   24.3410 C.3   700  BLM700      0.0376
      8  NM         6.8740    3.4140   25.9360 N.am  700  BLM700     -0.2037
      9  C42        8.0580    5.4970   25.2800 C.3   700  BLM700      0.0889
     10  C49       13.1580    9.8050   28.9820 C.2   700  BLM700      0.2912
     11  O49       14.0150   10.6670   29.1530 O.2   700  BLM700     -0.2659
     12  C43        9.4580    5.9250   24.9900 C.2   700  BLM700      0.1362
     13  C41        7.9760    4.3150   26.2510 C.3   700  BLM700      0.1232
     14  S43       10.2650    5.6930   23.4740 S.3   700  BLM700     -0.0790
     15  C44       11.6370    6.4830   24.0790 C.3   700  BLM700      0.1262
     16  C45       11.4010    6.8860   25.4030 C.2   700  BLM700      0.1557
     17  NN        10.1470    6.5390   25.8790 N.2   700  BLM700     -0.4003
     18  C47       14.1950    9.0660   26.8190 C.3   700  BLM700      0.1283
     19  C48       13.2000    8.9400   27.7440 C.2   700  BLM700      0.1756
     20  NO        12.1610    8.1230   27.3480 N.2   700  BLM700     -0.3922
     21  C46       12.3280    7.6520   26.1580 C.2   700  BLM700      0.1833
     22  S46       13.8240    8.1540   25.3900 S.3   700  BLM700     -0.0724
     23  NP        12.1330    9.5510   29.7930 N.am  700  BLM700     -0.1997
     24  C50       11.9070   10.2980   31.0100 C.3   700  BLM700      0.1164
     25  C51       12.9670   10.1130   32.0670 C.3   700  BLM700      0.0343
     26  C52       13.3390   11.4650   32.6960 C.3   700  BLM700      0.0500
     27  S53       13.6110   11.3290   34.4740 S.3   700  BLM700     -0.1777
     28  C55       13.6500   12.9780   35.1310 C.3   700  BLM700      0.0590
     29  C54       12.1290   10.6460   35.1640 C.3   700  BLM700      0.0590
@<TRIPOS>BOND
     1    14    15    1
     2    14    12    1
     3     6     5    1
     4    15    16    1
     5     7     5    1
     6     5     2    1
     7    12     9    1
     8    12    17    2
     9     9    13    1
    10    22    21    1
    11    22    18    1
    12    16    17    2
    13    16    21    1
    14     8    13    1
    15     8     3   am
    16     2     1    1
    17     2     3    1
    18    21    20    2
    19     3     4    2
    20    18    19    1
    21    20    19    2
    22    19    10    1
    23    10    11    2
    24    10    23   am
    25    23    24    1
    26    24    25    1
    27    25    26    1
    28    26    27    1
    29    27    28    1
    30    27    29    1
