@<TRIPOS>MOLECULE
2a4z_BYM_A_1.pdb
 19 21 0 0 0
SMALL
GASTEIGER

@<TRIPOS>ATOM
      1  C1        40.1700   14.1920   32.5720 C.1   101  BYM101      0.2223
      2  C3        41.0860   15.5690   34.2360 C.1   101  BYM101      0.2492
      3  C8        45.6620   14.3820   29.9980 C.ar  101  BYM101      0.1817
      4  C9        45.9180   13.3130   29.2450 C.ar  101  BYM101      0.1817
      5  C11       44.3290   14.6080   30.5810 C.ar  101  BYM101      0.0404
      6  C13       44.8870   12.3050   28.9590 C.ar  101  BYM101      0.0404
      7  C14       47.8010   14.2970   29.6520 C.3   101  BYM101      0.5892
      8  C15       43.3350   13.6840   30.3400 C.ar  101  BYM101      0.0045
      9  C16       43.6510   12.4830   29.4800 C.ar  101  BYM101      0.0034
     10  N2        39.9420   14.8700   33.7920 N.2   101  BYM101     -0.2516
     11  S4        42.4680   15.3900   33.1510 S.3   101  BYM101      0.0317
     12  C5        41.5320   14.3650   32.0450 C.2   101  BYM101      0.1364
     13  O6        41.1010   16.2320   35.2720 O.2   101  BYM101     -0.2014
     14  O7        39.2970   13.5250   32.0170 O.2   101  BYM101     -0.2080
     15  O10       46.7600   15.1970   30.1360 O.3   101  BYM101     -0.3948
     16  O12       47.2110   13.2780   28.8040 O.3   101  BYM101     -0.3948
     17  F17       48.4290   13.7230   30.7450 F     101  BYM101     -0.1252
     18  C18       41.9390   13.7970   30.8820 C.2   101  BYM101      0.0201
     19  F19       48.7360   14.9750   28.9060 F     101  BYM101     -0.1252
@<TRIPOS>BOND
     1    16     4    1
     2    16     7    1
     3    19     7    1
     4     6     4   ar
     5     6     9   ar
     6     4     3   ar
     7     9     8   ar
     8     7    15    1
     9     7    17    1
    10     3    15    1
    11     3     5   ar
    12     8     5   ar
    13     8    18    1
    14    18    12    2
    15    14     1    2
    16    12     1    1
    17    12    11    1
    18     1    10    2
    19    11     2    1
    20    10     2    2
    21     2    13    2
