@<TRIPOS>MOLECULE
2a57_CRM_A_1.pdb
 23 24 0 0 0
SMALL
GASTEIGER

@<TRIPOS>ATOM
      1  C2        75.9150   43.3530   42.5610 C.1   300  CRM300      0.3669
      2  O15       76.8780   42.6150   42.6360 O.2   300  CRM300     -0.1744
      3  N3        75.9880   44.5750   41.9360 N.2   300  CRM300     -0.2886
      4  C4        74.9450   45.5040   41.7880 C.2   300  CRM300      0.2471
      5  N10       75.0410   46.7190   41.1500 N.am  300  CRM300     -0.2224
      6  C17       76.2710   47.2250   40.5120 C.3   300  CRM300      0.1366
      7  C18       76.9490   46.6630   39.2460 C.3   300  CRM300      0.2049
      8  C20       78.1940   47.5430   38.8620 C.3   300  CRM300      0.2166
      9  C22       77.8250   49.0150   38.4400 C.3   300  CRM300      0.2175
     10  C25       78.9040   49.7920   37.6420 C.3   300  CRM300      0.2175
     11  O26       79.4370   49.0370   36.5390 O.3   300  CRM300     -0.2175
     12  O23       76.6610   48.9870   37.6160 O.3   300  CRM300     -0.2175
     13  O21       79.0990   47.6340   39.9930 O.3   300  CRM300     -0.2175
     14  O19       77.3600   45.3370   39.5840 O.3   300  CRM300     -0.2185
     15  C9        73.9550   47.5720   41.0440 C.2   300  CRM300      0.2802
     16  O16       74.0040   48.6740   40.4690 O.2   300  CRM300     -0.2671
     17  C8        72.5930   47.2100   41.6310 C.2   300  CRM300      0.1641
     18  C11       71.2750   48.0500   41.5930 C.3   300  CRM300      0.0714
     19  N7        72.5630   46.0260   42.2360 N.2   300  CRM300     -0.3851
     20  C5        73.7320   45.1100   42.3490 C.2   300  CRM300      0.2705
     21  C6        73.5960   43.7830   43.0470 C.1   300  CRM300      0.2513
     22  O14       72.5250   43.4540   43.5290 O.2   300  CRM300     -0.2057
     23  N1        74.7060   42.9740   43.1140 N.2   300  CRM300     -0.2300
@<TRIPOS>BOND
     1    11    10    1
     2    12     9    1
     3    10     9    1
     4     9     8    1
     5     8     7    1
     6     8    13    1
     7     7    14    1
     8     7     6    1
     9    16    15    2
    10     6     5    1
    11    15     5   am
    12    15    17    1
    13     5     4    1
    14    18    17    1
    15    17    19    2
    16     4     3    2
    17     4    20    1
    18     3     1    2
    19    19    20    2
    20    20    21    1
    21     1     2    2
    22     1    23    2
    23    21    23    2
    24    21    22    2
