@<TRIPOS>MOLECULE
2a58_RBF_A_1.pdb
 27 29 0 0 0
SMALL
GASTEIGER

@<TRIPOS>ATOM
      1  N1        76.1540   45.2280   42.4980 N.2   300  RBF300     -0.2890
      2  C2        76.0470   44.0100   43.1670 C.1   300  RBF300      0.3669
      3  O2        77.0560   43.3740   43.3100 O.2   300  RBF300     -0.1744
      4  N3        74.7920   43.6730   43.5870 N.2   300  RBF300     -0.2300
      5  C4        73.5830   44.3830   43.4390 C.1   300  RBF300      0.2513
      6  O4        72.5370   43.9460   43.8720 O.2   300  RBF300     -0.2057
      7  C4A       73.7540   45.7120   42.6950 C.2   300  RBF300      0.2700
      8  N5        72.6860   46.4790   42.4870 N.2   300  RBF300     -0.3878
      9  C5A       72.8540   47.7060   41.7940 C.2   300  RBF300      0.1320
     10  C6        71.6510   48.5030   41.5940 C.2   300  RBF300      0.0250
     11  C7        71.8400   49.7080   40.8990 C.2   300  RBF300     -0.0238
     12  C7M       70.6900   50.6690   40.5960 C.3   300  RBF300      0.0308
     13  C8        73.1840   50.0970   40.4240 C.2   300  RBF300     -0.0280
     14  C8M       73.3610   51.4400   39.6380 C.3   300  RBF300      0.0304
     15  C9        74.3410   49.3710   40.6030 C.2   300  RBF300     -0.0041
     16  C9A       74.1400   48.1270   41.3190 C.3   300  RBF300      0.1497
     17  N10       75.2780   47.2440   41.5840 N.pl3 300  RBF300     -0.2691
     18  C10       75.0790   46.0690   42.2520 C.2   300  RBF300      0.2416
     19  C1'       76.5600   47.7730   41.0680 C.3   300  RBF300      0.1294
     20  C2'       76.9170   47.0860   39.7380 C.3   300  RBF300      0.2044
     21  O2'       77.3580   45.7210   40.0100 O.3   300  RBF300     -0.2185
     22  C3'       78.1270   47.6410   39.1070 C.3   300  RBF300      0.2166
     23  O3'       79.2400   47.5820   40.0110 O.3   300  RBF300     -0.2175
     24  C4'       77.9720   49.0720   38.6530 C.3   300  RBF300      0.2175
     25  O4'       76.9170   49.4020   37.7450 O.3   300  RBF300     -0.2175
     26  C5'       79.3930   49.4260   38.0620 C.3   300  RBF300      0.2175
     27  O5'       80.1680   49.9960   39.1380 O.3   300  RBF300     -0.2175
@<TRIPOS>BOND
     1    25    24    1
     2    26    24    1
     3    26    27    1
     4    24    22    1
     5    22    20    1
     6    22    23    1
     7    14    13    1
     8    20    21    1
     9    20    19    1
    10    13    15    2
    11    13    11    1
    12    12    11    1
    13    15    16    1
    14    11    10    2
    15    19    17    1
    16    16    17    1
    17    16     9    1
    18    17    18    1
    19    10     9    1
    20     9     8    2
    21    18     1    2
    22    18     7    1
    23     8     7    2
    24     1     2    2
    25     7     5    1
    26     2     3    2
    27     2     4    2
    28     5     4    2
    29     5     6    2
