@<TRIPOS>MOLECULE
2a59_LMZ_A_1.pdb
 20 20 0 0 0
SMALL
GASTEIGER

@<TRIPOS>ATOM
      1  N1        75.9850   44.3130   41.8310 N.2   300  LMZ300     -0.2886
      2  C2        75.9010   43.0990   42.4840 C.1   300  LMZ300      0.3668
      3  N3        74.6780   42.7500   42.9680 N.2   300  LMZ300     -0.2310
      4  C4        73.5200   43.5110   42.8560 C.1   300  LMZ300      0.2426
      5  C5        73.6370   44.8390   42.1340 C.2   300  LMZ300      0.2644
      6  C6        74.9020   45.2120   41.6300 C.2   300  LMZ300      0.2481
      7  N7        75.1120   46.4030   40.9550 N.pl3 300  LMZ300     -0.2041
      8  C8        76.5230   46.7890   40.8760 C.3   300  LMZ300      0.1504
      9  C9        77.1270   46.6580   39.4440 C.3   300  LMZ300      0.2063
     10  O9        77.5140   45.3100   39.3990 O.3   300  LMZ300     -0.2184
     11  C10       78.4030   47.5040   39.0430 C.3   300  LMZ300      0.2166
     12  O10       79.2500   47.6850   40.1560 O.3   300  LMZ300     -0.2175
     13  C11       78.2210   48.9760   38.2960 C.3   300  LMZ300      0.2175
     14  O11       76.7930   48.9800   38.1630 O.3   300  LMZ300     -0.2175
     15  C12       78.5970   49.3030   36.8290 C.3   300  LMZ300      0.2175
     16  O12       79.9670   49.0530   36.7800 O.3   300  LMZ300     -0.2175
     17  N5        72.4690   45.6310   42.0020 N.2   300  LMZ300     -0.0123
     18  O52       72.5420   46.7260   41.4040 O.2   300  LMZ300     -0.1423
     19  O4        72.3950   42.9440   43.4260 O.2   300  LMZ300     -0.2067
     20  O2        77.0380   42.3820   42.5750 O.2   300  LMZ300     -0.1744
@<TRIPOS>BOND
     1    16    15    1
     2    15    13    1
     3    14    13    1
     4    13    11    1
     5    11     9    1
     6    11    12    1
     7    10     9    1
     8     9     8    1
     9     8     7    1
    10     7     6    1
    11    18    17    1
    12     6     1    2
    13     6     5    1
    14     1     2    2
    15    17     5    2
    16     5     4    1
    17     2    20    2
    18     2     3    2
    19     4     3    2
    20     4    19    2
