@<TRIPOS>MOLECULE
2a5b_8HG_A_1.pdb
 20 22 0 0 0
SMALL
GASTEIGER

@<TRIPOS>ATOM
      1  O6        -0.3450   27.7960    0.0040 O.2   255  8HG255     -0.2058
      2  C6         0.5210   28.3010   -0.7500 C.1   255  8HG255      0.2509
      3  N1         1.3440   29.2150   -0.2300 N.2   255  8HG255     -0.2475
      4  C2         2.2870   29.7720   -0.9910 C.1   255  8HG255      0.2532
      5  N2         3.1170   30.6710   -0.5130 N.pl3 255  8HG255     -0.0226
      6  N3         2.4710   29.4770   -2.2760 N.2   255  8HG255     -0.3052
      7  C4         1.6670   28.5630   -2.8590 C.2   255  8HG255      0.2558
      8  C5         0.6540   27.9370   -2.1040 C.2   255  8HG255      0.2850
      9  N7         0.0080   27.0750   -2.9350 N.2   255  8HG255     -0.3037
     10  C8         0.6350   27.2190   -4.1130 C.1   255  8HG255      0.2771
     11  O20        0.2880   26.5660   -5.1640 O.2   255  8HG255     -0.1925
     12  N9         1.6470   28.1050   -4.1100 N.am  255  8HG255     -0.1521
     13  C1'        2.5440   28.5020   -5.2430 C.3   255  8HG255      0.2115
     14  O4'        3.7330   29.2840   -4.9760 O.3   255  8HG255     -0.3337
     15  C2'        1.7440   29.3490   -6.2270 C.3   255  8HG255      0.0875
     16  C3'        2.7820   30.2110   -6.9160 C.3   255  8HG255      0.1858
     17  O3'        2.6750   29.8820   -8.3030 O.3   255  8HG255     -0.2203
     18  C4'        4.1000   29.7610   -6.2810 C.3   255  8HG255      0.1802
     19  C5'        5.1850   30.8180   -6.3070 C.3   255  8HG255      0.2141
     20  O5'        4.7560   31.9000   -7.1520 O.3   255  8HG255     -0.2176
@<TRIPOS>BOND
     1    17    16    1
     2    20    19    1
     3    16    18    1
     4    16    15    1
     5    19    18    1
     6    18    14    1
     7    15    13    1
     8    13    14    1
     9    13    12    1
    10    11    10    2
    11    10    12   am
    12    10     9    2
    13    12     7    1
    14     9     8    2
    15     7     6    2
    16     7     8    1
    17     6     4    2
    18     8     2    1
    19     4     5    1
    20     4     3    2
    21     2     3    2
    22     2     1    2
