@<TRIPOS>MOLECULE
2a5c_8DA_A_1.pdb
 19 21 0 0 0
SMALL
GASTEIGER

@<TRIPOS>ATOM
      1  O19        2.8790    9.8620   22.3510 O.3   303  8DA303     -0.2176
      2  C5'        1.5740   10.1070   21.8320 C.3   303  8DA303      0.2142
      3  C4'        1.2090   11.6040   21.8700 C.3   303  8DA303      0.1824
      4  C3'       -0.2650   11.6700   21.9410 C.3   303  8DA303      0.1884
      5  O3'       -0.3550   12.9110   21.2600 O.3   303  8DA303     -0.2202
      6  O4'        1.6310   12.2420   23.0740 O.3   303  8DA303     -0.3146
      7  C1'        0.5660   12.6000   23.9590 C.3   303  8DA303      0.3022
      8  C2'       -0.7060   12.1650   23.2850 C.3   303  8DA303      0.1164
      9  N9         0.7110   12.1260   25.3640 N.am  303  8DA303     -0.0586
     10  C4         1.6300   11.3520   25.9410 C.2   303  8DA303      0.3789
     11  N3         2.7730   10.7070   25.3520 N.2   303  8DA303     -0.0031
     12  C5         1.3530   11.2090   27.3890 C.2   303  8DA303      0.3193
     13  N7         0.2220   11.9220   27.6410 N.2   303  8DA303     -0.2868
     14  C8        -0.0830   12.4370   26.4110 C.1   303  8DA303      0.3662
     15  O18       -1.1210   13.1860   26.2470 O.2   303  8DA303     -0.1677
     16  C6         2.2620   10.4010   28.1110 C.2   303  8DA303      0.4527
     17  N6         2.0490   10.2300   29.4430 N.pl3 303  8DA303      0.2193
     18  N1         3.3360    9.8070   27.4890 N.2   303  8DA303      0.0031
     19  C2         3.5740    9.9730   26.1620 C.3   303  8DA303      0.5255
@<TRIPOS>BOND
     1     5     4    1
     2     2     3    1
     3     2     1    1
     4     3     4    1
     5     3     6    1
     6     4     8    1
     7     6     7    1
     8     8     7    1
     9     7     9    1
    10    11    10    2
    11    11    19    1
    12     9    10    1
    13     9    14   am
    14    10    12    1
    15    19    18    1
    16    15    14    2
    17    14    13    2
    18    12    13    2
    19    12    16    1
    20    18    16    2
    21    16    17    1
