@<TRIPOS>MOLECULE
2a5d_GTP_A_1.pdb
 32 34 0 0 0
SMALL
GASTEIGER

@<TRIPOS>ATOM
      1  PG         6.1260   39.2280   38.5440 P.3   1230  GTP1230     0.5373
      2  O1G        4.9910   40.0570   39.1090 O.3   1230  GTP1230    -0.1143
      3  O2G        7.3890   39.3590   39.3640 O.3   1230  GTP1230    -0.1143
      4  O3G        6.4200   39.5400   37.1270 O.2   1230  GTP1230    -0.2221
      5  O3B        5.5280   37.6600   38.7660 O.3   1230  GTP1230    -0.2258
      6  PB         6.3590   36.3290   38.3740 P.3   1230  GTP1230     0.2277
      7  O1B        6.0510   35.8790   36.9630 O.2   1230  GTP1230    -0.5168
      8  O2B        7.8450   36.5190   38.6850 O.3   1230  GTP1230    -0.4368
      9  O3A        5.7670   35.2220   39.3730 O.3   1230  GTP1230    -0.2700
     10  PA         6.5290   34.4550   40.5890 P.3   1230  GTP1230     0.2189
     11  O1A        7.6310   33.6060   40.1050 O.2   1230  GTP1230    -0.5170
     12  O2A        6.7490   35.4410   41.6990 O.3   1230  GTP1230    -0.4371
     13  O5'        5.3670   33.4160   41.0700 O.3   1230  GTP1230    -0.3112
     14  C5'        4.1040   33.9100   41.4920 C.3   1230  GTP1230     0.1813
     15  C4'        3.4020   32.8450   42.3530 C.3   1230  GTP1230     0.1799
     16  O4'        3.1060   31.6920   41.5670 O.3   1230  GTP1230    -0.3326
     17  C3'        4.2950   32.3840   43.5010 C.3   1230  GTP1230     0.2158
     18  O3'        3.4950   32.1850   44.6490 O.3   1230  GTP1230    -0.2175
     19  C2'        4.9150   31.1140   42.9590 C.3   1230  GTP1230     0.2310
     20  O2'        5.3650   30.1760   43.9170 O.3   1230  GTP1230    -0.2158
     21  C1'        3.7470   30.5670   42.1590 C.3   1230  GTP1230     0.2293
     22  N9         4.1600   29.6170   41.1200 N.pl3 1230  GTP1230    -0.2354
     23  C8         5.1760   29.7130   40.2010 C.3   1230  GTP1230     0.2246
     24  N7         5.1500   28.6050   39.4320 N.2   1230  GTP1230    -0.2322
     25  C5         4.1190   27.8010   39.8490 C.2   1230  GTP1230     0.2182
     26  C6         3.6130   26.5580   39.4370 C.1   1230  GTP1230     0.2372
     27  O6         4.1020   25.9290   38.4960 O.2   1230  GTP1230    -0.2069
     28  N1         2.5330   26.0320   40.1080 N.2   1230  GTP1230    -0.2485
     29  C2         1.9580   26.6730   41.1750 C.1   1230  GTP1230     0.2531
     30  N2         0.9070   26.1430   41.8030 N.pl3 1230  GTP1230    -0.0226
     31  N3         2.4090   27.9080   41.5710 N.2   1230  GTP1230    -0.3074
     32  C4         3.4860   28.4400   40.9090 C.2   1230  GTP1230     0.2300
@<TRIPOS>BOND
     1     7     6    2
     2     4     1    2
     3     6     8    1
     4     6     5    1
     5     6     9    1
     6    27    26    2
     7     1     5    1
     8     1     2    1
     9     1     3    1
    10     9    10    1
    11    24    25    2
    12    24    23    1
    13    26    25    1
    14    26    28    2
    15    25    32    1
    16    11    10    2
    17    28    29    2
    18    23    22    1
    19    10    13    1
    20    10    12    1
    21    32    22    1
    22    32    31    2
    23    13    14    1
    24    22    21    1
    25    29    31    2
    26    29    30    1
    27    14    15    1
    28    16    21    1
    29    16    15    1
    30    21    19    1
    31    15    17    1
    32    19    17    1
    33    19    20    1
    34    17    18    1
