@<TRIPOS>MOLECULE
2a5f_GTP_A_1.pdb
 32 34 0 0 0
SMALL
GASTEIGER

@<TRIPOS>ATOM
      1  PG         6.0240   38.6780   38.7850 P.3   230  GTP230      0.5373
      2  O1G        4.9720   39.6000   39.3290 O.3   230  GTP230     -0.1143
      3  O2G        7.3660   38.7840   39.5120 O.3   230  GTP230     -0.1143
      4  O3G        6.1990   39.1040   37.3280 O.2   230  GTP230     -0.2221
      5  O3B        5.4070   37.0800   39.1010 O.3   230  GTP230     -0.2258
      6  PB         6.1820   35.6530   38.8000 P.3   230  GTP230      0.2277
      7  O1B        5.8630   35.3510   37.3280 O.2   230  GTP230     -0.5168
      8  O2B        7.6590   35.7600   38.9740 O.3   230  GTP230     -0.4368
      9  O3A        5.7180   34.3480   39.6290 O.3   230  GTP230     -0.2700
     10  PA         6.4710   33.6480   40.8840 P.3   230  GTP230      0.2189
     11  O1A        7.7140   32.8830   40.4940 O.2   230  GTP230     -0.5170
     12  O2A        6.7560   34.7480   41.8880 O.3   230  GTP230     -0.4371
     13  O5'        5.3100   32.6680   41.3820 O.3   230  GTP230     -0.3112
     14  C5'        4.0120   33.1240   41.6920 C.3   230  GTP230      0.1813
     15  C4'        3.2980   32.0880   42.5750 C.3   230  GTP230      0.1799
     16  O4'        2.9820   30.8990   41.8650 O.3   230  GTP230     -0.3326
     17  C3'        4.1720   31.6340   43.7290 C.3   230  GTP230      0.2158
     18  O3'        3.3440   31.2850   44.8020 O.3   230  GTP230     -0.2175
     19  C2'        4.8450   30.3930   43.2310 C.3   230  GTP230      0.2310
     20  O2'        5.1810   29.5510   44.3030 O.3   230  GTP230     -0.2158
     21  C1'        3.7250   29.8040   42.3900 C.3   230  GTP230      0.2293
     22  N9         4.1980   28.8710   41.3490 N.pl3 230  GTP230     -0.2354
     23  C8         5.2310   28.9710   40.4730 C.3   230  GTP230      0.2246
     24  N7         5.2660   27.8510   39.7190 N.2   230  GTP230     -0.2322
     25  C5         4.2690   27.0270   40.1190 C.2   230  GTP230      0.2182
     26  C6         3.8410   25.7580   39.7110 C.1   230  GTP230      0.2372
     27  O6         4.3950   25.1520   38.7950 O.2   230  GTP230     -0.2069
     28  N1         2.7670   25.1830   40.3450 N.2   230  GTP230     -0.2485
     29  C2         2.1220   25.8400   41.3670 C.1   230  GTP230      0.2531
     30  N2         1.0790   25.2730   41.9690 N.pl3 230  GTP230     -0.0226
     31  N3         2.5370   27.0920   41.7700 N.2   230  GTP230     -0.3074
     32  C4         3.5940   27.6680   41.1450 C.2   230  GTP230      0.2300
@<TRIPOS>BOND
     1     4     1    2
     2     7     6    2
     3     1     5    1
     4     1     2    1
     5     1     3    1
     6    27    26    2
     7     6     8    1
     8     6     5    1
     9     6     9    1
    10     9    10    1
    11    26    25    1
    12    26    28    2
    13    24    25    2
    14    24    23    1
    15    25    32    1
    16    28    29    2
    17    23    22    1
    18    11    10    2
    19    10    13    1
    20    10    12    1
    21    32    22    1
    22    32    31    2
    23    22    21    1
    24    29    31    2
    25    29    30    1
    26    13    14    1
    27    14    15    1
    28    16    21    1
    29    16    15    1
    30    21    19    1
    31    15    17    1
    32    19    17    1
    33    19    20    1
    34    17    18    1
