@<TRIPOS>MOLECULE
2a5f_NAD_B_1.pdb
 44 48 0 0 0
SMALL
GASTEIGER

@<TRIPOS>ATOM
      1  PA        17.9340   55.0670   52.5240 P.3   1536  NAD1536     0.2189
      2  O1A       17.8000   54.0950   51.3830 O.2   1536  NAD1536    -0.5170
      3  O2A       16.9290   54.8050   53.5470 O.3   1536  NAD1536    -0.4371
      4  O5B       19.4400   54.8340   53.1050 O.3   1536  NAD1536    -0.3112
      5  C5B       19.8380   55.2870   54.3910 C.3   1536  NAD1536     0.1813
      6  C4B       20.5330   54.1240   55.1010 C.3   1536  NAD1536     0.1821
      7  O4B       19.6050   53.1300   55.4880 O.3   1536  NAD1536    -0.3135
      8  C3B       21.5820   53.4130   54.2480 C.3   1536  NAD1536     0.2184
      9  O3B       22.7870   54.1320   54.1670 O.3   1536  NAD1536    -0.2174
     10  C2B       21.6650   52.0830   54.9650 C.3   1536  NAD1536     0.2570
     11  O2B       22.4480   52.1440   56.1560 O.3   1536  NAD1536    -0.2130
     12  C1B       20.2070   51.8670   55.3250 C.3   1536  NAD1536     0.3186
     13  N9A       19.4410   51.1420   54.2920 N.pl3 1536  NAD1536    -0.1439
     14  C8A       18.9830   51.5590   53.0570 C.3   1536  NAD1536     0.3377
     15  N7A       18.3100   50.5400   52.4950 N.2   1536  NAD1536    -0.2095
     16  C5A       18.3490   49.4820   53.3550 C.2   1536  NAD1536     0.2526
     17  C6A       17.8430   48.1840   53.2910 C.2   1536  NAD1536     0.4393
     18  N6A       17.1140   47.7790   52.2380 N.pl3 1536  NAD1536     0.2180
     19  N1A       18.0630   47.3450   54.3730 N.2   1536  NAD1536     0.0021
     20  C2A       18.7820   47.7610   55.4900 C.3   1536  NAD1536     0.5254
     21  N3A       19.2880   49.0470   55.5390 N.2   1536  NAD1536    -0.0055
     22  C4A       19.0540   49.8640   54.4870 C.2   1536  NAD1536     0.3518
     23  O3        17.9770   56.6100   52.1290 O.3   1536  NAD1536    -0.2703
     24  PN        18.9140   57.2050   50.9530 P.3   1536  NAD1536     0.2189
     25  O1N       18.7320   56.4540   49.7030 O.2   1536  NAD1536    -0.5170
     26  O2N       20.1830   57.3330   51.6450 O.3   1536  NAD1536    -0.4371
     27  O5D       18.1610   58.5610   50.5200 O.3   1536  NAD1536    -0.3112
     28  C5D       17.8750   59.5880   51.4150 C.3   1536  NAD1536     0.1813
     29  C4D       17.6890   60.8690   50.5950 C.3   1536  NAD1536     0.1799
     30  O4D       18.8080   61.1420   49.7710 O.3   1536  NAD1536    -0.3327
     31  C3D       16.4770   60.8140   49.6590 C.3   1536  NAD1536     0.2158
     32  O3D       15.9520   62.1010   49.6420 O.3   1536  NAD1536    -0.2175
     33  C2D       17.0340   60.6340   48.2650 C.3   1536  NAD1536     0.2309
     34  O2D       16.3020   61.3210   47.2860 O.3   1536  NAD1536    -0.2158
     35  C1D       18.4090   61.2660   48.3930 C.3   1536  NAD1536     0.2263
     36  N1N       19.4020   60.6190   47.5210 N.pl3 1536  NAD1536    -0.2787
     37  C2N       20.2160   59.6390   48.0480 C.3   1536  NAD1536     0.1244
     38  C3N       21.2110   59.0450   47.2630 C.2   1536  NAD1536     0.0544
     39  C7N       22.2220   58.1050   47.8310 C.2   1536  NAD1536     0.2818
     40  O7N       23.4260   58.0310   47.1980 O.2   1536  NAD1536    -0.2670
     41  N7N       21.9960   57.3290   48.8800 N.am  1536  NAD1536    -0.0839
     42  C4N       21.3400   59.4560   45.9530 C.2   1536  NAD1536     0.0033
     43  C5N       20.5250   60.4620   45.4410 C.2   1536  NAD1536     0.0157
     44  C6N       19.5510   61.0330   46.2320 C.2   1536  NAD1536     0.0633
@<TRIPOS>BOND
     1    43    42    1
     2    43    44    2
     3    42    38    2
     4    44    36    1
     5    40    39    2
     6    38    39    1
     7    38    37    1
     8    34    33    1
     9    36    37    1
    10    36    35    1
    11    39    41   am
    12    33    35    1
    13    33    31    1
    14    35    30    1
    15    32    31    1
    16    31    29    1
    17    25    24    2
    18    30    29    1
    19    27    24    1
    20    27    28    1
    21    29    28    1
    22    24    26    1
    23    24    23    1
    24     2     1    2
    25    23     1    1
    26    18    17    1
    27    15    14    1
    28    15    16    2
    29     1     4    1
    30     1     3    1
    31    14    13    1
    32     4     5    1
    33    17    16    1
    34    17    19    2
    35    16    22    1
    36     9     8    1
    37     8    10    1
    38     8     6    1
    39    13    22    1
    40    13    12    1
    41    19    20    1
    42     5     6    1
    43    22    21    2
    44    10    12    1
    45    10    11    1
    46     6     7    1
    47    12     7    1
    48    20    21    1
