@<TRIPOS>MOLECULE
2a5g_GTP_A_1.pdb
 32 34 0 0 0
SMALL
GASTEIGER

@<TRIPOS>ATOM
      1  PG        -2.0080   -7.9770    3.8570 P.3   230  GTP230      0.5373
      2  O1G       -2.0660   -8.9910    2.7370 O.2   230  GTP230     -0.2221
      3  O2G       -2.7870   -6.7490    3.4540 O.3   230  GTP230     -0.1143
      4  O3G       -0.5750   -7.5930    4.1470 O.3   230  GTP230     -0.1143
      5  O3B       -2.6600   -8.6320    5.1740 O.3   230  GTP230     -0.2258
      6  PB        -2.7610   -7.8030    6.5520 P.3   230  GTP230      0.2277
      7  O1B       -1.4220   -7.8030    7.2500 O.3   230  GTP230     -0.4368
      8  O2B       -3.2570   -6.3960    6.3200 O.2   230  GTP230     -0.5168
      9  O3A       -3.8050   -8.6620    7.4290 O.3   230  GTP230     -0.2700
     10  PA        -5.3270   -8.1780    7.6340 P.3   230  GTP230      0.2189
     11  O1A       -5.3500   -6.9160    8.4620 O.3   230  GTP230     -0.4371
     12  O2A       -6.0290   -7.9800    6.3120 O.2   230  GTP230     -0.5170
     13  O5'       -5.9830   -9.3810    8.4710 O.3   230  GTP230     -0.3112
     14  C5'       -5.8730  -10.7140    8.0210 C.3   230  GTP230      0.1813
     15  C4'       -6.9780  -11.5460    8.6540 C.3   230  GTP230      0.1799
     16  O4'       -6.6060  -11.8970    9.9740 O.3   230  GTP230     -0.3326
     17  C3'       -8.2790  -10.7640    8.7500 C.3   230  GTP230      0.2158
     18  O3'       -9.3680  -11.6010    8.4540 O.3   230  GTP230     -0.2175
     19  C2'       -8.3400  -10.3160   10.1900 C.3   230  GTP230      0.2310
     20  O2'       -9.6590  -10.2050   10.6690 O.3   230  GTP230     -0.2158
     21  C1'       -7.5690  -11.4180   10.8980 C.3   230  GTP230      0.2293
     22  N9        -6.9430  -10.9220   12.1360 N.pl3 230  GTP230     -0.2354
     23  C8        -6.2240   -9.7690   12.3070 C.3   230  GTP230      0.2246
     24  N7        -5.8350   -9.6990   13.6010 N.2   230  GTP230     -0.2322
     25  C5        -6.2970  -10.7880   14.2520 C.2   230  GTP230      0.2182
     26  C6        -6.1930  -11.2160   15.5680 C.1   230  GTP230      0.2372
     27  O6        -5.5810  -10.5420   16.3950 O.2   230  GTP230     -0.2069
     28  N1        -6.7850  -12.3980   15.9550 N.2   230  GTP230     -0.2485
     29  C2        -7.4700  -13.1540   15.0250 C.1   230  GTP230      0.2531
     30  N2        -8.0430  -14.2980   15.3830 N.pl3 230  GTP230     -0.0226
     31  N3        -7.5750  -12.7250   13.7220 N.2   230  GTP230     -0.3074
     32  C4        -6.9960  -11.5630   13.3410 C.2   230  GTP230      0.2300
@<TRIPOS>BOND
     1     2     1    2
     2     3     1    1
     3     1     4    1
     4     1     5    1
     5     5     6    1
     6    12    10    2
     7     8     6    2
     8     6     7    1
     9     6     9    1
    10     9    10    1
    11    10    11    1
    12    10    13    1
    13    14    13    1
    14    14    15    1
    15    18    17    1
    16    15    17    1
    17    15    16    1
    18    17    19    1
    19    16    21    1
    20    19    20    1
    21    19    21    1
    22    21    22    1
    23    22    23    1
    24    22    32    1
    25    23    24    1
    26    32    31    2
    27    32    25    1
    28    24    25    2
    29    31    29    2
    30    25    26    1
    31    29    30    1
    32    29    28    2
    33    26    28    2
    34    26    27    2
