@<TRIPOS>MOLECULE
2a5i_AZP_A_1.pdb
 46 47 0 0 0
SMALL
GASTEIGER

@<TRIPOS>ATOM
      1  N         17.4470    2.7070   20.8740 N.am  307  AZP307     -0.1611
      2  CAI       18.3480    3.3380   20.1040 C.2   307  AZP307      0.4218
      3  OAH       17.8170    4.1610   19.0270 O.3   307  AZP307     -0.4285
      4  CAG       18.8680    4.7480   18.2510 C.3   307  AZP307      0.2368
      5  CAE       19.6150    5.8790   18.9450 C.ar  307  AZP307      0.0213
      6  CAD       19.1250    7.1870   18.8780 C.ar  307  AZP307     -0.0007
      7  CAC       19.8450    8.2270   19.4940 C.ar  307  AZP307     -0.0002
      8  CAB       21.0520    7.9540   20.1560 C.ar  307  AZP307     -0.0000
      9  CAA       21.5420    6.6350   20.2240 C.ar  307  AZP307     -0.0002
     10  CAF       20.8170    5.5910   19.6330 C.ar  307  AZP307     -0.0007
     11  OAL       19.5680    3.2800   20.3280 O.2   307  AZP307     -0.2245
     12  CA        17.7590    1.8930   22.0650 C.3   307  AZP307      0.1761
     13  CB        17.3200    2.7110   23.2690 C.3   307  AZP307      0.0312
     14  CG        17.2520    1.9280   24.5680 C.3   307  AZP307      0.0022
     15  CD1       18.6300    2.0600   25.2260 C.3   307  AZP307      0.0001
     16  CD2       16.2000    2.5820   25.4810 C.3   307  AZP307      0.0001
     17  C         17.0310    0.5970   21.8830 C.2   307  AZP307      0.2617
     18  O         15.8070    0.5050   21.7030 O.2   307  AZP307     -0.2715
     19  NAS       17.7340   -0.4950   21.8270 N.am  307  AZP307     -0.1959
     20  CAT       17.0460   -1.7670   21.6260 C.3   307  AZP307      0.1787
     21  CAV       18.0600   -2.8940   21.7870 C.3   307  AZP307      0.0575
     22  CAW       18.9280   -3.0480   20.5510 C.ar  307  AZP307     -0.0200
     23  CBF       18.3770   -3.0310   19.2690 C.ar  307  AZP307     -0.0042
     24  CBG       19.2280   -3.2530   18.1640 C.ar  307  AZP307     -0.0003
     25  CBH       20.5980   -3.5140   18.3480 C.ar  307  AZP307     -0.0000
     26  CBI       21.1320   -3.5950   19.6100 C.ar  307  AZP307     -0.0003
     27  CBJ       20.3040   -3.3710   20.7140 C.ar  307  AZP307     -0.0042
     28  CAU       15.9600   -1.9320   22.6700 C.2   307  AZP307      0.2795
     29  OAY       16.1580   -1.5620   23.8020 O.2   307  AZP307     -0.2698
     30  NAX       14.7890   -2.4880   22.3690 N.am  307  AZP307     -0.1061
     31  NAZ       13.8090   -2.7580   23.4300 N.am  307  AZP307     -0.1868
     32  CBA       12.6240   -1.9210   23.6020 C.3   307  AZP307      0.1266
     33  CBB       13.0670   -0.6490   24.2860 C.3   307  AZP307      0.1119
     34  CBC       11.8550    0.1820   24.5670 C.2   307  AZP307      0.2625
     35  NBE       11.7350    0.8560   25.7120 N.am  307  AZP307     -0.0877
     36  OBD       10.9820    0.1550   23.7110 O.2   307  AZP307     -0.2716
     37  CBK       13.9060   -3.8970   24.1290 C.2   307  AZP307      0.2459
     38  OBL       13.2820   -4.0340   25.2010 O.2   307  AZP307     -0.2732
     39  CBM       14.9340   -4.9350   23.6700 C.3   307  AZP307      0.1313
     40  CBO       15.6700   -5.4550   24.9120 C.3   307  AZP307      0.2587
     41  OBN       16.3480   -4.2910   25.3830 O.3   307  AZP307     -0.2105
     42  CBP       16.7630   -6.4550   24.5350 C.2   307  AZP307      0.3482
     43  OBQ       16.6750   -7.6780   24.6390 O.2   307  AZP307     -0.2473
     44  OBR       17.9880   -5.9150   24.0190 O.3   307  AZP307     -0.4468
     45  CBS       18.8420   -6.9430   23.4810 C.3   307  AZP307      0.2086
     46  CBT       19.7210   -6.1150   22.5530 C.3   307  AZP307      0.0513
@<TRIPOS>BOND
     1    24    25   ar
     2    24    23   ar
     3     4     5    1
     4     4     3    1
     5    25    26   ar
     6     6     5   ar
     7     6     7   ar
     8     5    10   ar
     9     3     2    1
    10    23    22   ar
    11     7     8   ar
    12    26    27   ar
    13    10     9   ar
    14     2    11    2
    15     2     1   am
    16     8     9   ar
    17    22    27   ar
    18    22    21    1
    19     1    12    1
    20    20    21    1
    21    20    19    1
    22    20    28    1
    23    18    17    2
    24    19    17   am
    25    17    12    1
    26    12    13    1
    27    30    28   am
    28    30    31    1
    29    46    45    1
    30    28    29    2
    31    13    14    1
    32    31    32    1
    33    31    37   am
    34    45    44    1
    35    32    33    1
    36    39    37    1
    37    39    40    1
    38    36    34    2
    39    44    42    1
    40    37    38    2
    41    33    34    1
    42    42    43    2
    43    42    40    1
    44    34    35   am
    45    14    15    1
    46    14    16    1
    47    40    41    1
