@<TRIPOS>MOLECULE
2a5j_GDP_A_1.pdb
 28 30 0 0 0
SMALL
GASTEIGER

@<TRIPOS>ATOM
      1  PB        27.3160   -7.6360   16.7270 P.3   2696  GDP2696     0.5373
      2  O1B       26.1300   -8.4670   17.1860 O.3   2696  GDP2696    -0.1143
      3  O2B       27.1590   -7.2560   15.2710 O.2   2696  GDP2696    -0.2221
      4  O3B       27.6740   -6.4900   17.6520 O.3   2696  GDP2696    -0.1143
      5  O3A       28.5950   -8.6120   16.6950 O.3   2696  GDP2696    -0.2261
      6  PA        29.7340   -8.8010   17.8180 P.3   2696  GDP2696     0.2231
      7  O1A       30.6950   -7.6450   17.7840 O.2   2696  GDP2696    -0.5169
      8  O2A       29.0890   -9.0950   19.1500 O.3   2696  GDP2696    -0.4370
      9  O5'       30.4980  -10.1060   17.2670 O.3   2696  GDP2696    -0.3111
     10  C5'       29.7630  -11.3040   17.0080 C.3   2696  GDP2696     0.1813
     11  C4'       30.6770  -12.5180   16.9480 C.3   2696  GDP2696     0.1799
     12  O4'       31.5660  -12.3880   15.8230 O.3   2696  GDP2696    -0.3326
     13  C3'       31.5390  -12.6570   18.1740 C.3   2696  GDP2696     0.2158
     14  O3'       31.6190  -14.0740   18.4330 O.3   2696  GDP2696    -0.2175
     15  C2'       32.8580  -12.0870   17.7090 C.3   2696  GDP2696     0.2310
     16  O2'       33.9500  -12.6070   18.4510 O.3   2696  GDP2696    -0.2158
     17  C1'       32.9200  -12.4770   16.2370 C.3   2696  GDP2696     0.2293
     18  N9        33.6270  -11.5030   15.3690 N.pl3 2696  GDP2696    -0.2354
     19  C8        33.3760  -10.1800   15.2580 C.3   2696  GDP2696     0.2246
     20  N7        34.1770   -9.5940   14.3240 N.2   2696  GDP2696    -0.2322
     21  C5        34.9490  -10.5810   13.8180 C.2   2696  GDP2696     0.2182
     22  C6        36.0010  -10.6660   12.7870 C.1   2696  GDP2696     0.2372
     23  O6        36.3620   -9.6470   12.1630 O.2   2696  GDP2696    -0.2069
     24  N1        36.5250  -11.8930   12.5540 N.2   2696  GDP2696    -0.2485
     25  C2        36.1230  -13.0000   13.2300 C.1   2696  GDP2696     0.2531
     26  N2        36.6960  -14.2000   12.9430 N.pl3 2696  GDP2696    -0.0226
     27  N3        35.1610  -12.9990   14.1850 N.2   2696  GDP2696    -0.3074
     28  C4        34.5560  -11.8290   14.4910 C.2   2696  GDP2696     0.2300
@<TRIPOS>BOND
     1    23    22    2
     2    24    22    2
     3    24    25    2
     4    22    21    1
     5    26    25    1
     6    25    27    2
     7    21    20    2
     8    21    28    1
     9    27    28    2
    10    20    19    1
    11    28    18    1
    12    19    18    1
    13     3     1    2
    14    18    17    1
    15    12    17    1
    16    12    11    1
    17    17    15    1
    18     5     1    1
    19     5     6    1
    20     1     2    1
    21     1     4    1
    22    11    10    1
    23    11    13    1
    24    10     9    1
    25     9     6    1
    26    15    13    1
    27    15    16    1
    28     7     6    2
    29     6     8    1
    30    13    14    1
