@<TRIPOS>MOLECULE
2a5k_AZP_A_1.pdb
 46 47 0 0 0
SMALL
GASTEIGER

@<TRIPOS>ATOM
      1  N         67.5670   20.8850   49.0400 N.am  307  AZP307     -0.1611
      2  CAI       66.8610   20.5660   47.9450 C.2   307  AZP307      0.4218
      3  OAH       66.2460   21.6740   47.2480 O.3   307  AZP307     -0.4285
      4  CAG       64.9580   21.1780   46.8260 C.3   307  AZP307      0.2368
      5  CAE       63.8760   22.2510   46.7550 C.ar  307  AZP307      0.0213
      6  CAD       62.8880   22.3270   47.7510 C.ar  307  AZP307     -0.0007
      7  CAC       61.9090   23.3250   47.6550 C.ar  307  AZP307     -0.0002
      8  CAB       61.9000   24.2350   46.5960 C.ar  307  AZP307     -0.0000
      9  CAA       62.8770   24.1610   45.6030 C.ar  307  AZP307     -0.0002
     10  CAF       63.8530   23.1560   45.6890 C.ar  307  AZP307     -0.0007
     11  OAL       66.7040   19.4230   47.5140 O.2   307  AZP307     -0.2245
     12  CA        68.3570   19.9180   49.8230 C.3   307  AZP307      0.1761
     13  CB        69.8090   20.3700   49.9570 C.3   307  AZP307      0.0312
     14  CG        70.5300   20.6040   48.6290 C.3   307  AZP307      0.0022
     15  CD1       71.8230   21.3710   48.9470 C.3   307  AZP307      0.0001
     16  CD2       70.8600   19.2570   48.0120 C.3   307  AZP307      0.0001
     17  C         67.8620   19.8130   51.2280 C.2   307  AZP307      0.2617
     18  O         67.5210   20.7910   51.9170 O.2   307  AZP307     -0.2715
     19  NAS       67.8360   18.5850   51.7270 N.am  307  AZP307     -0.1959
     20  CAT       67.4130   18.3340   53.0850 C.3   307  AZP307      0.1787
     21  CAV       67.3980   16.8290   53.3450 C.3   307  AZP307      0.0575
     22  CAW       66.2150   16.0610   52.7020 C.ar  307  AZP307     -0.0200
     23  CBF       64.8720   16.2910   53.0590 C.ar  307  AZP307     -0.0042
     24  CBG       63.8190   15.5340   52.5110 C.ar  307  AZP307     -0.0003
     25  CBH       64.0540   14.5190   51.5690 C.ar  307  AZP307     -0.0000
     26  CBI       65.3710   14.2770   51.2080 C.ar  307  AZP307     -0.0003
     27  CBJ       66.4370   15.0450   51.7460 C.ar  307  AZP307     -0.0042
     28  CAU       68.4380   19.0490   53.9120 C.2   307  AZP307      0.2795
     29  OAY       69.6220   19.1160   53.5210 O.2   307  AZP307     -0.2698
     30  NAX       67.9790   19.6120   55.0350 N.am  307  AZP307     -0.1061
     31  NAZ       68.7800   20.1880   56.1170 N.am  307  AZP307     -0.1868
     32  CBA       68.9840   21.6210   56.1890 C.3   307  AZP307      0.1266
     33  CBB       70.1050   21.9410   55.2690 C.3   307  AZP307      0.1119
     34  CBC       70.1970   23.4410   55.3020 C.2   307  AZP307      0.2625
     35  NBE       71.4120   23.9980   55.0840 N.am  307  AZP307     -0.0877
     36  OBD       69.1530   24.0810   55.5500 O.2   307  AZP307     -0.2716
     37  CBK       69.2980   19.4190   57.0970 C.2   307  AZP307      0.2459
     38  OBL       70.0970   19.8850   57.8790 O.2   307  AZP307     -0.2732
     39  CBM       68.8660   17.9800   57.2940 C.3   307  AZP307      0.1313
     40  CBO       70.0070   17.0050   57.0500 C.3   307  AZP307      0.2587
     41  OBN       70.5560   17.3440   55.7730 O.3   307  AZP307     -0.2105
     42  CBP       69.4930   15.5740   57.1770 C.2   307  AZP307      0.3482
     43  OBQ       69.5870   15.0140   58.2560 O.2   307  AZP307     -0.2473
     44  OBR       68.9160   14.8830   56.0090 O.3   307  AZP307     -0.4468
     45  CBS       68.0940   13.7390   56.3280 C.3   307  AZP307      0.2086
     46  CBT       67.7890   13.0840   55.0010 C.3   307  AZP307      0.0513
@<TRIPOS>BOND
     1     9    10   ar
     2     9     8   ar
     3    10     5   ar
     4     8     7   ar
     5     5     4    1
     6     5     6   ar
     7     4     3    1
     8     3     2    1
     9    11     2    2
    10     7     6   ar
    11     2     1   am
    12    16    14    1
    13    14    15    1
    14    14    13    1
    15     1    12    1
    16    12    13    1
    17    12    17    1
    18    26    25   ar
    19    26    27   ar
    20    17    19   am
    21    17    18    2
    22    25    24   ar
    23    19    20    1
    24    27    22   ar
    25    24    23   ar
    26    22    23   ar
    27    22    21    1
    28    20    21    1
    29    20    28    1
    30    29    28    2
    31    28    30   am
    32    46    45    1
    33    30    31    1
    34    35    34   am
    35    33    34    1
    36    33    32    1
    37    34    36    2
    38    41    40    1
    39    44    45    1
    40    44    42    1
    41    31    32    1
    42    31    37   am
    43    40    42    1
    44    40    39    1
    45    37    39    1
    46    37    38    2
    47    42    43    2
