@<TRIPOS>MOLECULE
2a5s_GLU_A_1.pdb
 10 9 0 0 0
SMALL
GASTEIGER

@<TRIPOS>ATOM
      1  N         15.8290   24.1380   38.9810 N.3   1001  GLU1001    -0.1208
      2  CA        15.9350   25.1370   37.8670 C.3   1001  GLU1001     0.1949
      3  C         14.7680   26.1190   37.8810 C.2   1001  GLU1001     0.3819
      4  O         14.7400   27.0040   37.0020 O.co2 1001  GLU1001    -0.2441
      5  CB        15.9890   24.4160   36.5130 C.3   1001  GLU1001     0.0424
      6  CG        17.3860   23.9070   36.0960 C.3   1001  GLU1001     0.1161
      7  CD        18.4170   25.0200   35.8650 C.2   1001  GLU1001     0.3649
      8  OE1       19.5470   24.9040   36.3950 O.co2 1001  GLU1001    -0.2457
      9  OE2       18.1110   26.0040   35.1500 O.co2 1001  GLU1001    -0.2457
     10  OXT       13.8990   25.9880   38.7700 O.co2 1001  GLU1001    -0.2441
@<TRIPOS>BOND
     1     9     7   ar
     2     7     6    1
     3     7     8   ar
     4     6     5    1
     5     5     2    1
     6     4     3   ar
     7     2     3    1
     8     2     1    1
     9     3    10   ar
