@<TRIPOS>MOLECULE
2a5t_GLU_B_1.pdb
 10 9 0 0 0
SMALL
GASTEIGER

@<TRIPOS>ATOM
      1  N         34.7700   72.6330   13.2670 N.3   2002  GLU2002    -0.1208
      2  CA        35.4570   71.9320   12.1330 C.3   2002  GLU2002     0.1949
      3  C         36.3840   72.8670   11.3580 C.2   2002  GLU2002     0.3819
      4  O         37.0030   72.4020   10.3890 O.co2 2002  GLU2002    -0.2441
      5  CB        34.4170   71.3130   11.1790 C.3   2002  GLU2002     0.0424
      6  CG        33.9410   69.9000   11.5720 C.3   2002  GLU2002     0.1161
      7  CD        35.0800   68.8920   11.7820 C.2   2002  GLU2002     0.3649
      8  OE1       35.2120   68.3590   12.9120 O.co2 2002  GLU2002    -0.2457
      9  OE2       35.8380   68.6260   10.8250 O.co2 2002  GLU2002    -0.2457
     10  OXT       36.4730   74.0520   11.7340 O.co2 2002  GLU2002    -0.2441
@<TRIPOS>BOND
     1     4     3   ar
     2     9     7   ar
     3     5     6    1
     4     5     2    1
     5     3    10   ar
     6     3     2    1
     7     6     7    1
     8     7     8   ar
     9     2     1    1
