@<TRIPOS>MOLECULE
2a5u_QYT_A_1.pdb
 18 20 0 0 0
SMALL
GASTEIGER

@<TRIPOS>ATOM
      1  C1        43.6770   12.6420   29.7220 C.2   101  QYT101      0.0200
      2  C2        42.7360   13.2970   30.6610 C.2   101  QYT101     -0.0026
      3  C3        43.1450   14.3460   31.4720 C.2   101  QYT101     -0.0184
      4  C7        40.2380   15.2630   33.9000 C.1   101  QYT101      0.2061
      5  C11       38.4880   14.1470   32.7760 C.1   101  QYT101      0.2453
      6  C13       45.4170   14.2090   30.5130 C.ar  101  QYT101      0.0810
      7  C14       44.9610   13.0780   29.6650 C.ar  101  QYT101      0.0952
      8  C16       47.1300   12.8870   28.7660 C.ar  101  QYT101      0.1194
      9  N18       46.7620   14.6190   30.4190 N.ar  101  QYT101     -0.2447
     10  C4        44.5620   14.8140   31.3680 C.3   101  QYT101      0.0733
     11  C5        42.2430   15.0400   32.4810 C.2   101  QYT101     -0.0008
     12  C6        40.9350   14.7990   32.7170 C.3   101  QYT101      0.2037
     13  S8        39.8030   13.9080   31.6910 S.3   101  QYT101      0.0136
     14  N9        38.8610   14.8910   33.9230 N.2   101  QYT101     -0.2554
     15  O10       40.7720   15.9160   34.8020 O.2   101  QYT101     -0.2122
     16  O12       37.3430   13.7130   32.5670 O.2   101  QYT101     -0.2017
     17  N15       45.8980   12.4730   28.8120 N.ar  101  QYT101     -0.2410
     18  C17       47.5870   14.0280   29.6180 C.ar  101  QYT101      0.1191
@<TRIPOS>BOND
     1     8    17   ar
     2     8    18   ar
     3    17     7   ar
     4    18     9   ar
     5     7     1    1
     6     7     6   ar
     7     1     2    2
     8     9     6   ar
     9     6    10    1
    10     2     3    1
    11    10     3    1
    12     3    11    2
    13    13    12    1
    14    13     5    1
    15    11    12    1
    16    16     5    2
    17    12     4    1
    18     5    14    2
    19     4    14    2
    20     4    15    2
