@<TRIPOS>MOLECULE
2a5x_NSB_A_1.pdb
 11 10 0 0 0
SMALL
GASTEIGER

@<TRIPOS>ATOM
      1  O50        0.2320   69.2300   35.7960 O.3   380  NSB380     -0.3075
      2  S8         1.0630   69.5560   34.6150 S.3   380  NSB380     -0.1961
      3  O46        0.6990   70.9020   34.1230 O.3   380  NSB380     -0.3075
      4  O48        2.4980   69.5690   34.9920 O.3   380  NSB380     -0.3075
      5  C6         0.7970   68.3980   33.4440 C.3   380  NSB380      0.1031
      6  C4         1.0470   67.0020   34.0100 C.3   380  NSB380     -0.0007
      7  C2         1.6320   66.0720   32.9490 C.3   380  NSB380     -0.0716
      8  N1         2.6530   65.1190   33.4410 N.4   380  NSB380      0.3857
      9  C20        3.2110   64.4460   32.2650 C.3   380  NSB380     -0.0960
     10  C18        2.0490   64.1070   34.3240 C.3   380  NSB380     -0.0960
     11  C16        3.7470   65.7950   34.1580 C.3   380  NSB380     -0.0960
@<TRIPOS>BOND
     1     9     8    1
     2     7     8    1
     3     7     6    1
     4     8    11    1
     5     8    10    1
     6     5     6    1
     7     5     2    1
     8     3     2    1
     9     2     4    1
    10     2     1    1
