@<TRIPOS>MOLECULE
2a5x_ANP_A_1.pdb
 31 33 0 0 0
SMALL
GASTEIGER

@<TRIPOS>ATOM
      1  PG        25.0530   68.1470   22.8760 P.3   378  ANP378      0.4884
      2  O1G       26.3060   68.5910   22.1700 O.3   378  ANP378     -0.1240
      3  O2G       25.1960   66.9370   23.7650 O.3   378  ANP378     -0.1240
      4  O3G       23.7780   68.1200   22.0430 O.2   378  ANP378     -0.2331
      5  PB        25.2960   69.4520   25.5330 P.3   378  ANP378      0.4669
      6  O1B       26.2100   68.3030   25.8560 O.3   378  ANP378     -0.1253
      7  O2B       25.8560   70.8560   25.7380 O.2   378  ANP378     -0.2351
      8  N3B       24.8350   69.5000   23.8830 N.3   378  ANP378     -0.0163
      9  PA        23.4810   68.9560   27.7450 P.3   378  ANP378      0.2220
     10  O1A       23.0960   67.5030   27.9100 O.2   378  ANP378     -0.5170
     11  O2A       24.6270   69.5630   28.5170 O.3   378  ANP378     -0.4370
     12  O3A       23.8360   69.2160   26.1790 O.3   378  ANP378     -0.2360
     13  O5'       22.1350   69.8100   27.9070 O.3   378  ANP378     -0.3111
     14  C5'       22.0100   71.1120   27.3380 C.3   378  ANP378      0.1813
     15  C4'       20.5470   71.3120   26.9580 C.3   378  ANP378      0.1821
     16  O4'       19.7040   70.7220   27.9420 O.3   378  ANP378     -0.3135
     17  C3'       20.1290   72.7700   26.8610 C.3   378  ANP378      0.2184
     18  O3'       19.4930   72.9670   25.5870 O.3   378  ANP378     -0.2174
     19  C2'       19.1360   72.9270   27.9810 C.3   378  ANP378      0.2570
     20  O2'       18.1210   73.8990   27.7190 O.3   378  ANP378     -0.2130
     21  C1'       18.5610   71.5380   28.1100 C.3   378  ANP378      0.3186
     22  N9        17.9590   71.3750   29.4550 N.pl3 378  ANP378     -0.1439
     23  C8        18.5680   71.5510   30.6400 C.3   378  ANP378      0.3377
     24  N7        17.7110   71.3600   31.6750 N.2   378  ANP378     -0.2095
     25  C5        16.5110   71.0510   31.1370 C.2   378  ANP378      0.2526
     26  C6        15.1600   70.7290   31.6400 C.2   378  ANP378      0.4393
     27  N6        14.9020   70.6870   32.9610 N.pl3 378  ANP378      0.2180
     28  N1        14.1930   70.4760   30.7340 N.2   378  ANP378      0.0021
     29  C2        14.4140   70.5120   29.4050 C.3   378  ANP378      0.5254
     30  N3        15.6110   70.7950   28.8800 N.2   378  ANP378     -0.0055
     31  C4        16.6780   71.0670   29.6750 C.2   378  ANP378      0.3518
@<TRIPOS>BOND
     1     4     1    2
     2     2     1    1
     3     1     3    1
     4     1     8    1
     5     8     5    1
     6     5     7    2
     7     5     6    1
     8     5    12    1
     9    18    17    1
    10    12     9    1
    11    17    15    1
    12    17    19    1
    13    15    14    1
    14    15    16    1
    15    14    13    1
    16    20    19    1
    17     9    13    1
    18     9    10    2
    19     9    11    1
    20    16    21    1
    21    19    21    1
    22    21    22    1
    23    30    29    1
    24    30    31    2
    25    29    28    1
    26    22    31    1
    27    22    23    1
    28    31    25    1
    29    23    24    1
    30    28    26    2
    31    25    26    1
    32    25    24    2
    33    26    27    1
