@<TRIPOS>MOLECULE
2a5x_LAR_A_1.pdb
 29 31 0 0 0
SMALL
GASTEIGER

@<TRIPOS>ATOM
      1  S1        19.2910   78.8300   23.8170 S.3   379  LAR379     -0.0192
      2  N1        20.7770   76.8040   24.1800 N.2   379  LAR379     -0.1932
      3  O1        22.4840   75.4470   28.6780 O.2   379  LAR379     -0.2449
      4  O2        23.5530   77.4760   28.3640 O.3   379  LAR379     -0.4490
      5  O3        23.4580   79.1380   25.2360 O.3   379  LAR379     -0.3329
      6  O4        21.4380   78.7260   26.2890 O.3   379  LAR379     -0.1930
      7  O5        18.5350   76.4730   24.3910 O.2   379  LAR379     -0.2155
      8  C1        22.7990   76.5180   29.1660 C.2   379  LAR379      0.3407
      9  C2        22.3740   76.7780   30.5600 C.2   379  LAR379      0.0734
     10  C3        22.5010   77.9240   31.2540 C.2   379  LAR379     -0.0375
     11  C4        23.1150   79.1620   30.6570 C.3   379  LAR379      0.0226
     12  C5        24.5690   79.3140   31.1020 C.3   379  LAR379      0.0090
     13  C6        24.9260   80.7760   30.9390 C.3   379  LAR379      0.0260
     14  C7        25.2550   81.1910   29.7140 C.2   379  LAR379     -0.0307
     15  C8        25.4880   82.1750   28.8580 C.2   379  LAR379     -0.0307
     16  C9        25.8100   82.4600   27.6190 C.3   379  LAR379      0.0257
     17  C10       24.6170   82.4560   26.6850 C.3   379  LAR379      0.0044
     18  C11       24.9440   81.6250   25.4500 C.3   379  LAR379      0.0028
     19  C12       25.5150   80.2610   25.8370 C.3   379  LAR379      0.0298
     20  C13       24.4430   79.2650   26.2610 C.3   379  LAR379      0.1214
     21  C14       25.0850   77.9110   26.4990 C.3   379  LAR379      0.0734
     22  C15       24.0430   76.9780   27.0920 C.3   379  LAR379      0.1766
     23  C16       22.9560   76.8330   26.0260 C.3   379  LAR379      0.1048
     24  C17       22.4280   78.1490   25.4200 C.3   379  LAR379      0.2448
     25  C18       21.8010   77.8430   24.0490 C.3   379  LAR379      0.1810
     26  C19       21.0210   79.0320   23.4760 C.3   379  LAR379      0.1042
     27  C20       19.4990   77.2060   24.1670 C.1   379  LAR379      0.1790
     28  C21       21.9940   77.9760   32.6720 C.3   379  LAR379      0.0266
     29  C22       24.1940   83.8860   26.3440 C.3   379  LAR379      0.0003
@<TRIPOS>BOND
     1    26     1    1
     2    26    25    1
     3     1    27    1
     4    25     2    1
     5    25    24    1
     6    27     2    2
     7    27     7    2
     8     5    24    1
     9     5    20    1
    10    24    23    1
    11    24     6    1
    12    18    19    1
    13    18    17    1
    14    19    20    1
    15    23    22    1
    16    20    21    1
    17    29    17    1
    18    21    22    1
    19    17    16    1
    20    22     4    1
    21    16    15    1
    22     4     8    1
    23     3     8    2
    24    15    14    2
    25     8     9    1
    26    14    13    1
    27     9    10    2
    28    11    12    1
    29    11    10    1
    30    13    12    1
    31    10    28    1
