@<TRIPOS>MOLECULE
2a5y_ATP_B_1.pdb
 31 33 0 0 0
SMALL
GASTEIGER

@<TRIPOS>ATOM
      1  PG        93.5640   46.3110   81.1840 P.3   551  ATP551      0.5373
      2  O1G       94.8930   45.9180   81.8410 O.3   551  ATP551     -0.1143
      3  O2G       92.8240   45.0950   80.5890 O.2   551  ATP551     -0.2221
      4  O3G       92.7160   47.3400   82.0170 O.3   551  ATP551     -0.1143
      5  PB        95.3030   46.2970   79.0000 P.3   551  ATP551      0.2277
      6  O1B       94.5660   45.0590   78.4010 O.2   551  ATP551     -0.5168
      7  O2B       96.4540   45.9310   79.9070 O.3   551  ATP551     -0.4368
      8  O3B       94.1110   47.0580   79.8260 O.3   551  ATP551     -0.2258
      9  PA        95.0840   46.7620   76.3810 P.3   551  ATP551      0.2189
     10  O1A       95.8470   45.4230   76.3380 O.2   551  ATP551     -0.5170
     11  O2A       93.5530   46.9140   76.5410 O.3   551  ATP551     -0.4371
     12  O3A       95.6810   47.2760   77.7360 O.3   551  ATP551     -0.2700
     13  O5'       95.5250   47.5800   75.1040 O.3   551  ATP551     -0.3112
     14  C5'       94.9110   48.7820   74.6830 C.3   551  ATP551      0.1813
     15  C4'       94.9290   49.9540   75.6080 C.3   551  ATP551      0.1821
     16  O4'       96.3250   50.3920   75.6480 O.3   551  ATP551     -0.3135
     17  C3'       94.3030   51.1420   74.8560 C.3   551  ATP551      0.2184
     18  O3'       94.6390   52.4340   75.5290 O.3   551  ATP551     -0.2174
     19  C2'       95.2060   51.0630   73.6130 C.3   551  ATP551      0.2570
     20  O2'       95.2090   52.1670   72.7410 O.3   551  ATP551     -0.2130
     21  C1'       96.6150   51.0560   74.2840 C.3   551  ATP551      0.3186
     22  N9        97.5290   50.2070   73.5260 N.pl3 551  ATP551     -0.1439
     23  C8        98.3370   49.1220   73.9890 C.3   551  ATP551      0.3377
     24  N7        99.0830   48.5360   73.0070 N.2   551  ATP551     -0.2095
     25  C5        98.7240   49.3070   71.8520 C.2   551  ATP551      0.2526
     26  C6        99.1330   49.2060   70.5240 C.2   551  ATP551      0.4393
     27  N6       100.0510   48.2450   70.1700 N.pl3 551  ATP551      0.2180
     28  N1        98.6230   50.0910   69.5810 N.2   551  ATP551      0.0021
     29  C2        97.7110   51.0430   69.9760 C.3   551  ATP551      0.5254
     30  N3        97.2210   51.2470   71.2560 N.2   551  ATP551     -0.0055
     31  C4        97.7800   50.3070   72.1490 C.2   551  ATP551      0.3518
@<TRIPOS>BOND
     1    28    29    1
     2    28    26    2
     3    29    30    1
     4    27    26    1
     5    26    25    1
     6    30    31    2
     7    25    31    1
     8    25    24    2
     9    31    22    1
    10    20    19    1
    11    24    23    1
    12    22    23    1
    13    22    21    1
    14    19    21    1
    15    19    17    1
    16    21    16    1
    17    14    13    1
    18    14    15    1
    19    17    18    1
    20    17    15    1
    21    13     9    1
    22    15    16    1
    23    10     9    2
    24     9    11    1
    25     9    12    1
    26    12     5    1
    27     6     5    2
    28     5     8    1
    29     5     7    1
    30     8     1    1
    31     3     1    2
    32     1     2    1
    33     1     4    1
