@<TRIPOS>MOLECULE
2a6h_STD_D_1.pdb
 43 47 0 0 0
SMALL
GASTEIGER

@<TRIPOS>ATOM
      1  C1       -29.3610  181.3800   21.5260 C.2   8001  STD8001     0.1287
      2  C2       -29.5730  180.0670   22.0120 C.2   8001  STD8001     0.2569
      3  N1       -29.3470  179.7970   23.3700 N.am  8001  STD8001    -0.2480
      4  C3       -28.7680  182.0350   22.6170 C.2   8001  STD8001     0.1990
      5  C4       -29.7970  178.5660   24.1160 C.3   8001  STD8001     0.1947
      6  O1       -28.4070  183.2010   22.6990 O.2   8001  STD8001    -0.2893
      7  O2       -29.9520  179.1500   21.2900 O.2   8001  STD8001    -0.2696
      8  C5       -29.6030  182.0220   20.2680 C.2   8001  STD8001     0.2029
      9  C6       -30.1450  181.4210   19.1460 C.2   8001  STD8001     0.0419
     10  C7       -31.2850  181.7600   18.4890 C.2   8001  STD8001    -0.0013
     11  C8       -31.7620  181.1430   17.3700 C.2   8001  STD8001    -0.0259
     12  C9       -31.8820  181.9400   16.2430 C.2   8001  STD8001    -0.0283
     13  C10      -32.3620  181.5760   14.8470 C.3   8001  STD8001     0.0491
     14  C11      -32.1400  179.6410   17.3810 C.3   8001  STD8001     0.0307
     15  O3       -29.2650  183.3530   20.1600 O.2   8001  STD8001    -0.2863
     16  O4       -28.9520  178.3630   25.2950 O.3   8001  STD8001    -0.3375
     17  C12      -31.3580  178.6710   24.5410 C.3   8001  STD8001     0.0537
     18  C13      -31.2390  180.8610   14.0190 C.3   8001  STD8001     0.1242
     19  C14      -32.9360  182.8660   14.1510 C.3   8001  STD8001     0.0072
     20  C15      -31.7820  177.7690   25.2490 C.3   8001  STD8001     0.0398
     21  C16      -30.2230  181.6840   12.9760 C.3   8001  STD8001     0.0591
     22  O5       -31.9660  179.6460   13.2380 O.3   8001  STD8001    -0.3341
     23  C17      -29.6690  180.8590   12.1260 C.3   8001  STD8001     0.1417
     24  C18      -29.4110  182.3820   13.6200 C.3   8001  STD8001     0.0054
     25  C19      -31.4020  179.0260   12.4120 C.3   8001  STD8001     0.2161
     26  C20      -28.5940  180.9810   23.8270 C.3   8001  STD8001     0.1483
     27  C21      -26.9740  180.7050   24.1540 C.3   8001  STD8001     0.1039
     28  C22      -26.0800  180.3300   22.8790 C.2   8001  STD8001     0.2430
     29  C23      -26.4270  181.6350   24.7130 C.3   8001  STD8001     0.0118
     30  N2       -26.0670  181.2200   21.7670 N.am  8001  STD8001    -0.2035
     31  O6       -25.4640  179.2770   22.8720 O.2   8001  STD8001    -0.2733
     32  C24      -24.9070  181.9830   21.4260 C.3   8001  STD8001     0.1385
     33  C25      -29.3720  177.2490   26.1800 C.3   8001  STD8001     0.1473
     34  C26      -30.9330  177.4430   26.5950 C.3   8001  STD8001     0.1791
     35  O7       -31.1110  178.5450   27.5370 O.3   8001  STD8001    -0.2205
     36  C27      -28.4160  177.2290   27.4100 C.3   8001  STD8001     0.0348
     37  O8       -30.7190  179.9920   11.4480 O.3   8001  STD8001    -0.3299
     38  C28      -30.2860  178.0160   13.0340 C.3   8001  STD8001     0.1847
     39  C29      -32.4770  178.3010   11.5580 C.3   8001  STD8001     0.0642
     40  C30      -28.5110  179.7990   12.6540 C.2   8001  STD8001     0.0010
     41  C31      -30.6940  177.1180   14.1830 C.3   8001  STD8001     0.1787
     42  C32      -28.8270  178.5020   13.0600 C.2   8001  STD8001     0.0053
     43  O9       -30.4370  176.5330   12.7990 O.3   8001  STD8001    -0.3442
@<TRIPOS>BOND
     1    37    23    1
     2    37    25    1
     3    39    25    1
     4    23    40    1
     5    23    21    1
     6    25    38    1
     7    25    22    1
     8    40    42    2
     9    43    38    1
    10    43    41    1
    11    21    24    1
    12    21    18    1
    13    38    42    1
    14    38    41    1
    15    22    18    1
    16    18    13    1
    17    19    13    1
    18    13    12    1
    19    12    11    2
    20    11    14    1
    21    11    10    1
    22    10     9    2
    23     9     8    1
    24    15     8    1
    25     8     1    2
    26     7     2    2
    27    32    30    1
    28     1     2    1
    29     1     4    1
    30    30    28   am
    31     2     3   am
    32     4     6    2
    33     4    26    1
    34    31    28    2
    35    28    27    1
    36     3    26    1
    37     3     5    1
    38    26    27    1
    39     5    17    1
    40     5    16    1
    41    27    29    1
    42    17    20    1
    43    20    34    1
    44    16    33    1
    45    33    34    1
    46    33    36    1
    47    34    35    1
