@<TRIPOS>MOLECULE
2a75_FSI_A_1.pdb
 21 21 0 0 0
SMALL
GASTEIGER

@<TRIPOS>ATOM
      1  O1B       46.1860    3.4490   63.1030 O.co2 700  FSI700     -0.2429
      2  C1        46.8630    3.9820   62.1990 C.2   700  FSI700      0.3942
      3  O1A       46.7340    5.2020   61.9060 O.co2 700  FSI700     -0.2429
      4  C2        47.8670    3.1550   61.3810 C.3   700  FSI700      0.2533
      5  C3        48.3910    1.9070   62.1430 C.3   700  FSI700      0.2308
      6  F1        48.7070    2.1920   63.4050 F     700  FSI700     -0.2312
      7  C4        49.6470    1.3150   61.4700 C.3   700  FSI700      0.2096
      8  O4        50.1230    0.1630   62.1420 O.3   700  FSI700     -0.2182
      9  O6        48.9710    4.0450   61.1770 O.3   700  FSI700     -0.3409
     10  C6        50.1660    3.5460   60.5420 C.3   700  FSI700      0.1712
     11  C5        50.7670    2.3730   61.3780 C.3   700  FSI700      0.1580
     12  N5        51.8570    1.8060   60.7680 N.am  700  FSI700     -0.2019
     13  C10       53.1160    2.0560   61.1480 C.2   700  FSI700      0.2420
     14  C11       54.2320    1.2360   60.5380 C.3   700  FSI700      0.0964
     15  O10       53.3930    2.9530   61.9670 O.2   700  FSI700     -0.2733
     16  C7        51.1690    4.6930   60.4030 C.3   700  FSI700      0.2134
     17  O7        51.5680    4.9810   61.7340 O.3   700  FSI700     -0.2176
     18  C8        50.5820    5.9680   59.7670 C.3   700  FSI700      0.2173
     19  O8        50.2710    5.6980   58.4090 O.3   700  FSI700     -0.2175
     20  C9        51.5820    7.1320   59.8230 C.3   700  FSI700      0.2175
     21  O9        52.7940    6.7960   59.1620 O.3   700  FSI700     -0.2175
@<TRIPOS>BOND
     1    19    18    1
     2    21    20    1
     3    18    20    1
     4    18    16    1
     5    16    10    1
     6    16    17    1
     7    14    13    1
     8    10     9    1
     9    10    11    1
    10    12    13   am
    11    12    11    1
    12    13    15    2
    13     9     4    1
    14    11     7    1
    15     4     5    1
    16     4     2    1
    17     7     8    1
    18     7     5    1
    19     3     2   ar
    20     5     6    1
    21     2     1   ar
