@<TRIPOS>MOLECULE
2a78_GDP_A_1.pdb
 28 30 0 0 0
SMALL
GASTEIGER

@<TRIPOS>ATOM
      1  PB        16.7430    6.8590   14.9870 P.3   500  GDP500      0.5373
      2  O1B       16.3490    8.1320   15.6800 O.3   500  GDP500     -0.1143
      3  O2B       15.5100    6.1040   14.5650 O.3   500  GDP500     -0.1143
      4  O3B       17.6470    7.1840   13.8270 O.2   500  GDP500     -0.2221
      5  O3A       17.5170    5.9350   16.0470 O.3   500  GDP500     -0.2261
      6  PA        19.0960    5.9790   16.3210 P.3   500  GDP500      0.2231
      7  O1A       19.8550    5.1840   15.2970 O.2   500  GDP500     -0.5169
      8  O2A       19.6120    7.3870   16.4720 O.3   500  GDP500     -0.4370
      9  O5'       19.1830    5.2390   17.7380 O.3   500  GDP500     -0.3111
     10  C5'       18.5540    5.7890   18.9030 C.3   500  GDP500      0.1813
     11  C4'       19.3360    5.3280   20.1310 C.3   500  GDP500      0.1799
     12  O4'       19.2530    3.9010   20.2320 O.3   500  GDP500     -0.3326
     13  C3'       20.8190    5.6450   19.9830 C.3   500  GDP500      0.2158
     14  O3'       21.3560    5.8760   21.2920 O.3   500  GDP500     -0.2175
     15  C2'       21.4030    4.3840   19.3690 C.3   500  GDP500      0.2310
     16  O2'       22.7870    4.2110   19.6850 O.3   500  GDP500     -0.2158
     17  C1'       20.5400    3.3110   20.0180 C.3   500  GDP500      0.2293
     18  N9        20.3330    2.1040   19.1990 N.pl3 500  GDP500     -0.2354
     19  C8        19.9910    2.0290   17.9000 C.3   500  GDP500      0.2246
     20  N7        19.8720    0.7350   17.5140 N.2   500  GDP500     -0.2322
     21  C5        20.1330   -0.0250   18.5950 C.2   500  GDP500      0.2182
     22  C6        20.1740   -1.4640   18.9010 C.1   500  GDP500      0.2372
     23  O6        19.9300   -2.2900   17.9940 O.2   500  GDP500     -0.2069
     24  N1        20.4840   -1.8360   20.1560 N.2   500  GDP500     -0.2485
     25  C2        20.7530   -0.9530   21.1380 C.1   500  GDP500      0.2531
     26  N2        21.0510   -1.4080   22.3780 N.pl3 500  GDP500     -0.0226
     27  N3        20.7280    0.3870   20.9320 N.2   500  GDP500     -0.3074
     28  C4        20.4270    0.8830   19.7050 C.2   500  GDP500      0.2300
@<TRIPOS>BOND
     1     4     1    2
     2     3     1    1
     3     1     2    1
     4     1     5    1
     5     7     6    2
     6     5     6    1
     7     6     8    1
     8     6     9    1
     9    20    19    1
    10    20    21    2
    11     9    10    1
    12    19    18    1
    13    23    22    2
    14    21    22    1
    15    21    28    1
    16    22    24    2
    17    10    11    1
    18    18    28    1
    19    18    17    1
    20    15    16    1
    21    15    13    1
    22    15    17    1
    23    28    27    2
    24    13    11    1
    25    13    14    1
    26    17    12    1
    27    11    12    1
    28    24    25    2
    29    27    25    2
    30    25    26    1
