@<TRIPOS>MOLECULE
2a79_NAP_A_1.pdb
 48 52 0 0 0
SMALL
GASTEIGER

@<TRIPOS>ATOM
      1  PA        74.5980  105.3370    9.3080 P.3   1001  NAP1001     0.2189
      2  O1A       74.0210  106.0970    8.1820 O.2   1001  NAP1001    -0.5170
      3  O2A       74.7240  103.8690    9.1780 O.3   1001  NAP1001    -0.4371
      4  O5B       73.7500  105.8150   10.5880 O.3   1001  NAP1001    -0.3112
      5  C5B       74.0400  105.3540   11.9430 C.3   1001  NAP1001     0.1813
      6  C4B       72.9890  105.9780   12.8810 C.3   1001  NAP1001     0.1820
      7  O4B       71.6740  105.3510   12.5270 O.3   1001  NAP1001    -0.3136
      8  C3B       73.2410  105.6510   14.3410 C.3   1001  NAP1001     0.2157
      9  O3B       73.5740  106.8530   15.0450 O.3   1001  NAP1001    -0.2175
     10  C2B       71.9620  104.9930   14.8900 C.3   1001  NAP1001     0.2314
     11  O2B       71.2030  105.6140   15.9870 O.3   1001  NAP1001    -0.2630
     12  C1B       71.1280  104.6320   13.6690 C.3   1001  NAP1001     0.3158
     13  N9A       71.1890  103.1370   13.4760 N.pl3 1001  NAP1001    -0.1439
     14  C8A       72.3220  102.3660   13.3130 C.3   1001  NAP1001     0.3377
     15  N7A       72.0900  101.0730   13.1890 N.2   1001  NAP1001    -0.2095
     16  C5A       70.7640  100.9760   13.2550 C.2   1001  NAP1001     0.2526
     17  C6A       69.9310   99.8340   13.2110 C.2   1001  NAP1001     0.4393
     18  N6A       70.4010   98.6020   13.0440 N.pl3 1001  NAP1001     0.2180
     19  N1A       68.5910  100.0680   13.3150 N.2   1001  NAP1001     0.0021
     20  C2A       68.0810  101.3260   13.4880 C.3   1001  NAP1001     0.5254
     21  N3A       68.7950  102.4880   13.5610 N.2   1001  NAP1001    -0.0055
     22  C4A       70.1680  102.2430   13.4450 C.2   1001  NAP1001     0.3518
     23  O3        76.0480  105.9230    9.6500 O.3   1001  NAP1001    -0.2703
     24  PN        76.7680  107.2690    9.9940 P.3   1001  NAP1001     0.2189
     25  O1N       76.2160  107.8800   11.2160 O.3   1001  NAP1001    -0.4371
     26  O2N       76.7030  108.0780    8.7610 O.2   1001  NAP1001    -0.5170
     27  O5D       78.2460  106.8550   10.2410 O.3   1001  NAP1001    -0.3112
     28  C5D       79.1660  106.4770    9.2390 C.3   1001  NAP1001     0.1813
     29  C4D       80.5470  106.8930    9.6460 C.3   1001  NAP1001     0.1799
     30  O4D       81.0930  107.5110    8.4730 O.3   1001  NAP1001    -0.3327
     31  C3D       80.6870  107.9690   10.7520 C.3   1001  NAP1001     0.2158
     32  O3D       80.6950  107.4990   12.0700 O.3   1001  NAP1001    -0.2175
     33  C2D       81.9290  108.6770   10.3230 C.3   1001  NAP1001     0.2309
     34  O2D       83.0360  108.0260   10.9260 O.3   1001  NAP1001    -0.2158
     35  C1D       81.9160  108.5440    8.7990 C.3   1001  NAP1001     0.2263
     36  N1N       81.4820  109.7470    8.0690 N.pl3 1001  NAP1001    -0.2787
     37  C2N       82.3980  110.3590    7.2700 C.3   1001  NAP1001     0.1244
     38  C3N       82.0980  111.5090    6.5780 C.2   1001  NAP1001     0.0544
     39  C7N       83.0870  112.2050    5.6880 C.2   1001  NAP1001     0.2818
     40  O7N       82.8180  113.3670    5.3010 O.2   1001  NAP1001    -0.2670
     41  N7N       84.2000  111.4760    5.3660 N.am  1001  NAP1001    -0.0839
     42  C4N       80.7830  112.0800    6.7170 C.2   1001  NAP1001     0.0033
     43  C5N       79.8400  111.4290    7.5430 C.2   1001  NAP1001     0.0157
     44  C6N       80.1740  110.2820    8.2140 C.2   1001  NAP1001     0.0633
     45  P2B       70.1650  106.8730   16.0520 P.3   1001  NAP1001     0.5328
     46  O1X       69.8830  107.2920   14.6580 O.2   1001  NAP1001    -0.2224
     47  O2X       69.0350  106.2170   16.7690 O.3   1001  NAP1001    -0.1145
     48  O3X       70.8510  107.9390   16.9130 O.3   1001  NAP1001    -0.1145
@<TRIPOS>BOND
     1    40    39    2
     2    41    39   am
     3    39    38    1
     4    38    42    2
     5    38    37    1
     6    42    43    1
     7    37    36    1
     8    43    44    2
     9    36    44    1
    10    36    35    1
    11     2     1    2
    12    30    35    1
    13    30    29    1
    14    26    24    2
    15    35    33    1
    16     3     1    1
    17    28    29    1
    18    28    27    1
    19     1    23    1
    20     1     4    1
    21    29    31    1
    22    23    24    1
    23    24    27    1
    24    24    25    1
    25    33    31    1
    26    33    34    1
    27     4     5    1
    28    31    32    1
    29     5     6    1
    30     7     6    1
    31     7    12    1
    32     6     8    1
    33    18    17    1
    34    15    16    2
    35    15    14    1
    36    17    16    1
    37    17    19    2
    38    16    22    1
    39    14    13    1
    40    19    20    1
    41    22    13    1
    42    22    21    2
    43    13    12    1
    44    20    21    1
    45    12    10    1
    46     8    10    1
    47     8     9    1
    48    46    45    2
    49    10    11    1
    50    11    45    1
    51    45    47    1
    52    45    48    1
