@<TRIPOS>MOLECULE
2a7n_FMN_A_1.pdb
 31 33 0 0 0
SMALL
GASTEIGER

@<TRIPOS>ATOM
      1  N1        72.4270   82.4580   26.0630 N.2   390  FMN390     -0.2890
      2  C2        71.2430   81.9320   26.5510 C.1   390  FMN390      0.3669
      3  O2        71.0770   81.7170   27.6930 O.2   390  FMN390     -0.1744
      4  N3        70.1940   81.6190   25.5700 N.2   390  FMN390     -0.2300
      5  C4        70.2730   81.8220   24.1500 C.1   390  FMN390      0.2513
      6  O4        69.3710   81.5250   23.3650 O.2   390  FMN390     -0.2057
      7  C4A       71.5670   82.3840   23.6460 C.2   390  FMN390      0.2700
      8  N5        71.8070   82.5630   22.3220 N.2   390  FMN390     -0.3878
      9  C5A       73.0730   82.9390   21.8470 C.2   390  FMN390      0.1320
     10  C6        73.3440   82.9850   20.4180 C.2   390  FMN390      0.0250
     11  C7        74.6840   83.2490   19.8650 C.2   390  FMN390     -0.0238
     12  C7M       74.8820   83.2110   18.3770 C.3   390  FMN390      0.0308
     13  C8        75.8440   83.5220   20.8390 C.2   390  FMN390     -0.0280
     14  C8M       77.2730   83.7720   20.4160 C.3   390  FMN390      0.0304
     15  C9        75.5550   83.5070   22.2370 C.2   390  FMN390     -0.0041
     16  C9A       74.2240   83.2080   22.8200 C.3   390  FMN390      0.1497
     17  N10       73.8860   83.0710   24.2500 N.pl3 390  FMN390     -0.2691
     18  C10       72.6090   82.6600   24.7440 C.2   390  FMN390      0.2416
     19  C1'       74.9790   83.2720   25.2320 C.3   390  FMN390      0.1294
     20  C2'       75.7500   81.9680   25.4840 C.3   390  FMN390      0.2044
     21  O2'       75.0490   81.0900   26.2810 O.3   390  FMN390     -0.2185
     22  C3'       77.0910   82.1850   26.1600 C.3   390  FMN390      0.2164
     23  O3'       76.8670   82.9750   27.3840 O.3   390  FMN390     -0.2175
     24  C4'       78.1360   83.0050   25.4040 C.3   390  FMN390      0.2147
     25  O4'       78.2460   82.6760   24.0310 O.3   390  FMN390     -0.2176
     26  C5'       79.4680   82.7560   26.0570 C.3   390  FMN390      0.1892
     27  O5'       80.5700   83.4360   25.3790 O.3   390  FMN390     -0.2674
     28  P         81.4840   82.9950   24.2250 P.3   390  FMN390      0.5327
     29  O1P       82.7080   83.8690   24.1850 O.3   390  FMN390     -0.1145
     30  O2P       80.6350   83.0880   22.9850 O.2   390  FMN390     -0.2224
     31  O3P       81.8100   81.5730   24.5820 O.3   390  FMN390     -0.1145
@<TRIPOS>BOND
     1    12    11    1
     2    11    10    2
     3    11    13    1
     4    14    13    1
     5    10     9    1
     6    13    15    2
     7     9     8    2
     8     9    16    1
     9    15    16    1
    10     8     7    2
    11    16    17    1
    12    30    28    2
    13     6     5    2
    14     7     5    1
    15     7    18    1
    16    25    24    1
    17     5     4    2
    18    29    28    1
    19    28    31    1
    20    28    27    1
    21    17    18    1
    22    17    19    1
    23    18     1    2
    24    19    20    1
    25    27    26    1
    26    24    26    1
    27    24    22    1
    28    20    22    1
    29    20    21    1
    30     4     2    2
    31     1     2    2
    32    22    23    1
    33     2     3    2
