@<TRIPOS>MOLECULE
2a7p_3IL_A_1.pdb
 15 16 0 0 0
SMALL
GASTEIGER

@<TRIPOS>ATOM
      1  N1        64.9660   85.4900   19.2050 N.2   410  3IL410     -0.2702
      2  C2        66.3530   85.5170   19.4730 C.3   410  3IL410      0.1471
      3  C3        66.6450   85.3370   20.8450 C.2   410  3IL410     -0.0195
      4  C4        65.0230   84.9770   22.8500 C.3   410  3IL410      0.0526
      5  C5        63.6390   84.8680   23.1710 C.2   410  3IL410     -0.0256
      6  C6        62.6390   84.9650   22.1550 C.2   410  3IL410     -0.0240
      7  C7        62.9980   85.1740   20.7920 C.3   410  3IL410      0.0706
      8  C8        64.3920   85.2880   20.4470 C.2   410  3IL410      0.0542
      9  C9        65.4060   85.1910   21.4690 C.2   410  3IL410     -0.0103
     10  C10       69.9030   86.5220   22.8100 C.2   410  3IL410      0.3949
     11  O11       70.3950   85.5310   23.3890 O.co2 410  3IL410     -0.2428
     12  O12       70.5860   87.5490   22.5510 O.co2 410  3IL410     -0.2428
     13  C13       68.4140   86.4850   22.4040 C.3   410  3IL410      0.2580
     14  O14       68.1200   87.7280   21.7720 O.3   410  3IL410     -0.2106
     15  C15       68.0720   85.3210   21.4270 C.3   410  3IL410      0.0684
@<TRIPOS>BOND
     1     1     2    1
     2     1     8    2
     3     2     3    1
     4     8     7    1
     5     8     9    1
     6     7     6    1
     7     3    15    1
     8     3     9    2
     9    15    13    1
    10     9     4    1
    11    14    13    1
    12     6     5    2
    13    13    10    1
    14    12    10   ar
    15    10    11   ar
    16     4     5    1
