@<TRIPOS>MOLECULE
2a7p_FMN_A_1.pdb
 31 33 0 0 0
SMALL
GASTEIGER

@<TRIPOS>ATOM
      1  N1        72.5460   82.5190   26.0140 N.2   390  FMN390     -0.2890
      2  C2        71.3480   81.9820   26.4830 C.1   390  FMN390      0.3669
      3  O2        71.1700   81.7320   27.6110 O.2   390  FMN390     -0.1744
      4  N3        70.2900   81.7230   25.4950 N.2   390  FMN390     -0.2300
      5  C4        70.3770   81.9720   24.0890 C.1   390  FMN390      0.2513
      6  O4        69.4740   81.7000   23.2990 O.2   390  FMN390     -0.2057
      7  C4A       71.6910   82.5360   23.6000 C.2   390  FMN390      0.2700
      8  N5        71.9370   82.7290   22.2880 N.2   390  FMN390     -0.3878
      9  C5A       73.2150   83.0710   21.8060 C.2   390  FMN390      0.1320
     10  C6        73.4710   83.1100   20.3730 C.2   390  FMN390      0.0250
     11  C7        74.8060   83.3330   19.8050 C.2   390  FMN390     -0.0238
     12  C7M       74.9760   83.3010   18.3190 C.3   390  FMN390      0.0308
     13  C8        75.9830   83.5930   20.7700 C.2   390  FMN390     -0.0280
     14  C8M       77.3940   83.8560   20.3320 C.3   390  FMN390      0.0304
     15  C9        75.7120   83.5680   22.1770 C.2   390  FMN390     -0.0041
     16  C9A       74.3790   83.2960   22.7720 C.3   390  FMN390      0.1497
     17  N10       74.0340   83.1590   24.2130 N.pl3 390  FMN390     -0.2691
     18  C10       72.7390   82.7660   24.7030 C.2   390  FMN390      0.2416
     19  C1'       75.1200   83.3510   25.1910 C.3   390  FMN390      0.1294
     20  C2'       75.8850   82.0480   25.4650 C.3   390  FMN390      0.2044
     21  O2'       75.1670   81.1950   26.2550 O.3   390  FMN390     -0.2185
     22  C3'       77.2270   82.2680   26.1610 C.3   390  FMN390      0.2164
     23  O3'       76.9880   83.0840   27.3700 O.3   390  FMN390     -0.2175
     24  C4'       78.2820   83.0750   25.4060 C.3   390  FMN390      0.2147
     25  O4'       78.3880   82.7510   24.0410 O.3   390  FMN390     -0.2176
     26  C5'       79.6260   82.8450   26.0470 C.3   390  FMN390      0.1892
     27  O5'       80.7050   83.5240   25.3330 O.3   390  FMN390     -0.2674
     28  P         81.6440   83.0440   24.2070 P.3   390  FMN390      0.5327
     29  O1P       82.8720   83.9150   24.1640 O.3   390  FMN390     -0.1145
     30  O2P       80.8390   83.0920   22.9570 O.2   390  FMN390     -0.2224
     31  O3P       81.9520   81.6320   24.6220 O.3   390  FMN390     -0.1145
@<TRIPOS>BOND
     1    12    11    1
     2    11    10    2
     3    11    13    1
     4    14    13    1
     5    10     9    1
     6    13    15    2
     7     9     8    2
     8     9    16    1
     9    15    16    1
    10     8     7    2
    11    16    17    1
    12    30    28    2
    13     6     5    2
    14     7     5    1
    15     7    18    1
    16    25    24    1
    17     5     4    2
    18    29    28    1
    19    28    31    1
    20    28    27    1
    21    17    18    1
    22    17    19    1
    23    18     1    2
    24    19    20    1
    25    27    26    1
    26    24    26    1
    27    24    22    1
    28    20    22    1
    29    20    21    1
    30     4     2    2
    31     1     2    2
    32    22    23    1
    33     2     3    2
