@<TRIPOS>MOLECULE
2a7q_ADP_A_1.pdb
 27 29 0 0 0
SMALL
GASTEIGER

@<TRIPOS>ATOM
      1  PB        72.7110   42.7680   19.1700 P.3   301  ADP301      0.5373
      2  O1B       72.0220   44.0400   19.4010 O.3   301  ADP301     -0.1143
      3  O2B       72.1650   42.0240   17.8620 O.2   301  ADP301     -0.2221
      4  O3B       72.4890   41.7570   20.3940 O.3   301  ADP301     -0.1143
      5  PA        74.9020   43.8410   20.2670 P.3   301  ADP301      0.2231
      6  O1A       74.3960   45.2460   20.2340 O.2   301  ADP301     -0.5169
      7  O2A       74.5360   43.1520   21.6830 O.3   301  ADP301     -0.4370
      8  O3A       74.2850   42.9640   19.0380 O.3   301  ADP301     -0.2261
      9  O5'       76.4880   43.7980   20.0100 O.3   301  ADP301     -0.3111
     10  C5'       77.0560   44.6120   20.9840 C.3   301  ADP301      0.1813
     11  C4'       78.5570   44.5730   20.8880 C.3   301  ADP301      0.1821
     12  O4'       79.0460   44.8190   19.5600 O.3   301  ADP301     -0.3135
     13  C3'       79.0430   45.6170   21.8610 C.3   301  ADP301      0.2184
     14  O3'       79.9620   45.1390   22.8390 O.3   301  ADP301     -0.2174
     15  C2'       79.6150   46.7550   20.9680 C.3   301  ADP301      0.2570
     16  O2'       80.9330   47.1020   21.4240 O.3   301  ADP301     -0.2130
     17  C1'       79.6890   46.1220   19.5440 C.3   301  ADP301      0.3186
     18  N9        79.0970   46.9120   18.4480 N.pl3 301  ADP301     -0.1439
     19  C8        77.7830   46.9400   18.0710 C.3   301  ADP301      0.3377
     20  N7        77.6220   47.7260   17.0500 N.2   301  ADP301     -0.2095
     21  C5        78.8150   48.2550   16.7000 C.2   301  ADP301      0.2526
     22  C6        79.2710   49.1500   15.6910 C.2   301  ADP301      0.4393
     23  N6        78.3920   49.6950   14.7680 N.pl3 301  ADP301      0.2180
     24  N1        80.5920   49.4630   15.6450 N.2   301  ADP301      0.0021
     25  C2        81.4690   48.9560   16.5140 C.3   301  ADP301      0.5254
     26  N3        81.0840   48.1160   17.4670 N.2   301  ADP301     -0.0055
     27  C4        79.7830   47.7420   17.5970 C.2   301  ADP301      0.3518
@<TRIPOS>BOND
     1    23    22    1
     2    24    22    2
     3    24    25    1
     4    22    21    1
     5    25    26    1
     6    21    20    2
     7    21    27    1
     8    20    19    1
     9    26    27    2
    10    27    18    1
    11     3     1    2
    12    19    18    1
    13    18    17    1
    14     8     1    1
    15     8     5    1
    16     1     2    1
    17     1     4    1
    18    17    12    1
    19    17    15    1
    20    12    11    1
    21     9     5    1
    22     9    10    1
    23     6     5    2
    24     5     7    1
    25    11    10    1
    26    11    13    1
    27    15    16    1
    28    15    13    1
    29    13    14    1
