@<TRIPOS>MOLECULE
2a7q_CFB_A_1.pdb
 20 22 0 0 0
SMALL
GASTEIGER

@<TRIPOS>ATOM
      1  O5'       69.8860   38.1130   20.4630 O.3   328  CFB328     -0.2176
      2  C5'       70.4630   37.5100   21.6250 C.3   328  CFB328      0.2142
      3  C4'       70.3500   35.9860   21.5410 C.3   328  CFB328      0.1831
      4  O4'       68.9850   35.6550   21.2350 O.3   328  CFB328     -0.3323
      5  C3'       71.2050   35.3890   20.4180 C.3   328  CFB328      0.2181
      6  O3'       71.8840   34.2320   20.9130 O.3   328  CFB328     -0.2173
      7  C2'       70.1790   34.9600   19.3690 C.3   328  CFB328      0.2399
      8  F         69.8960   35.9650   18.4540 F     328  CFB328     -0.2299
      9  C1'       69.0200   34.5770   20.2870 C.3   328  CFB328      0.2316
     10  N9        67.7090   34.4620   19.6030 N.pl3 328  CFB328     -0.2358
     11  C8        66.8010   35.4330   19.5070 C.3   328  CFB328      0.2238
     12  N7        65.6970   34.9590   18.9330 N.2   328  CFB328     -0.2401
     13  C5        65.9020   33.6800   18.6530 C.2   328  CFB328      0.1706
     14  C4        67.1920   33.3630   19.0720 C.2   328  CFB328      0.2211
     15  N3        67.6630   32.1210   18.8890 N.2   328  CFB328     -0.3137
     16  C2        66.9000   31.1810   18.3060 C.1   328  CFB328      0.2076
     17 CL         67.5480   29.5960   18.0540 Cl    328  CFB328      0.0245
     18  N1        65.6550   31.4570   17.9030 N.2   328  CFB328     -0.3106
     19  C6        65.1310   32.6840   18.0610 C.2   328  CFB328      0.2532
     20  N6        63.8880   32.9380   17.6690 N.pl3 328  CFB328     -0.0904
@<TRIPOS>BOND
     1    20    19    1
     2    18    19    2
     3    18    16    2
     4    17    16    1
     5    19    13    1
     6    16    15    2
     7     8     7    1
     8    13    12    2
     9    13    14    1
    10    15    14    2
    11    12    11    1
    12    14    10    1
    13     7     9    1
    14     7     5    1
    15    11    10    1
    16    10     9    1
    17     9     4    1
    18     5     6    1
    19     5     3    1
    20     1     2    1
    21     4     3    1
    22     3     2    1
