@<TRIPOS>MOLECULE
2a7r_5GP_A_1.pdb
 24 26 0 0 0
SMALL
GASTEIGER

@<TRIPOS>ATOM
      1  P         61.0550    8.0770   52.7370 P.3   500  5GP500      0.5327
      2  O1P       62.2500    8.6170   52.0500 O.2   500  5GP500     -0.2224
      3  O2P       60.6140    6.6390   52.1630 O.3   500  5GP500     -0.1145
      4  O3P       59.7740    9.0320   52.5490 O.3   500  5GP500     -0.1145
      5  O5'       61.2380    7.8920   54.3260 O.3   500  5GP500     -0.2675
      6  C5'       62.4380    7.3440   54.8800 C.3   500  5GP500      0.1859
      7  C4'       62.2440    7.0180   56.3640 C.3   500  5GP500      0.1801
      8  O4'       61.2180    6.0340   56.5600 O.3   500  5GP500     -0.3326
      9  C3'       63.4550    6.3250   56.9870 C.3   500  5GP500      0.2158
     10  O3'       64.4820    7.2820   57.2570 O.3   500  5GP500     -0.2175
     11  C2'       62.8320    5.8650   58.3060 C.3   500  5GP500      0.2310
     12  O2'       62.8920    6.9090   59.2820 O.3   500  5GP500     -0.2158
     13  C1'       61.3720    5.6010   57.9240 C.3   500  5GP500      0.2293
     14  N9        61.0340    4.1620   58.0250 N.pl3 500  5GP500     -0.2354
     15  C8        61.5870    3.1700   57.3280 C.3   500  5GP500      0.2246
     16  N7        61.0350    2.0130   57.6860 N.2   500  5GP500     -0.2322
     17  C5        60.1210    2.2680   58.6180 C.2   500  5GP500      0.2182
     18  C6        59.2450    1.4570   59.3350 C.1   500  5GP500      0.2372
     19  O6        59.2390    0.2440   59.1710 O.2   500  5GP500     -0.2069
     20  N1        58.3760    2.0610   60.2560 N.2   500  5GP500     -0.2485
     21  C2        58.4170    3.4490   60.4300 C.1   500  5GP500      0.2531
     22  N2        57.5990    4.0300   61.3030 N.pl3 500  5GP500     -0.0226
     23  N3        59.2770    4.1960   59.7220 N.2   500  5GP500     -0.3074
     24  C4        60.1170    3.6400   58.8330 C.2   500  5GP500      0.2300
@<TRIPOS>BOND
     1     2     1    2
     2     3     1    1
     3     4     1    1
     4     1     5    1
     5     5     6    1
     6     6     7    1
     7     7     8    1
     8     7     9    1
     9     8    13    1
    10     9    10    1
    11     9    11    1
    12    15    16    1
    13    15    14    1
    14    16    17    2
    15    13    14    1
    16    13    11    1
    17    14    24    1
    18    11    12    1
    19    17    24    1
    20    17    18    1
    21    24    23    2
    22    19    18    2
    23    18    20    2
    24    23    21    2
    25    20    21    2
    26    21    22    1
