@<TRIPOS>MOLECULE
2a7x_AMP_A_1.pdb
 23 25 0 0 0
SMALL
GASTEIGER

@<TRIPOS>ATOM
      1  P         -3.7200   -0.5580   27.2970 P.3   501  AMP501      0.5327
      2  O1P       -2.9900   -1.6000   26.5270 O.2   501  AMP501     -0.2224
      3  O2P       -2.8570    0.3450   28.2090 O.3   501  AMP501     -0.1145
      4  O3P       -5.0470   -0.8450   27.9920 O.3   501  AMP501     -0.1145
      5  O5'       -4.1510    0.3980   26.0750 O.3   501  AMP501     -0.2675
      6  C5'       -4.7970    1.6290   26.4160 C.3   501  AMP501      0.1860
      7  C4'       -5.4360    2.2400   25.1870 C.3   501  AMP501      0.1823
      8  O4'       -4.3160    2.5690   24.3250 O.3   501  AMP501     -0.3135
      9  C3'       -6.3180    1.2640   24.4620 C.3   501  AMP501      0.2184
     10  O3'       -7.3820    2.0680   23.9010 O.3   501  AMP501     -0.2174
     11  C2'       -5.4230    0.7870   23.3330 C.3   501  AMP501      0.2570
     12  O2'       -6.1700    0.3300   22.1900 O.3   501  AMP501     -0.2130
     13  C1'       -4.5960    2.0650   23.0470 C.3   501  AMP501      0.3186
     14  N9        -3.3500    1.6500   22.4010 N.pl3 501  AMP501     -0.1439
     15  C8        -2.3810    0.8300   22.8590 C.3   501  AMP501      0.3377
     16  N7        -1.4010    0.6800   21.9170 N.2   501  AMP501     -0.2095
     17  C5        -1.8000    1.4320   20.8470 C.2   501  AMP501      0.2526
     18  C6        -1.2900    1.7300   19.5140 C.2   501  AMP501      0.4393
     19  N6        -0.1250    1.1440   19.1210 N.pl3 501  AMP501      0.2180
     20  N1        -1.9990    2.5910   18.7320 N.2   501  AMP501      0.0021
     21  C2        -3.1970    3.1560   19.0870 C.3   501  AMP501      0.5254
     22  N3        -3.7030    2.8900   20.3100 N.2   501  AMP501     -0.0055
     23  C4        -3.0720    2.0680   21.1830 C.2   501  AMP501      0.3518
@<TRIPOS>BOND
     1    20    21    1
     2    20    18    2
     3    21    22    1
     4    19    18    1
     5    18    17    1
     6    22    23    2
     7    17    23    1
     8    17    16    2
     9    23    14    1
    10    16    15    1
    11    12    11    1
    12    14    15    1
    13    14    13    1
    14    13    11    1
    15    13     8    1
    16    11     9    1
    17    10     9    1
    18     8     7    1
    19     9     7    1
    20     7     6    1
    21     5     6    1
    22     5     1    1
    23     2     1    2
    24     1     4    1
    25     1     3    1
