@<TRIPOS>MOLECULE
2a81_BCN_A_1.pdb
 11 10 0 0 0
SMALL
GASTEIGER

@<TRIPOS>ATOM
      1  N1        11.5950  -59.5870    1.0040 N.3   501  BCN501     -0.2587
      2  C1        12.6590  -59.6820    2.0370 C.3   501  BCN501      0.1879
      3  C2        14.1050  -59.5250    1.5000 C.2   501  BCN501      0.3809
      4  O21       14.8450  -60.5380    1.5540 O.co2 501  BCN501     -0.2441
      5  O22       14.4470  -58.3930    1.0750 O.co2 501  BCN501     -0.2441
      6  C3        11.8290  -60.5820   -0.0540 C.3   501  BCN501      0.1086
      7  C4        11.7020  -59.8580   -1.3880 C.3   501  BCN501      0.1994
      8  O4        13.0050  -59.5340   -1.8990 O.3   501  BCN501     -0.2189
      9  C5        10.2380  -59.8340    1.5650 C.3   501  BCN501      0.1086
     10  C6         9.6450  -58.5850    2.2400 C.3   501  BCN501      0.1994
     11  O6         8.5360  -58.0680    1.4890 O.3   501  BCN501     -0.2189
@<TRIPOS>BOND
     1     8     7    1
     2     7     6    1
     3     6     1    1
     4     1     9    1
     5     1     2    1
     6     5     3   ar
     7    11    10    1
     8     3     4   ar
     9     3     2    1
    10     9    10    1
