@<TRIPOS>MOLECULE
2a81_ACO_A_1.pdb
 41 43 0 0 0
SMALL
GASTEIGER

@<TRIPOS>ATOM
      1  N1A       -0.4980  -58.9450    1.6180 N.2   500  ACO500      0.0021
      2  C2A       -1.7390  -59.3960    1.6220 C.3   500  ACO500      0.5254
      3  N3A       -2.7430  -58.6420    2.0310 N.2   500  ACO500     -0.0055
      4  C4A       -2.5280  -57.3900    2.4550 C.2   500  ACO500      0.3518
      5  C5A       -1.2460  -56.8840    2.4620 C.2   500  ACO500      0.2526
      6  C6A       -0.2230  -57.7000    2.0310 C.2   500  ACO500      0.4393
      7  N6A        1.0110  -57.2330    2.0260 N.pl3 500  ACO500      0.2180
      8  N7A       -1.2940  -55.6380    2.9150 N.2   500  ACO500     -0.2095
      9  C8A       -2.5660  -55.3640    3.1910 C.3   500  ACO500      0.3377
     10  N9A       -3.3190  -56.4310    2.9100 N.pl3 500  ACO500     -0.1439
     11  C1B       -4.7650  -56.5260    3.0850 C.3   500  ACO500      0.3185
     12  C2B       -5.0490  -56.6660    4.5780 C.3   500  ACO500      0.2543
     13  O2B       -5.1910  -58.0430    4.9090 O.3   500  ACO500     -0.2131
     14  C3B       -6.4040  -56.0240    4.6370 C.3   500  ACO500      0.1928
     15  O3B       -7.2670  -56.8460    3.8280 O.3   500  ACO500     -0.2673
     16  P3B       -8.8220  -57.1510    4.1850 P.3   500  ACO500      0.5327
     17  O7A       -9.1900  -58.6220    3.5980 O.2   500  ACO500     -0.2224
     18  O8A       -8.6690  -57.3980    5.7920 O.3   500  ACO500     -0.1145
     19  O9A       -9.7580  -56.0880    3.6810 O.3   500  ACO500     -0.1145
     20  C4B       -6.1190  -54.7720    3.8480 C.3   500  ACO500      0.1795
     21  O4B       -5.3580  -55.2600    2.7180 O.3   500  ACO500     -0.3136
     22  C5B       -5.2410  -53.8710    4.6390 C.3   500  ACO500      0.1812
     23  O5B       -6.0310  -52.9350    5.3200 O.3   500  ACO500     -0.3112
     24  P1A       -5.6050  -52.4470    6.8150 P.3   500  ACO500      0.2189
     25  O1A       -6.9650  -52.3500    7.7260 O.3   500  ACO500     -0.4371
     26  O2A       -4.6640  -53.3740    7.4930 O.2   500  ACO500     -0.5170
     27  O3A       -5.0590  -50.9180    6.6610 O.3   500  ACO500     -0.2703
     28  P2A       -3.7190  -50.4710    7.4090 P.3   500  ACO500      0.2188
     29  O4A       -3.5800  -51.4430    8.6600 O.3   500  ACO500     -0.4371
     30  O5A       -3.7920  -49.0630    7.8740 O.2   500  ACO500     -0.5170
     31  O6A       -2.3900  -50.8940    6.4080 O.3   500  ACO500     -0.3138
     32  CBP       -0.7600  -52.7650    5.7580 C.3   500  ACO500      0.0645
     33  CCP       -1.2640  -51.7740    6.8370 C.3   500  ACO500      0.1519
     34  CDP       -0.8690  -51.9960    4.4390 C.3   500  ACO500      0.0056
     35  CEP       -1.6540  -54.0100    5.7560 C.3   500  ACO500      0.0056
     36  CAP        0.7340  -53.1970    5.9920 C.3   500  ACO500      0.2312
     37  OAP        1.2430  -52.6760    7.2150 O.3   500  ACO500     -0.2131
     38  C9P        1.0870  -54.7400    5.8930 C.2   500  ACO500      0.2720
     39  O9P        1.5170  -55.1990    4.8350 O.2   500  ACO500     -0.2706
     40  N8P        0.9480  -55.5120    6.9850 N.am  500  ACO500     -0.2014
     41  C7P        1.3090  -56.9480    6.8670 C.3   500  ACO500      0.1386
@<TRIPOS>BOND
     1     1     2    1
     2     1     6    2
     3     2     3    1
     4     7     6    1
     5     3     4    2
     6     6     5    1
     7     4     5    1
     8     4    10    1
     9     5     8    2
    10    21    11    1
    11    21    20    1
    12    10    11    1
    13    10     9    1
    14     8     9    1
    15    11    12    1
    16    17    16    2
    17    19    16    1
    18    15    16    1
    19    15    14    1
    20    20    14    1
    21    20    22    1
    22    16    18    1
    23    34    32    1
    24    12    14    1
    25    12    13    1
    26    22    23    1
    27    39    38    2
    28    23    24    1
    29    35    32    1
    30    32    36    1
    31    32    33    1
    32    38    36    1
    33    38    40   am
    34    36    37    1
    35    31    33    1
    36    31    28    1
    37    27    24    1
    38    27    28    1
    39    24    26    2
    40    24    25    1
    41    41    40    1
    42    28    30    2
    43    28    29    1
