@<TRIPOS>MOLECULE
2a84_ATP_A_1.pdb
 31 33 0 0 0
SMALL
GASTEIGER

@<TRIPOS>ATOM
      1  PG        -0.5090   -4.2930   26.3370 P.3   2001  ATP2001     0.5373
      2  O1G       -1.8990   -4.8500   26.0850 O.3   2001  ATP2001    -0.1143
      3  O2G        0.0380   -4.7530   27.7130 O.3   2001  ATP2001    -0.1143
      4  O3G        0.4520   -4.6700   25.2120 O.2   2001  ATP2001    -0.2221
      5  PB        -1.1730   -1.7220   25.2830 P.3   2001  ATP2001     0.2277
      6  O1B       -0.0310   -1.0810   24.5500 O.3   2001  ATP2001    -0.4368
      7  O2B       -2.2750   -2.3920   24.4860 O.2   2001  ATP2001    -0.5168
      8  O3B       -0.5880   -2.7140   26.4040 O.3   2001  ATP2001    -0.2258
      9  PA        -3.1290   -0.5920   27.0740 P.3   2001  ATP2001     0.2189
     10  O1A       -2.8190    0.2470   28.2430 O.3   2001  ATP2001    -0.4371
     11  O2A       -3.5950   -1.9740   27.1130 O.2   2001  ATP2001    -0.5170
     12  O3A       -1.7640   -0.5350   26.1890 O.3   2001  ATP2001    -0.2700
     13  O5'       -4.0900    0.2610   26.0860 O.3   2001  ATP2001    -0.3112
     14  C5'       -4.5860    1.5470   26.3950 C.3   2001  ATP2001     0.1813
     15  C4'       -5.2270    2.1690   25.1730 C.3   2001  ATP2001     0.1821
     16  O4'       -4.1260    2.5480   24.2830 O.3   2001  ATP2001    -0.3135
     17  C3'       -6.1550    1.2620   24.3930 C.3   2001  ATP2001     0.2184
     18  O3'       -7.2410    2.0260   23.8740 O.3   2001  ATP2001    -0.2174
     19  C2'       -5.2840    0.8010   23.2240 C.3   2001  ATP2001     0.2570
     20  O2'       -6.0310    0.3760   22.0810 O.3   2001  ATP2001    -0.2130
     21  C1'       -4.4790    2.0580   23.0150 C.3   2001  ATP2001     0.3186
     22  N9        -3.2640    1.7220   22.2650 N.pl3 2001  ATP2001    -0.1439
     23  C8        -2.2690    0.8850   22.6610 C.3   2001  ATP2001     0.3377
     24  N7        -1.3120    0.7690   21.6540 N.2   2001  ATP2001    -0.2095
     25  C5        -1.7550    1.5530   20.6430 C.2   2001  ATP2001     0.2526
     26  C6        -1.2730    1.8490   19.3300 C.2   2001  ATP2001     0.4393
     27  N6        -0.1140    1.2790   18.9090 N.pl3 2001  ATP2001     0.2180
     28  N1        -1.9870    2.6950   18.6070 N.2   2001  ATP2001     0.0021
     29  C2        -3.1460    3.2630   19.0090 C.3   2001  ATP2001     0.5254
     30  N3        -3.6830    2.9890   20.1830 N.2   2001  ATP2001    -0.0055
     31  C4        -3.0330    2.1550   21.0220 C.2   2001  ATP2001     0.3518
@<TRIPOS>BOND
     1    28    29    1
     2    28    26    2
     3    27    26    1
     4    29    30    1
     5    26    25    1
     6    30    31    2
     7    25    31    1
     8    25    24    2
     9    31    22    1
    10    24    23    1
    11    20    19    1
    12    22    23    1
    13    22    21    1
    14    21    19    1
    15    21    16    1
    16    19    17    1
    17    18    17    1
    18    16    15    1
    19    17    15    1
    20     7     5    2
    21     6     5    1
    22    15    14    1
    23     4     1    2
    24     5    12    1
    25     5     8    1
    26     2     1    1
    27    13    14    1
    28    13     9    1
    29    12     9    1
    30     1     8    1
    31     1     3    1
    32     9    11    2
    33     9    10    1
