@<TRIPOS>MOLECULE
2a85_FMN_A_1.pdb
 31 33 0 0 0
SMALL
GASTEIGER

@<TRIPOS>ATOM
      1  N1        71.9560   82.0790   26.1310 N.2   390  FMN390     -0.2890
      2  C2        70.7690   81.5670   26.6210 C.1   390  FMN390      0.3669
      3  O2        70.5870   81.3940   27.7630 O.2   390  FMN390     -0.1744
      4  N3        69.7350   81.2180   25.6430 N.2   390  FMN390     -0.2300
      5  C4        69.8330   81.3880   24.2240 C.1   390  FMN390      0.2513
      6  O4        68.9440   81.0810   23.4350 O.2   390  FMN390     -0.2057
      7  C4A       71.1300   81.9440   23.7210 C.2   390  FMN390      0.2700
      8  N5        71.3700   82.1210   22.3980 N.2   390  FMN390     -0.3878
      9  C5A       72.6240   82.5260   21.9160 C.2   390  FMN390      0.1320
     10  C6        72.8740   82.6000   20.4840 C.2   390  FMN390      0.0250
     11  C7        74.1960   82.9000   19.9160 C.2   390  FMN390     -0.0238
     12  C7M       74.3500   82.9280   18.4290 C.3   390  FMN390      0.0308
     13  C8        75.3700   83.1620   20.8760 C.2   390  FMN390     -0.0280
     14  C8M       76.7870   83.4510   20.4400 C.3   390  FMN390      0.0304
     15  C9        75.1020   83.1190   22.2780 C.2   390  FMN390     -0.0041
     16  C9A       73.7760   82.8040   22.8780 C.3   390  FMN390      0.1497
     17  N10       73.4410   82.6660   24.3150 N.pl3 390  FMN390     -0.2691
     18  C10       72.1570   82.2520   24.8140 C.2   390  FMN390      0.2416
     19  C1'       74.5410   82.8520   25.2880 C.3   390  FMN390      0.1294
     20  C2'       75.3200   81.5440   25.4700 C.3   390  FMN390      0.2044
     21  O2'       74.6050   80.5960   26.1590 O.3   390  FMN390     -0.2185
     22  C3'       76.6650   81.7120   26.1720 C.3   390  FMN390      0.2164
     23  O3'       76.4630   82.4340   27.4550 O.3   390  FMN390     -0.2175
     24  C4'       77.7070   82.5390   25.4310 C.3   390  FMN390      0.2147
     25  O4'       77.8030   82.1980   24.0710 O.3   390  FMN390     -0.2176
     26  C5'       79.0530   82.3220   26.0710 C.3   390  FMN390      0.1892
     27  O5'       80.1370   82.9830   25.3380 O.3   390  FMN390     -0.2674
     28  P         81.0620   82.4680   24.2140 P.3   390  FMN390      0.5327
     29  O1P       82.2740   83.3610   24.0830 O.3   390  FMN390     -0.1145
     30  O2P       80.2260   82.4170   22.9830 O.2   390  FMN390     -0.2224
     31  O3P       81.4220   81.0780   24.6860 O.3   390  FMN390     -0.1145
@<TRIPOS>BOND
     1    12    11    1
     2    11    10    2
     3    11    13    1
     4    14    13    1
     5    10     9    1
     6    13    15    2
     7     9     8    2
     8     9    16    1
     9    15    16    1
    10     8     7    2
    11    16    17    1
    12    30    28    2
    13     6     5    2
    14     7     5    1
    15     7    18    1
    16    25    24    1
    17    29    28    1
    18    28    31    1
    19    28    27    1
    20     5     4    2
    21    17    18    1
    22    17    19    1
    23    18     1    2
    24    19    20    1
    25    27    26    1
    26    24    26    1
    27    24    22    1
    28    20    21    1
    29    20    22    1
    30     4     2    2
    31     1     2    2
    32    22    23    1
    33     2     3    2
