@<TRIPOS>MOLECULE
2a85_HOC_A_1.pdb
 11 10 0 0 0
SMALL
GASTEIGER

@<TRIPOS>ATOM
      1  C8        69.2840   90.7570   21.6300 C.3   462  HOC462      0.0050
      2  C7        68.0460   89.8980   21.3780 C.3   462  HOC462      0.0257
      3  OH        70.4990   84.8650   23.6400 O.3   462  HOC462     -0.2109
      4  C1        70.6820   85.7030   21.3760 C.2   462  HOC462      0.3946
      5  C2        69.7630   84.9730   22.4410 C.3   462  HOC462      0.2543
      6  C3        68.4290   85.6740   22.8300 C.3   462  HOC462      0.0494
      7  C4        67.3870   85.9500   21.7170 C.3   462  HOC462      0.0289
      8  C5        67.1030   87.4580   21.4320 C.2   462  HOC462     -0.0306
      9  C6        68.3040   88.4240   21.6570 C.2   462  HOC462     -0.0307
     10  O1A       71.7580   86.3600   21.9290 O.co2 462  HOC462     -0.2428
     11  O1B       70.5190   85.7020   20.1560 O.co2 462  HOC462     -0.2428
@<TRIPOS>BOND
     1    11     4   ar
     2     4    10   ar
     3     4     5    1
     4     2     1    1
     5     2     9    1
     6     8     9    2
     7     8     7    1
     8     7     6    1
     9     5     6    1
    10     5     3    1
