@<TRIPOS>MOLECULE
2a86_AMP_A_1.pdb
 23 25 0 0 0
SMALL
GASTEIGER

@<TRIPOS>ATOM
      1  P         33.7920   36.2690   43.3630 P.3   1001  AMP1001     0.5327
      2  O1P       34.9290   36.2330   42.3770 O.2   1001  AMP1001    -0.2224
      3  O2P       33.3360   37.6500   43.7900 O.3   1001  AMP1001    -0.1145
      4  O3P       33.9980   35.3280   44.5180 O.3   1001  AMP1001    -0.1145
      5  O5'       32.5400   35.7070   42.5140 O.3   1001  AMP1001    -0.2675
      6  C5'       31.2330   35.8640   43.0810 C.3   1001  AMP1001     0.1860
      7  C4'       30.2680   34.9580   42.3150 C.3   1001  AMP1001     0.1823
      8  O4'       30.2140   35.3780   40.9460 O.3   1001  AMP1001    -0.3135
      9  C3'       30.7550   33.5050   42.2860 C.3   1001  AMP1001     0.2184
     10  O3'       29.5650   32.7460   42.2970 O.3   1001  AMP1001    -0.2174
     11  C2'       31.4160   33.3700   40.9230 C.3   1001  AMP1001     0.2570
     12  O2'       31.4250   32.0380   40.3710 O.3   1001  AMP1001    -0.2130
     13  C1'       30.6050   34.3110   40.0770 C.3   1001  AMP1001     0.3186
     14  N9        31.4530   34.7130   38.9480 N.pl3 1001  AMP1001    -0.1439
     15  C8        32.6760   35.3120   38.9740 C.3   1001  AMP1001     0.3377
     16  N7        33.1600   35.4420   37.7010 N.2   1001  AMP1001    -0.2095
     17  C5        32.2170   34.9440   36.8650 C.2   1001  AMP1001     0.2526
     18  C6        32.0600   34.7880   35.4150 C.2   1001  AMP1001     0.4393
     19  N6        33.0540   35.1920   34.5900 N.pl3 1001  AMP1001     0.2180
     20  N1        30.9190   34.2020   34.9450 N.2   1001  AMP1001     0.0021
     21  C2        29.9400   33.7380   35.7570 C.3   1001  AMP1001     0.5254
     22  N3        30.0150   33.8570   37.1020 N.2   1001  AMP1001    -0.0055
     23  C4        31.1060   34.4400   37.6830 C.2   1001  AMP1001     0.3518
@<TRIPOS>BOND
     1    19    18    1
     2    20    18    2
     3    20    21    1
     4    18    17    1
     5    21    22    1
     6    17    23    1
     7    17    16    2
     8    22    23    2
     9    23    14    1
    10    16    15    1
    11    14    15    1
    12    14    13    1
    13    13    11    1
    14    13     8    1
    15    12    11    1
    16    11     9    1
    17     8     7    1
    18     9    10    1
    19     9     7    1
    20     7     6    1
    21     2     1    2
    22     5     6    1
    23     5     1    1
    24     1     3    1
    25     1     4    1
