@<TRIPOS>MOLECULE
2a87_NAP_A_1.pdb
 48 52 0 0 0
SMALL
GASTEIGER

@<TRIPOS>ATOM
      1  PA        -7.7890   10.1930   37.7330 P.3   381  NAP381      0.2189
      2  O1A       -8.4430    9.5200   36.5890 O.2   381  NAP381     -0.5170
      3  O2A       -8.0300   11.6530   37.6820 O.3   381  NAP381     -0.4371
      4  O5B       -8.3320    9.5690   39.1230 O.3   381  NAP381     -0.3112
      5  C5B       -8.9550   10.4000   40.0810 C.3   381  NAP381      0.1813
      6  C4B       -9.3430    9.5970   41.3220 C.3   381  NAP381      0.1820
      7  O4B       -8.7560   10.1460   42.5000 O.3   381  NAP381     -0.3136
      8  C3B      -10.8440    9.5960   41.6050 C.3   381  NAP381      0.2157
      9  O3B      -11.6240    8.6810   40.8740 O.3   381  NAP381     -0.2175
     10  C2B      -10.8540    9.2670   43.0770 C.3   381  NAP381      0.2314
     11  O2B      -10.7490    7.8850   43.2730 O.3   381  NAP381     -0.2630
     12  C1B       -9.6340    9.9940   43.6060 C.3   381  NAP381      0.3158
     13  N9A      -10.1780   11.2570   44.1340 N.pl3 381  NAP381     -0.1439
     14  C8A      -10.6640   12.3090   43.3930 C.3   381  NAP381      0.3377
     15  N7A      -11.1090   13.2580   44.2480 N.2   381  NAP381     -0.2095
     16  C5A      -10.9200   12.8310   45.5130 C.2   381  NAP381      0.2526
     17  C6A      -11.1960   13.4180   46.7350 C.2   381  NAP381      0.4393
     18  N6A      -11.7140   14.6430   46.7730 N.pl3 381  NAP381      0.2180
     19  N1A      -10.8990   12.7350   47.8980 N.2   381  NAP381      0.0021
     20  C2A      -10.3270   11.4770   47.8320 C.3   381  NAP381      0.5254
     21  N3A      -10.0560   10.8970   46.6040 N.2   381  NAP381     -0.0055
     22  C4A      -10.3480   11.5660   45.4610 C.2   381  NAP381      0.3518
     23  O3        -6.2080    9.8560   37.7060 O.3   381  NAP381     -0.2703
     24  PN        -5.1400   10.7430   36.8810 P.3   381  NAP381      0.2189
     25  O1N       -5.1980   12.1190   37.4220 O.3   381  NAP381     -0.4371
     26  O2N       -3.8540   10.0090   36.8350 O.2   381  NAP381     -0.5170
     27  O5D       -5.7340   10.7650   35.3850 O.3   381  NAP381     -0.3112
     28  C5D       -4.9510   11.2350   34.3120 C.3   381  NAP381      0.1813
     29  C4D       -4.7410   12.7390   34.4790 C.3   381  NAP381      0.1799
     30  O4D       -3.3740   12.9930   34.7480 O.3   381  NAP381     -0.3327
     31  C3D       -5.1430   13.5450   33.2570 C.3   381  NAP381      0.2158
     32  O3D       -6.1870   14.4440   33.5860 O.3   381  NAP381     -0.2175
     33  C2D       -3.8970   14.2940   32.8400 C.3   381  NAP381      0.2309
     34  O2D       -4.1780   15.6640   32.9450 O.3   381  NAP381     -0.2158
     35  C1D       -2.8090   13.9030   33.8250 C.3   381  NAP381      0.2263
     36  N1N       -1.5910   13.3010   33.2520 N.pl3 381  NAP381     -0.2787
     37  C2N       -1.6690   12.2200   32.4160 C.3   381  NAP381      0.1244
     38  C3N       -0.5040   11.6440   31.9040 C.2   381  NAP381      0.0544
     39  C7N       -0.5370   10.1620   31.6630 C.2   381  NAP381      0.2818
     40  O7N       -0.8110    9.2920   32.7360 O.2   381  NAP381     -0.2670
     41  N7N       -0.3070    9.7010   30.4360 N.am  381  NAP381     -0.0839
     42  C4N        0.7330   12.1900   32.2490 C.2   381  NAP381      0.0033
     43  C5N        0.8040   13.2790   33.1150 C.2   381  NAP381      0.0157
     44  C6N       -0.3750   13.8230   33.6140 C.2   381  NAP381      0.0633
     45  P2B      -12.0920    7.0120   43.3120 P.3   381  NAP381      0.5328
     46  O1X      -11.6960    5.6050   42.9620 O.3   381  NAP381     -0.1145
     47  O2X      -13.1080    7.5430   42.3260 O.2   381  NAP381     -0.2224
     48  O3X      -12.6590    7.0600   44.7080 O.3   381  NAP381     -0.1145
@<TRIPOS>BOND
     1    41    39   am
     2    39    38    1
     3    39    40    2
     4    38    42    2
     5    38    37    1
     6    42    43    1
     7    37    36    1
     8    33    34    1
     9    33    31    1
    10    33    35    1
    11    43    44    2
    12    36    44    1
    13    36    35    1
    14    31    32    1
    15    31    29    1
    16    35    30    1
    17    28    29    1
    18    28    27    1
    19    29    30    1
    20    27    24    1
    21     2     1    2
    22    26    24    2
    23    24    25    1
    24    24    23    1
    25     3     1    1
    26    23     1    1
    27     1     4    1
    28     4     5    1
    29     5     6    1
    30     9     8    1
    31     6     8    1
    32     6     7    1
    33     8    10    1
    34    47    45    2
    35     7    12    1
    36    46    45    1
    37    10    11    1
    38    10    12    1
    39    11    45    1
    40    45    48    1
    41    14    13    1
    42    14    15    1
    43    12    13    1
    44    13    22    1
    45    15    16    2
    46    22    16    1
    47    22    21    2
    48    16    17    1
    49    21    20    1
    50    17    18    1
    51    17    19    2
    52    20    19    1
