@<TRIPOS>MOLECULE
2a8g_GNG_B_1.pdb
 19 21 0 0 0
SMALL
GASTEIGER

@<TRIPOS>ATOM
      1  O5'        9.3980    3.5290    0.1720 O.3   201  GNG201     -0.2176
      2  C5'        9.7610    2.1560    0.2790 C.3   201  GNG201      0.2141
      3  C4'       10.9090    2.1550    1.2640 C.3   201  GNG201      0.1802
      4  O4'       10.3990    1.8720    2.5630 O.3   201  GNG201     -0.3346
      5  C1'       11.4440    1.2120    3.2680 C.3   201  GNG201      0.1981
      6  N9        11.0050    0.6070    4.5510 N.pl3 201  GNG201     -0.2374
      7  C8         9.8890    0.9350    5.2250 C.3   201  GNG201      0.2245
      8  N7         9.8400    0.1690    6.3250 N.2   201  GNG201     -0.2322
      9  C5        10.9410   -0.6090    6.3430 C.2   201  GNG201      0.2182
     10  C4        11.6880   -0.3360    5.2230 C.2   201  GNG201      0.2299
     11  N3        12.8630   -1.0100    5.0090 N.2   201  GNG201     -0.3074
     12  C2        13.2930   -1.9410    5.9120 C.1   201  GNG201      0.2531
     13  N1        12.5570   -2.2150    6.9990 N.2   201  GNG201     -0.2485
     14  C6        11.4090   -1.5690    7.2070 C.1   201  GNG201      0.2372
     15  O6        10.7720   -1.8490    8.2170 O.2   201  GNG201     -0.2069
     16  N2        14.4390   -2.6400    5.7710 N.pl3 201  GNG201     -0.0226
     17  C2'       11.9820    0.2230    2.2550 C.3   201  GNG201      0.0865
     18  C3'       11.9530    1.0830    1.0060 C.3   201  GNG201      0.1858
     19  O3'       13.2210    1.7220    0.9510 O.3   201  GNG201     -0.2203
@<TRIPOS>BOND
     1     1     2    1
     2     2     3    1
     3    19    18    1
     4    18     3    1
     5    18    17    1
     6     3     4    1
     7    17     5    1
     8     4     5    1
     9     5     6    1
    10     6    10    1
    11     6     7    1
    12    11    10    2
    13    11    12    2
    14    10     9    1
    15     7     8    1
    16    16    12    1
    17    12    13    2
    18     8     9    2
    19     9    14    1
    20    13    14    2
    21    14    15    2
