@<TRIPOS>MOLECULE
2a8h_4NH_A_1.pdb
 27 28 0 0 0
SMALL
GASTEIGER

@<TRIPOS>ATOM
      1  C1        -7.4890   16.2720  113.1280 C.3   158  4NH158      0.0127
      2  C2        -6.8460   15.2780  112.1410 C.3   158  4NH158      0.0601
      3  C3        -5.6970   14.4770  112.8330 C.3   158  4NH158      0.1334
      4  N1        -6.2000   13.7420  114.0690 N.3   158  4NH158     -0.1492
      5  C4        -7.3080   12.7310  113.8460 C.3   158  4NH158      0.1078
      6  C5        -8.5500   13.3940  113.2830 C.3   158  4NH158      0.0767
      7  S1        -8.2060   14.1210  111.6640 S.3   158  4NH158     -0.1386
      8  S2        -5.5790   13.9980  115.6990 S.O2  158  4NH158      0.0636
      9  O1        -4.7050   15.1530  115.7550 O.2   158  4NH158     -0.1528
     10  O2        -6.6830   13.8670  116.6320 O.2   158  4NH158     -0.1528
     11  C6        -4.5050   12.6080  115.9140 C.ar  158  4NH158      0.1224
     12  C7        -5.0300   11.3420  116.1560 C.ar  158  4NH158      0.0230
     13  C8        -4.1620   10.2580  116.3230 C.ar  158  4NH158      0.0383
     14  C9        -2.7790   10.4430  116.2490 C.ar  158  4NH158      0.1401
     15  C10       -2.2710   11.7260  116.0050 C.ar  158  4NH158      0.0383
     16  C11       -3.1290   12.8110  115.8370 C.ar  158  4NH158      0.0230
     17  O3        -1.8260    9.4690  116.3940 O.3   158  4NH158     -0.4612
     18  C12       -2.0450    8.4320  117.3530 C.3   158  4NH158      0.2811
     19  C13       -1.9020    8.9330  118.7250 C.1   158  4NH158     -0.0424
     20  C14       -1.7850    9.3430  119.8480 C.1   158  4NH158     -0.0664
     21  C15       -1.6420    9.8410  121.2130 C.3   158  4NH158      0.1846
     22  N2        -2.9280    9.6830  121.9370 N.3   158  4NH158     -0.1160
     23  C16       -5.0490   13.5150  111.8460 C.2   158  4NH158      0.1037
     24  O4        -5.6890   12.6970  111.1880 O.2   158  4NH158     -0.5381
     25  N3        -3.6840   13.6670  111.7770 N.am  158  4NH158     -0.2015
     26  O5        -3.0190   12.8130  110.8860 O.3   158  4NH158     -0.4026
     27  C17       -6.4130   16.0430  110.8760 C.3   158  4NH158      0.0127
@<TRIPOS>BOND
     1    27     2    1
     2    26    25    1
     3    24    23    2
     4     7     2    1
     5     7     6    1
     6    25    23   am
     7    23     3    1
     8     2     3    1
     9     2     1    1
    10     3     4    1
    11     6     5    1
    12     5     4    1
    13     4     8    1
    14     8     9    2
    15     8    11    1
    16     8    10    2
    17    16    11   ar
    18    16    15   ar
    19    11    12   ar
    20    15    14   ar
    21    12    13   ar
    22    14    13   ar
    23    14    17    1
    24    17    18    1
    25    18    19    1
    26    19    20    3
    27    20    21    1
    28    21    22    1
