@<TRIPOS>MOLECULE
2a8s_GTP_A_1.pdb
 32 34 0 0 0
SMALL
GASTEIGER

@<TRIPOS>ATOM
      1  PG        16.7800   55.0410    1.3630 P.3   250  GTP250      0.5373
      2  O1G       16.8040   55.1210    2.8480 O.3   250  GTP250     -0.1143
      3  O2G       16.5790   56.5290    0.7170 O.2   250  GTP250     -0.2221
      4  O3G       15.5590   54.1250    0.7900 O.3   250  GTP250     -0.1143
      5  O3B       18.1200   54.3830    0.7050 O.3   250  GTP250     -0.2258
      6  PB        18.8840   53.2860    1.5590 P.3   250  GTP250      0.2277
      7  O1B       18.5180   53.4870    2.9690 O.3   250  GTP250     -0.4368
      8  O2B       18.6810   51.9450    0.9650 O.2   250  GTP250     -0.5168
      9  O3A       20.4440   53.7490    1.4490 O.3   250  GTP250     -0.2700
     10  PA        21.6460   52.6600    1.5020 P.3   250  GTP250      0.2189
     11  O1A       21.1170   51.3710    2.0000 O.3   250  GTP250     -0.4371
     12  O2A       22.3440   52.7150    0.1970 O.2   250  GTP250     -0.5170
     13  O5'       22.6600   53.2110    2.6480 O.3   250  GTP250     -0.3112
     14  C5'       23.3380   54.4550    2.4650 C.3   250  GTP250      0.1813
     15  C4'       24.7720   54.4930    3.0510 C.3   250  GTP250      0.1799
     16  O4'       25.0810   53.3330    3.8570 O.3   250  GTP250     -0.3326
     17  C3'       25.7860   54.5410    1.9000 C.3   250  GTP250      0.2158
     18  O3'       26.7280   55.5840    2.1700 O.3   250  GTP250     -0.2175
     19  C2'       26.4880   53.1880    1.9360 C.3   250  GTP250      0.2310
     20  O2'       27.8880   53.3680    1.7360 O.3   250  GTP250     -0.2158
     21  C1'       26.2960   52.7120    3.3640 C.3   250  GTP250      0.2293
     22  N9        25.9830   51.2700    3.4410 N.pl3 250  GTP250     -0.2354
     23  C8        25.0900   50.6240    2.6840 C.3   250  GTP250      0.2246
     24  N7        25.0400   49.3410    3.0460 N.2   250  GTP250     -0.2322
     25  C5        25.9030   49.1670    4.0470 C.2   250  GTP250      0.2182
     26  C6        26.2580   48.0500    4.8010 C.1   250  GTP250      0.2372
     27  O6        25.7350   46.9570    4.5730 O.2   250  GTP250     -0.2069
     28  N1        27.2250   48.2040    5.8150 N.2   250  GTP250     -0.2485
     29  C2        27.8020   49.4730    6.0360 C.1   250  GTP250      0.2531
     30  N2        28.7210   49.6330    6.9900 N.pl3 250  GTP250     -0.0226
     31  N3        27.4270   50.5250    5.2830 N.2   250  GTP250     -0.3074
     32  C4        26.5040   50.4000    4.3070 C.2   250  GTP250      0.2300
@<TRIPOS>BOND
     1    12    10    2
     2     5     1    1
     3     5     6    1
     4     3     1    2
     5     4     1    1
     6     8     6    2
     7     1     2    1
     8     9    10    1
     9     9     6    1
    10    10    11    1
    11    10    13    1
    12     6     7    1
    13    20    19    1
    14    17    19    1
    15    17    18    1
    16    17    15    1
    17    19    21    1
    18    14    13    1
    19    14    15    1
    20    23    24    1
    21    23    22    1
    22    24    25    2
    23    15    16    1
    24    21    22    1
    25    21    16    1
    26    22    32    1
    27    25    32    1
    28    25    26    1
    29    32    31    2
    30    27    26    2
    31    26    28    2
    32    31    29    2
    33    28    29    2
    34    29    30    1
