@<TRIPOS>MOLECULE
2a8t_MGT_A_1.pdb
 32 34 0 0 0
SMALL
GASTEIGER

@<TRIPOS>ATOM
      1  PG        22.4890   51.9790    1.9790 P.3   251  MGT251      0.3991
      2  O2G       23.2430   52.1750    0.7170 O.3   251  MGT251     -0.1422
      3  O3G       21.9540   50.6370    2.2920 O.3   251  MGT251     -0.1422
      4  O3B       21.3660   53.1580    2.0810 O.3   251  MGT251     -0.2510
      5  PB        19.7720   53.0450    1.8340 P.3   251  MGT251      0.2251
      6  O1B       19.1640   53.9280    2.8440 O.3   251  MGT251     -0.4369
      7  O2B       19.3920   51.6220    1.8360 O.2   251  MGT251     -0.5168
      8  O3A       19.5240   53.7000    0.3570 O.3   251  MGT251     -0.2701
      9  PA        20.7310   54.0540   -0.7160 P.3   251  MGT251      0.2189
     10  O1A       21.6390   55.0640   -0.1210 O.3   251  MGT251     -0.4371
     11  O2A       21.2780   52.7700   -1.1760 O.2   251  MGT251     -0.5170
     12  O5'       19.9510   54.7390   -1.9610 O.3   251  MGT251     -0.3112
     13  C5'       20.1080   56.1340   -2.2780 C.3   251  MGT251      0.1813
     14  C4'       18.8360   56.6800   -2.9410 C.3   251  MGT251      0.1799
     15  O4'       17.7480   56.6500   -2.0030 O.3   251  MGT251     -0.3326
     16  C3'       19.0080   58.1450   -3.3090 C.3   251  MGT251      0.2158
     17  O3'       19.5570   58.2340   -4.6270 O.3   251  MGT251     -0.2175
     18  C2'       17.5740   58.6880   -3.2750 C.3   251  MGT251      0.2310
     19  O2'       17.0010   58.7310   -4.5910 O.3   251  MGT251     -0.2158
     20  C1'       16.8030   57.6820   -2.4010 C.3   251  MGT251      0.2287
     21  N9        16.2830   58.3150   -1.1400 N.pl3 251  MGT251     -0.2454
     22  C8        17.0020   59.0340   -0.2730 C.3   251  MGT251      0.1735
     23  N7        16.2060   59.4170    0.7190 N.3   251  MGT251     -0.2343
     24  CM7       16.6670   60.2430    1.8690 C.3   251  MGT251      0.0924
     25  C5        14.9740   58.9530    0.5150 C.3   251  MGT251      0.2475
     26  C6        13.7620   59.0380    1.2060 C.1   251  MGT251      0.2145
     27  O6        13.6680   59.6560    2.2660 O.2   251  MGT251     -0.2115
     28  N1        12.6300   58.4030    0.6750 N.2   251  MGT251     -0.2526
     29  C2        12.7450   57.7000   -0.5330 C.1   251  MGT251      0.2525
     30  N2        11.6800   57.0930   -1.0470 N.pl3 251  MGT251     -0.0226
     31  N3        13.9280   57.6380   -1.1710 N.2   251  MGT251     -0.3118
     32  C4        15.0290   58.2410   -0.6820 C.2   251  MGT251      0.2086
@<TRIPOS>BOND
     1    17    16    1
     2    19    18    1
     3    16    18    1
     4    16    14    1
     5    18    20    1
     6    14    13    1
     7    14    15    1
     8    20    15    1
     9    20    21    1
    10    13    12    1
    11    12     9    1
    12    11     9    2
    13    31    32    2
    14    31    29    2
    15    21    32    1
    16    21    22    1
    17    30    29    1
    18     9    10    1
    19     9     8    1
    20    32    25    1
    21    29    28    2
    22    22    23    1
    23     8     5    1
    24    25    23    1
    25    25    26    1
    26    28    26    2
    27     2     1    1
    28    23    24    1
    29    26    27    2
    30     5     7    2
    31     5     4    1
    32     5     6    1
    33     1     4    1
    34     1     3    1
