@<TRIPOS>MOLECULE
2a8t_ADN_A_1.pdb
 19 21 0 0 0
SMALL
GASTEIGER

@<TRIPOS>ATOM
      1  O5'       23.4850   52.3510    3.2070 O.3   252  ADN252     -0.2176
      2  C5'       24.1220   53.6430    3.2940 C.3   252  ADN252      0.2143
      3  C4'       25.6620   53.6000    3.0950 C.3   252  ADN252      0.1851
      4  O4'       26.2530   52.9420    4.2310 O.3   252  ADN252     -0.3134
      5  C3'       26.1500   52.7540    1.9130 C.3   252  ADN252      0.2186
      6  O3'       26.0860   53.5060    0.6970 O.3   252  ADN252     -0.2174
      7  C2'       27.6020   52.4670    2.2900 C.3   252  ADN252      0.2570
      8  O2'       28.4580   53.5140    1.8160 O.3   252  ADN252     -0.2130
      9  C1'       27.5910   52.4940    3.8240 C.3   252  ADN252      0.3186
     10  N9        27.8040   51.1710    4.4930 N.pl3 252  ADN252     -0.1439
     11  C8        28.7200   50.9260    5.4330 C.3   252  ADN252      0.3377
     12  N7        28.6290   49.6580    5.8320 N.2   252  ADN252     -0.2095
     13  C5        27.6470   49.0920    5.1450 C.2   252  ADN252      0.2526
     14  C6        27.1030   47.8100    5.1290 C.2   252  ADN252      0.4393
     15  N6        27.5880   46.8780    5.9380 N.pl3 252  ADN252      0.2180
     16  N1        26.0850   47.5290    4.2890 N.2   252  ADN252      0.0021
     17  C2        25.6050   48.4760    3.4870 C.3   252  ADN252      0.5254
     18  N3        26.0970   49.7120    3.4810 N.2   252  ADN252     -0.0055
     19  C4        27.1170   50.0490    4.2940 C.2   252  ADN252      0.3518
@<TRIPOS>BOND
     1     6     5    1
     2     8     7    1
     3     5     7    1
     4     5     3    1
     5     7     9    1
     6     3     2    1
     7     3     4    1
     8     1     2    1
     9    18    17    1
    10    18    19    2
    11    17    16    1
    12     9     4    1
    13     9    10    1
    14    16    14    2
    15    19    10    1
    16    19    13    1
    17    10    11    1
    18    14    13    1
    19    14    15    1
    20    13    12    2
    21    11    12    1
