@<TRIPOS>MOLECULE
2a8u_DR5_A_1.pdb
 24 25 0 0 0
SMALL
GASTEIGER

@<TRIPOS>ATOM
      1  O2        15.9750   62.9140   47.0080 O.3     2  DR52       -0.2149
      2  C2        17.2640   62.7600   46.4090 C.3     2  DR52        0.2406
      3  C3        17.9070   61.4520   46.8780 C.3     2  DR52        0.2198
      4  O3        17.1290   60.3470   46.4090 O.3     2  DR52       -0.2174
      5  C4        19.3290   61.3400   46.3260 C.3     2  DR52        0.2144
      6  O4        19.2680   61.2510   44.8990 O.3     2  DR52       -0.2176
      7  C5        20.1210   62.5900   46.7200 C.3     2  DR52        0.1835
      8  C6        21.5460   62.5240   46.1680 C.3     2  DR52        0.2142
      9  O6        22.2490   63.7140   46.5370 O.3     2  DR52       -0.2176
     10  O5        19.4620   63.7550   46.1960 O.3     2  DR52       -0.3256
     11  C1        18.1590   63.9480   46.7720 C.3     2  DR52        0.2695
     12  O1        17.5870   65.1480   46.2280 O.3     2  DR52       -0.3257
     13  CAX       18.0370   66.3330   46.9050 C.3     2  DR52        0.1804
     14  CAS       19.5070   66.6530   46.6140 C.3     2  DR52        0.2167
     15  OAH       20.3440   65.6470   47.1900 O.3     2  DR52       -0.2175
     16  CAR       19.8990   68.0080   47.2090 C.3     2  DR52        0.2404
     17  OAG       21.2380   68.3270   46.8200 O.3     2  DR52       -0.2149
     18  CAV       18.9500   69.0890   46.6900 C.3     2  DR52        0.2695
     19  OAK       19.3030   70.3530   47.2710 O.3     2  DR52       -0.3259
     20  CAA       18.5990   71.4030   46.6030 C.3     2  DR52        0.1769
     21  OAM       17.6080   68.7330   47.0620 O.3     2  DR52       -0.3257
     22  CAU       17.1890   67.5080   46.4360 C.3     2  DR52        0.1803
     23  CAJ       15.7150   67.2480   46.7570 C.3     2  DR52        0.2141
     24  OAC       15.5500   67.0700   48.1660 O.3     2  DR52       -0.2176
@<TRIPOS>BOND
     1     6     5    1
     2     8     9    1
     3     8     7    1
     4    10     7    1
     5    10    11    1
     6    12    11    1
     7    12    13    1
     8     5     7    1
     9     5     3    1
    10     2    11    1
    11     2     3    1
    12     2     1    1
    13     4     3    1
    14    22    23    1
    15    22    13    1
    16    22    21    1
    17    20    19    1
    18    14    13    1
    19    14    15    1
    20    14    16    1
    21    18    21    1
    22    18    16    1
    23    18    19    1
    24    23    24    1
    25    17    16    1
