@<TRIPOS>MOLECULE
2a8u_UDP_A_1.pdb
 25 26 0 0 0
SMALL
GASTEIGER

@<TRIPOS>ATOM
      1  N1         9.7490   51.8120   47.3790 N.am    1  UDP1       -0.1766
      2  C2         8.6920   50.9530   47.7120 C.1     1  UDP1        0.2845
      3  N3         8.2170   50.9270   49.0290 N.2     1  UDP1       -0.2452
      4  C4         8.7930   51.7530   50.0050 C.1     1  UDP1        0.2182
      5  C5         9.8390   52.6060   49.6730 C.2     1  UDP1        0.1242
      6  C6        10.3130   52.6350   48.3650 C.2     1  UDP1        0.0929
      7  O2         8.1800   50.2330   46.8560 O.2     1  UDP1       -0.1918
      8  O4         8.3670   51.7240   51.1590 O.2     1  UDP1       -0.2085
      9  C1'       10.2870   51.8180   45.9990 C.3     1  UDP1        0.2401
     10  C2'        9.4280   52.7030   45.0920 C.3     1  UDP1        0.2319
     11  O2'        9.5530   52.2720   43.7340 O.3     1  UDP1       -0.2157
     12  C3'       10.1130   54.0550   45.2780 C.3     1  UDP1        0.2158
     13  C4'       11.5550   53.5650   45.1510 C.3     1  UDP1        0.1799
     14  O4'       11.5980   52.4170   46.0140 O.3     1  UDP1       -0.3320
     15  O3'        9.7980   54.9010   44.1690 O.3     1  UDP1       -0.2175
     16  C5'       12.6100   54.6150   45.5100 C.3     1  UDP1        0.1813
     17  O5'       12.4640   55.0890   46.8520 O.3     1  UDP1       -0.3111
     18  PA        11.5370   56.3640   47.1880 P.3     1  UDP1        0.2231
     19  O1A       10.7410   56.7360   45.8390 O.2     1  UDP1       -0.5169
     20  O2A       10.6200   56.1300   48.3270 O.3     1  UDP1       -0.4370
     21  O3A       12.5350   57.5960   47.4710 O.3     1  UDP1       -0.2261
     22  PB        13.1020   58.4910   46.2590 P.3     1  UDP1        0.5373
     23  O1B       11.9310   59.5230   45.8650 O.3     1  UDP1       -0.1143
     24  O2B       14.2900   59.3870   46.8740 O.3     1  UDP1       -0.1143
     25  O3B       13.5550   57.6900   45.0990 O.2     1  UDP1       -0.2221
@<TRIPOS>BOND
     1    11    10    1
     2    15    12    1
     3    10    12    1
     4    10     9    1
     5    25    22    2
     6    13    12    1
     7    13    16    1
     8    13    14    1
     9    16    17    1
    10    19    18    2
    11    23    22    1
    12     9    14    1
    13     9     1    1
    14    22    24    1
    15    22    21    1
    16    17    18    1
    17     7     2    2
    18    18    21    1
    19    18    20    1
    20     1     2   am
    21     1     6    1
    22     2     3    2
    23     6     5    2
    24     3     4    2
    25     5     4    1
    26     4     8    2
