@<TRIPOS>MOLECULE
2a8w_UDP_A_1.pdb
 25 26 0 0 0
SMALL
GASTEIGER

@<TRIPOS>ATOM
      1  N1        10.6210   52.8950   45.7260 N.am    1  UDP1       -0.1766
      2  C2         9.6800   52.3530   44.8390 C.1     1  UDP1        0.2845
      3  N3         8.8080   51.3540   45.2920 N.2     1  UDP1       -0.2452
      4  C4         8.8760   50.9030   46.6170 C.1     1  UDP1        0.2182
      5  C5         9.8080   51.4430   47.4950 C.2     1  UDP1        0.1242
      6  C6        10.6760   52.4350   47.0490 C.2     1  UDP1        0.0929
      7  O2         9.6140   52.7470   43.6760 O.2     1  UDP1       -0.1918
      8  O4         8.1090   50.0220   47.0030 O.2     1  UDP1       -0.2085
      9  C1'       11.5660   53.9320   45.2510 C.3     1  UDP1        0.2401
     10  C2'       11.0360   55.3340   45.5630 C.3     1  UDP1        0.2319
     11  O2'       11.6310   56.2870   44.6790 O.3     1  UDP1       -0.2157
     12  C3'       11.5740   55.5280   46.9790 C.3     1  UDP1        0.2158
     13  C4'       12.9920   55.0200   46.7230 C.3     1  UDP1        0.1799
     14  O4'       12.7940   53.7980   45.9930 O.3     1  UDP1       -0.3320
     15  O3'       11.6150   56.9230   47.2910 O.3     1  UDP1       -0.2175
     16  C5'       13.7810   54.8170   48.0190 C.3     1  UDP1        0.1813
     17  O5'       13.1150   53.8970   48.8890 O.3     1  UDP1       -0.3111
     18  PA        13.5920   53.7590   50.4210 P.3     1  UDP1        0.2231
     19  O1A       12.5560   52.7550   51.1360 O.3     1  UDP1       -0.4370
     20  O2A       14.9950   53.3100   50.5640 O.2     1  UDP1       -0.5169
     21  O3A       13.3460   55.2040   51.0870 O.3     1  UDP1       -0.2261
     22  PB        11.8640   55.8320   51.1300 P.3     1  UDP1        0.5373
     23  O1B       11.3070   55.5910   52.6210 O.3     1  UDP1       -0.1143
     24  O2B       12.0410   57.4240   50.9710 O.3     1  UDP1       -0.1143
     25  O3B       10.9590   55.2690   50.1030 O.2     1  UDP1       -0.2221
@<TRIPOS>BOND
     1     7     2    2
     2    11    10    1
     3     2     3    2
     4     2     1   am
     5     9    10    1
     6     9     1    1
     7     9    14    1
     8     3     4    2
     9    10    12    1
    10     1     6    1
    11    14    13    1
    12     4     8    2
    13     4     5    1
    14    13    12    1
    15    13    16    1
    16    12    15    1
    17     6     5    2
    18    16    17    1
    19    17    18    1
    20    25    22    2
    21    18    20    2
    22    18    21    1
    23    18    19    1
    24    24    22    1
    25    21    22    1
    26    22    23    1
