@<TRIPOS>MOLECULE
2a8y_MTA_A_1.pdb
 20 22 0 0 0
SMALL
GASTEIGER

@<TRIPOS>ATOM
      1  CS       -99.5160   -4.7100  -27.8310 C.3   4003  MTA4003     0.0693
      2  S5'      -98.8110   -5.8720  -29.0210 S.3   4003  MTA4003    -0.1367
      3  C5'      -98.0380   -7.1090  -27.9100 C.3   4003  MTA4003     0.0899
      4  C4'      -98.9440   -7.9620  -27.0550 C.3   4003  MTA4003     0.1630
      5  O4'      -99.7820   -8.7170  -27.9000 O.3   4003  MTA4003    -0.3153
      6  C2'      -98.9570  -10.3050  -26.4320 C.3   4003  MTA4003     0.2569
      7  O2'      -99.3010  -11.0040  -25.2000 O.3   4003  MTA4003    -0.2130
      8  C3'      -98.1390   -8.9680  -26.2540 C.3   4003  MTA4003     0.2168
      9  O3'      -98.1200   -8.5520  -24.8480 O.3   4003  MTA4003    -0.2175
     10  C1'     -100.2450   -9.9750  -27.2510 C.3   4003  MTA4003     0.3185
     11  N9      -100.5040  -10.7180  -28.4960 N.pl3 4003  MTA4003    -0.1439
     12  C8      -101.5580  -10.3860  -29.3200 C.3   4003  MTA4003     0.3377
     13  N7      -101.6080  -11.0680  -30.4040 N.2   4003  MTA4003    -0.2095
     14  C5      -100.5240  -11.9140  -30.3220 C.2   4003  MTA4003     0.2526
     15  C6       -99.9860  -12.8870  -31.2120 C.2   4003  MTA4003     0.4393
     16  N6      -100.5070  -13.1460  -32.4050 N.pl3 4003  MTA4003     0.2180
     17  N1       -98.8760  -13.5580  -30.8030 N.2   4003  MTA4003     0.0021
     18  C2       -98.3260  -13.2940  -29.6060 C.3   4003  MTA4003     0.5254
     19  N3       -98.7350  -12.3760  -28.6880 N.2   4003  MTA4003    -0.0055
     20  C4       -99.8460  -11.7280  -29.1290 C.2   4003  MTA4003     0.3518
@<TRIPOS>BOND
     1    16    15    1
     2    15    17    2
     3    15    14    1
     4    17    18    1
     5    13    14    2
     6    13    12    1
     7    14    20    1
     8    18    19    1
     9    12    11    1
    10    20    19    2
    11    20    11    1
    12     2     3    1
    13     2     1    1
    14    11    10    1
    15     3     4    1
    16     5    10    1
    17     5     4    1
    18    10     6    1
    19     4     8    1
    20     6     8    1
    21     6     7    1
    22     8     9    1
