@<TRIPOS>MOLECULE
2a92_NAI_A_1.pdb
 44 48 0 0 0
SMALL
GASTEIGER

@<TRIPOS>ATOM
      1  PA       -15.6440  -26.3360    6.5420 P.3   601  NAI601      0.2189
      2  O1A      -16.6220  -26.1490    7.6530 O.3   601  NAI601     -0.4371
      3  O2A      -15.5600  -27.7370    6.0520 O.2   601  NAI601     -0.5170
      4  O5B      -15.9930  -25.3710    5.3070 O.3   601  NAI601     -0.3112
      5  C5B      -15.5840  -25.6390    3.9770 C.3   601  NAI601      0.1813
      6  C4B      -16.7580  -25.2710    3.0920 C.3   601  NAI601      0.1821
      7  O4B      -16.3730  -25.2060    1.7350 O.3   601  NAI601     -0.3135
      8  C3B      -17.8210  -26.3540    3.1770 C.3   601  NAI601      0.2184
      9  O3B      -19.0410  -25.7340    3.5390 O.3   601  NAI601     -0.2174
     10  C2B      -17.8360  -26.9950    1.7870 C.3   601  NAI601      0.2570
     11  O2B      -19.1160  -27.3570    1.3830 O.3   601  NAI601     -0.2130
     12  C1B      -17.3920  -25.8070    0.9640 C.3   601  NAI601      0.3186
     13  N9A      -16.8880  -26.0960   -0.3830 N.pl3 601  NAI601     -0.1439
     14  C8A      -16.2800  -27.2220   -0.8980 C.3   601  NAI601      0.3377
     15  N7A      -15.9980  -26.9630   -2.2060 N.2   601  NAI601     -0.2095
     16  C5A      -16.4100  -25.7100   -2.5260 C.2   601  NAI601      0.2526
     17  C6A      -16.3540  -24.9380   -3.6940 C.2   601  NAI601      0.4393
     18  N6A      -15.8130  -25.3930   -4.8290 N.pl3 601  NAI601      0.2180
     19  N1A      -16.8600  -23.6680   -3.6760 N.2   601  NAI601      0.0021
     20  C2A      -17.4310  -23.1310   -2.5210 C.3   601  NAI601      0.5254
     21  N3A      -17.5040  -23.8820   -1.3600 N.2   601  NAI601     -0.0055
     22  C4A      -16.9850  -25.1540   -1.3740 C.2   601  NAI601      0.3518
     23  O3       -14.1530  -25.8780    6.9730 O.3   601  NAI601     -0.2703
     24  PN       -13.7690  -24.5810    7.8820 P.3   601  NAI601      0.2189
     25  O1N      -14.6810  -23.4830    7.5550 O.2   601  NAI601     -0.5170
     26  O2N      -13.4930  -24.9820    9.2890 O.3   601  NAI601     -0.4371
     27  O5D      -12.2830  -24.2690    7.2760 O.3   601  NAI601     -0.3112
     28  C5D      -12.1000  -24.0480    5.8860 C.3   601  NAI601      0.1813
     29  C4D      -10.6280  -24.1070    5.4500 C.3   601  NAI601      0.1799
     30  O4D       -9.8030  -23.2330    6.2090 O.3   601  NAI601     -0.3327
     31  C3D       -9.9880  -25.4900    5.5870 C.3   601  NAI601      0.2158
     32  O3D       -9.1310  -25.7920    4.4870 O.3   601  NAI601     -0.2175
     33  C2D       -9.0700  -25.3420    6.7730 C.3   601  NAI601      0.2309
     34  O2D       -8.0610  -26.2810    6.6460 O.3   601  NAI601     -0.2158
     35  C1D       -8.6060  -23.9140    6.5680 C.3   601  NAI601      0.2263
     36  N1N       -8.0390  -23.2200    7.7350 N.pl3 601  NAI601     -0.2787
     37  C2N       -7.0060  -22.3660    7.4600 C.3   601  NAI601      0.1244
     38  C3N       -6.4170  -21.6340    8.4720 C.2   601  NAI601      0.0544
     39  C7N       -5.3370  -20.6610    8.1030 C.2   601  NAI601      0.2818
     40  O7N       -4.6690  -20.0370    9.1670 O.2   601  NAI601     -0.2670
     41  N7N       -5.0350  -20.3940    6.8140 N.am  601  NAI601     -0.0839
     42  C4N       -6.8850  -21.7710    9.7870 C.2   601  NAI601      0.0033
     43  C5N       -7.9430  -22.6380   10.0660 C.2   601  NAI601      0.0157
     44  C6N       -8.5170  -23.3640    9.0140 C.2   601  NAI601      0.0633
@<TRIPOS>BOND
     1    18    17    1
     2    17    19    2
     3    17    16    1
     4    19    20    1
     5    16    15    2
     6    16    22    1
     7    20    21    1
     8    15    14    1
     9    22    21    2
    10    22    13    1
    11    14    13    1
    12    13    12    1
    13    12     7    1
    14    12    10    1
    15    11    10    1
    16     7     6    1
    17    10     8    1
    18     6     8    1
    19     6     5    1
    20     8     9    1
    21     5     4    1
    22    32    31    1
    23     4     1    1
    24    29    31    1
    25    29    28    1
    26    29    30    1
    27    31    33    1
    28    28    27    1
    29     3     1    2
    30    30    35    1
    31     1    23    1
    32     1     2    1
    33    35    33    1
    34    35    36    1
    35    34    33    1
    36    41    39   am
    37    23    24    1
    38    27    24    1
    39    37    36    1
    40    37    38    1
    41    25    24    2
    42    36    44    1
    43    24    26    1
    44    39    38    1
    45    39    40    2
    46    38    42    2
    47    44    43    2
    48    42    43    1
