@<TRIPOS>MOLECULE
2a94_AP0_A_1.pdb
 44 48 0 0 0
SMALL
GASTEIGER

@<TRIPOS>ATOM
      1  O7N       24.9250   23.2480    6.4420 O.3   336  AP0336     -0.2183
      2  C7N       25.3850   22.3000    7.3330 C.3   336  AP0336      0.1755
      3  C8N       24.8460   22.3490    8.7500 C.3   336  AP0336      0.0405
      4  C3N       26.3790   21.2690    6.9120 C.2   336  AP0336      0.0220
      5  C4N       26.8660   21.2310    5.5820 C.2   336  AP0336     -0.0034
      6  C5N       27.8620   20.2990    5.2720 C.2   336  AP0336     -0.0049
      7  C6N       28.2380   19.5020    6.3330 C.3   336  AP0336      0.1195
      8  C2N       26.8770   20.3700    7.8700 C.2   336  AP0336      0.0614
      9  N1N       27.8270   19.4260    7.5890 N.pl3 336  AP0336     -0.2790
     10  C1D       28.3130   18.5700    8.5970 C.3   336  AP0336      0.2263
     11  C2D       28.4670   17.1980    8.0230 C.3   336  AP0336      0.2309
     12  O2D       27.2400   16.5250    7.9120 O.3   336  AP0336     -0.2158
     13  C3D       29.4110   16.6800    9.0520 C.3   336  AP0336      0.2158
     14  O3D       28.5990   16.3430   10.2050 O.3   336  AP0336     -0.2175
     15  O4D       29.6140   19.0120    8.8910 O.3   336  AP0336     -0.3327
     16  C4D       30.3150   17.8840    9.3740 C.3   336  AP0336      0.1799
     17  C5D       31.7310   17.9550    8.7850 C.3   336  AP0336      0.1813
     18  O5D       31.7680   17.8480    7.3750 O.3   336  AP0336     -0.3112
     19  PN        33.1660   17.6520    6.6710 P.3   336  AP0336      0.2189
     20  O1N       32.9220   17.5430    5.2050 O.2   336  AP0336     -0.5170
     21  O2N       34.2010   18.5790    7.1790 O.3   336  AP0336     -0.4371
     22  O3        33.4730   16.1540    7.2120 O.3   336  AP0336     -0.2703
     23  PA        34.8890   15.4270    7.4250 P.3   336  AP0336      0.2189
     24  O1A       34.5740   13.9530    7.6560 O.3   336  AP0336     -0.4371
     25  O2A       35.8960   15.7430    6.3630 O.2   336  AP0336     -0.5170
     26  O5B       35.4270   16.0710    8.8000 O.3   336  AP0336     -0.3112
     27  C5B       34.9330   15.7090   10.0670 C.3   336  AP0336      0.1813
     28  C4B       36.1490   15.6190   11.0010 C.3   336  AP0336      0.1821
     29  O4B       35.6990   15.4820   12.3280 O.3   336  AP0336     -0.3135
     30  C1B       36.7310   14.7430   12.9850 C.3   336  AP0336      0.3186
     31  C2B       37.0550   13.6270   12.0030 C.3   336  AP0336      0.2570
     32  O2B       38.2600   12.9450   12.3160 O.3   336  AP0336     -0.2130
     33  C3B       37.0840   14.4320   10.7010 C.3   336  AP0336      0.2184
     34  O3B       38.3880   14.8670   10.3750 O.3   336  AP0336     -0.2174
     35  N9A       36.3000   14.3270   14.3070 N.pl3 336  AP0336     -0.1439
     36  C8A       35.5690   13.2220   14.6970 C.3   336  AP0336      0.3377
     37  N7A       35.3970   13.2860   16.0390 N.2   336  AP0336     -0.2095
     38  C5A       36.0130   14.4100   16.5050 C.2   336  AP0336      0.2526
     39  C6A       36.1700   14.9690   17.7700 C.2   336  AP0336      0.4393
     40  N6A       35.7040   14.3690   18.8740 N.pl3 336  AP0336      0.2180
     41  C4A       36.5860   15.0500   15.4210 C.2   336  AP0336      0.3518
     42  N3A       37.2800   16.2050   15.5560 N.2   336  AP0336     -0.0055
     43  C2A       37.4080   16.7620   16.7990 C.3   336  AP0336      0.5254
     44  N1A       36.8740   16.1490   17.9070 N.2   336  AP0336      0.0021
@<TRIPOS>BOND
     1    20    19    2
     2     6     5    2
     3     6     7    1
     4     5     4    1
     5     7     9    1
     6    25    23    2
     7     1     2    1
     8    19    21    1
     9    19    22    1
    10    19    18    1
    11     4     2    1
    12     4     8    2
    13    22    23    1
    14     2     3    1
    15    18    17    1
    16    23    24    1
    17    23    26    1
    18     9     8    1
    19     9    10    1
    20    12    11    1
    21    11    10    1
    22    11    13    1
    23    10    15    1
    24    17    16    1
    25    26    27    1
    26    15    16    1
    27    13    16    1
    28    13    14    1
    29    27    28    1
    30    34    33    1
    31    33    28    1
    32    33    31    1
    33    28    29    1
    34    31    32    1
    35    31    30    1
    36    29    30    1
    37    30    35    1
    38    35    36    1
    39    35    41    1
    40    36    37    1
    41    41    42    2
    42    41    38    1
    43    42    43    1
    44    37    38    2
    45    38    39    1
    46    43    44    1
    47    39    44    2
    48    39    40    1
