@<TRIPOS>MOLECULE
2a98_I3P_A_1.pdb
 24 24 0 0 0
SMALL
GASTEIGER

@<TRIPOS>ATOM
      1  C1         2.7040   33.8120   11.5360 C.3     1  I3P1        0.1918
      2  C2         2.2920   33.8790   10.0670 C.3     1  I3P1        0.2147
      3  C3         3.4650   34.0590    9.1000 C.3     1  I3P1        0.2146
      4  C4         4.4580   32.8970    9.2710 C.3     1  I3P1        0.1892
      5  C5         4.9470   32.9120   10.7310 C.3     1  I3P1        0.1891
      6  C6         3.8270   32.8050   11.7780 C.3     1  I3P1        0.2120
      7  O1         1.6070   33.2920   12.2920 O.3     1  I3P1       -0.2673
      8  O2         1.5770   32.6710    9.7390 O.3     1  I3P1       -0.2176
      9  O3         2.9600   34.1150    7.7660 O.3     1  I3P1       -0.2176
     10  O4         5.5350   33.0200    8.3210 O.3     1  I3P1       -0.2674
     11  O5         5.9200   31.9200   10.9970 O.3     1  I3P1       -0.2674
     12  O6         4.3540   33.0180   13.1060 O.3     1  I3P1       -0.2177
     13  P1         0.3950   34.2600   12.8140 P.3     1  I3P1        0.5327
     14  O11       -0.1300   34.7940   11.4650 O.2     1  I3P1       -0.2224
     15  O12        1.0290   35.2580   13.7550 O.3     1  I3P1       -0.1145
     16  O13       -0.5430   33.3550   13.5620 O.3     1  I3P1       -0.1145
     17  P4         5.6110   32.1260    6.9580 P.3     1  I3P1        0.5327
     18  O41        6.5590   32.8840    6.0480 O.2     1  I3P1       -0.2224
     19  O42        4.1740   32.0540    6.4210 O.3     1  I3P1       -0.1145
     20  O43        6.1520   30.7770    7.4250 O.3     1  I3P1       -0.1145
     21  P5         7.2740   32.2960   11.8350 P.3     1  I3P1        0.5327
     22  O51        8.0070   33.1500   10.8170 O.2     1  I3P1       -0.2224
     23  O52        7.8900   30.9280   12.0610 O.3     1  I3P1       -0.1145
     24  O53        6.9470   32.9550   13.1610 O.3     1  I3P1       -0.1145
@<TRIPOS>BOND
     1    18    17    2
     2    19    17    1
     3    17    20    1
     4    17    10    1
     5     9     3    1
     6    10     4    1
     7     3     4    1
     8     3     2    1
     9     4     5    1
    10     8     2    1
    11     2     1    1
    12     5    11    1
    13     5     6    1
    14    22    21    2
    15    11    21    1
    16    14    13    2
    17     1     6    1
    18     1     7    1
    19     6    12    1
    20    21    23    1
    21    21    24    1
    22     7    13    1
    23    13    16    1
    24    13    15    1
