@<TRIPOS>MOLECULE
2a9g_ARG_A_1.pdb
 12 11 0 0 0
SMALL
GASTEIGER

@<TRIPOS>ATOM
      1  N         28.4260   51.7280    1.4950 N.3   1500  ARG1500    -0.1208
      2  CA        28.7260   50.2960    1.5490 C.3   1500  ARG1500     0.1944
      3  C         29.0130   49.7460    0.1590 C.2   1500  ARG1500     0.3819
      4  O         29.6360   48.6930    0.0270 O.co2 1500  ARG1500    -0.2441
      5  CB        27.5420   49.4950    2.1670 C.3   1500  ARG1500     0.0343
      6  CG        27.8380   48.0070    2.3640 C.3   1500  ARG1500     0.0490
      7  CD        26.6390   47.1410    2.7920 C.3   1500  ARG1500     0.2205
      8  NE        27.0460   45.7430    3.0230 N.pl3 1500  ARG1500    -0.0865
      9  CZ        26.2370   44.6930    3.1750 C.cat 1500  ARG1500     0.5346
     10  NH1       24.9210   44.8570    3.1290 N.pl3 1500  ARG1500     0.1354
     11  NH2       26.7600   43.4920    3.3820 N.pl3 1500  ARG1500     0.1354
     12  OXT       28.6870   50.4090   -0.8650 O.co2 1500  ARG1500    -0.2441
@<TRIPOS>BOND
     1    12     3   ar
     2     4     3   ar
     3     3     2    1
     4     1     2    1
     5     2     5    1
     6     5     6    1
     7     6     7    1
     8     7     8    1
     9     8     9    2
    10    10     9    1
    11     9    11    1
