@<TRIPOS>MOLECULE
2a9j_3PG_A_1.pdb
 11 10 0 0 0
SMALL
GASTEIGER

@<TRIPOS>ATOM
      1  C1        40.2330   30.2080   69.4860 C.2   408  3PG408      0.3972
      2  O1        39.0090   30.5220   68.9790 O.co2 408  3PG408     -0.2427
      3  O2        40.3840   28.9420   69.8310 O.co2 408  3PG408     -0.2427
      4  C2        41.2620   31.2470   69.6000 C.3   408  3PG408      0.2838
      5  O3        40.8820   32.1210   70.6800 O.3   408  3PG408     -0.2081
      6  C3        41.3940   32.0090   68.2930 C.3   408  3PG408      0.1983
      7  O1P       41.8190   31.1820   67.2570 O.3   408  3PG408     -0.2669
      8  P         42.4500   31.8550   65.9070 P.3   408  3PG408      0.5327
      9  O2P       41.2720   32.8000   65.1720 O.3   408  3PG408     -0.1145
     10  O3P       43.7650   32.8070   66.3030 O.3   408  3PG408     -0.1145
     11  O4P       42.8860   30.6600   64.8130 O.2   408  3PG408     -0.2224
@<TRIPOS>BOND
     1    11     8    2
     2     9     8    1
     3     8    10    1
     4     8     7    1
     5     7     6    1
     6     6     4    1
     7     2     1   ar
     8     1     4    1
     9     1     3   ar
    10     4     5    1
