@<TRIPOS>MOLECULE
2a9k_NAD_B_1.pdb
 44 48 0 0 0
SMALL
GASTEIGER

@<TRIPOS>ATOM
      1  PA         0.1680   19.2370   27.4170 P.3   400  NAD400      0.2189
      2  O1A        1.4550   19.9700   27.5180 O.3   400  NAD400     -0.4371
      3  O2A        0.0000   18.5950   26.1050 O.2   400  NAD400     -0.5170
      4  O5B        0.1120   18.1210   28.5670 O.3   400  NAD400     -0.3112
      5  C5B       -0.9660   17.2170   28.6900 C.3   400  NAD400      0.1813
      6  C4B       -0.7020   16.3210   29.9030 C.3   400  NAD400      0.1821
      7  O4B        0.5290   15.6390   29.7390 O.3   400  NAD400     -0.3135
      8  C3B       -0.5620   17.1020   31.2030 C.3   400  NAD400      0.2184
      9  O3B       -1.0410   16.2810   32.2430 O.3   400  NAD400     -0.2174
     10  C2B        0.9360   17.3040   31.3200 C.3   400  NAD400      0.2570
     11  O2B        1.3870   17.5250   32.6390 O.3   400  NAD400     -0.2130
     12  C1B        1.4740   16.0160   30.7230 C.3   400  NAD400      0.3186
     13  N9A        2.8100   16.1560   30.0980 N.pl3 400  NAD400     -0.1439
     14  C8A        3.4320   17.2980   29.6650 C.3   400  NAD400      0.3377
     15  N7A        4.6400   16.9640   29.1600 N.2   400  NAD400     -0.2095
     16  C5A        4.7920   15.6250   29.2630 C.2   400  NAD400      0.2526
     17  C6A        5.8210   14.7620   28.9000 C.2   400  NAD400      0.4393
     18  N6A        6.9340   15.2300   28.3290 N.pl3 400  NAD400      0.2180
     19  N1A        5.6740   13.4020   29.1320 N.2   400  NAD400      0.0021
     20  C2A        4.5200   12.9040   29.7100 C.3   400  NAD400      0.5254
     21  N3A        3.5030   13.7680   30.0720 N.2   400  NAD400     -0.0055
     22  C4A        3.6430   15.1040   29.8460 C.2   400  NAD400      0.3518
     23  O3        -1.1140   20.1430   27.7090 O.3   400  NAD400     -0.2703
     24  PN        -1.3520   21.0170   29.0400 P.3   400  NAD400      0.2189
     25  O1N       -0.3310   22.0850   29.1280 O.2   400  NAD400     -0.5170
     26  O2N       -1.5750   20.1420   30.2100 O.3   400  NAD400     -0.4371
     27  O5D       -2.7360   21.6720   28.6100 O.3   400  NAD400     -0.3112
     28  C5D       -2.8000   22.3870   27.3980 C.3   400  NAD400      0.1813
     29  C4D       -4.0370   23.2680   27.4350 C.3   400  NAD400      0.1799
     30  O4D       -3.9520   24.1590   28.5290 O.3   400  NAD400     -0.3327
     31  C3D       -4.1320   24.1200   26.1900 C.3   400  NAD400      0.2158
     32  O3D       -5.5030   24.2840   25.9330 O.3   400  NAD400     -0.2175
     33  C2D       -3.5010   25.4380   26.5940 C.3   400  NAD400      0.2309
     34  O2D       -4.1440   26.5100   25.9500 O.3   400  NAD400     -0.2158
     35  C1D       -3.6880   25.4850   28.1100 C.3   400  NAD400      0.2263
     36  N1N       -2.5410   26.0470   28.8720 N.pl3 400  NAD400     -0.2787
     37  C2N       -1.8650   25.2830   29.7970 C.3   400  NAD400      0.1244
     38  C3N       -0.7970   25.8150   30.5320 C.2   400  NAD400      0.0544
     39  C7N       -0.1120   24.9950   31.6010 C.2   400  NAD400      0.2818
     40  O7N        0.5950   25.6230   32.6370 O.2   400  NAD400     -0.2670
     41  N7N       -0.1780   23.6670   31.5570 N.am  400  NAD400     -0.0839
     42  C4N       -0.4270   27.1430   30.3070 C.2   400  NAD400      0.0033
     43  C5N       -1.1140   27.9190   29.3740 C.2   400  NAD400      0.0157
     44  C6N       -2.1730   27.3560   28.6650 C.2   400  NAD400      0.0633
@<TRIPOS>BOND
     1    32    31    1
     2    34    33    1
     3     3     1    2
     4    31    33    1
     5    31    29    1
     6    33    35    1
     7    28    29    1
     8    28    27    1
     9     1     2    1
    10     1    23    1
    11     1     4    1
    12    29    30    1
    13    23    24    1
    14    35    30    1
    15    35    36    1
    16    18    17    1
    17     4     5    1
    18    27    24    1
    19    44    36    1
    20    44    43    2
    21     5     6    1
    22    36    37    1
    23    17    19    2
    24    17    16    1
    25    24    25    2
    26    24    26    1
    27    19    20    1
    28    15    16    2
    29    15    14    1
    30    16    22    1
    31    43    42    1
    32    14    13    1
    33    20    21    1
    34     7     6    1
    35     7    12    1
    36    37    38    1
    37    22    21    2
    38    22    13    1
    39     6     8    1
    40    13    12    1
    41    42    38    2
    42    38    39    1
    43    12    10    1
    44     8    10    1
    45     8     9    1
    46    10    11    1
    47    41    39   am
    48    39    40    2
