@<TRIPOS>MOLECULE
2a9k_GDP_A_1.pdb
 28 30 0 0 0
SMALL
GASTEIGER

@<TRIPOS>ATOM
      1  PB        16.3770    6.9250   14.6100 P.3   500  GDP500      0.5373
      2  O1B       15.9700    8.2370   15.2130 O.3   500  GDP500     -0.1143
      3  O2B       15.1870    6.1130   14.2110 O.3   500  GDP500     -0.1143
      4  O3B       17.2510    7.2030   13.4030 O.2   500  GDP500     -0.2221
      5  O3A       17.1400    6.0700   15.7570 O.3   500  GDP500     -0.2261
      6  PA        18.7380    6.0020   15.8880 P.3   500  GDP500      0.2231
      7  O1A       19.3980    5.0940   14.9050 O.2   500  GDP500     -0.5169
      8  O2A       19.3340    7.3830   15.9490 O.3   500  GDP500     -0.4370
      9  O5'       18.8430    5.3010   17.3300 O.3   500  GDP500     -0.3111
     10  C5'       18.1960    5.8360   18.4820 C.3   500  GDP500      0.1813
     11  C4'       18.9740    5.3910   19.7230 C.3   500  GDP500      0.1799
     12  O4'       18.8850    3.9690   19.8950 O.3   500  GDP500     -0.3326
     13  C3'       20.4620    5.6850   19.6030 C.3   500  GDP500      0.2158
     14  O3'       20.9640    5.9260   20.9290 O.3   500  GDP500     -0.2175
     15  C2'       21.0580    4.4000   19.0690 C.3   500  GDP500      0.2310
     16  O2'       22.4280    4.2380   19.4390 O.3   500  GDP500     -0.2158
     17  C1'       20.1830    3.3580   19.7420 C.3   500  GDP500      0.2293
     18  N9        19.9830    2.1100   18.9710 N.pl3 500  GDP500     -0.2354
     19  C8        19.6320    1.9960   17.6760 C.3   500  GDP500      0.2246
     20  N7        19.5040    0.6910   17.3320 N.2   500  GDP500     -0.2322
     21  C5        19.7630   -0.0430   18.4400 C.2   500  GDP500      0.2182
     22  C6        19.7960   -1.4770   18.7790 C.1   500  GDP500      0.2372
     23  O6        19.5370   -2.3100   17.8880 O.2   500  GDP500     -0.2069
     24  N1        20.1120   -1.8330   20.0410 N.2   500  GDP500     -0.2485
     25  C2        20.3870   -0.9190   20.9930 C.1   500  GDP500      0.2531
     26  N2        20.7020   -1.3460   22.2430 N.pl3 500  GDP500     -0.0226
     27  N3        20.3690    0.4170   20.7520 N.2   500  GDP500     -0.3074
     28  C4        20.0670    0.8960   19.5150 C.2   500  GDP500      0.2300
@<TRIPOS>BOND
     1     4     1    2
     2     3     1    1
     3     1     2    1
     4     1     5    1
     5     7     6    2
     6     5     6    1
     7     6     8    1
     8     6     9    1
     9     9    10    1
    10    20    19    1
    11    20    21    2
    12    19    18    1
    13    23    22    2
    14    21    22    1
    15    21    28    1
    16    10    11    1
    17    22    24    2
    18    18    28    1
    19    18    17    1
    20    15    16    1
    21    15    13    1
    22    15    17    1
    23    28    27    2
    24    13    11    1
    25    13    14    1
    26    11    12    1
    27    17    12    1
    28    24    25    2
    29    27    25    2
    30    25    26    1
