@<TRIPOS>MOLECULE
2a9n_ORE_H_1.pdb
 30 33 0 0 0
SMALL
GASTEIGER

@<TRIPOS>ATOM
      1  O7        21.0630   29.9480  -15.7890 O.co2 149  ORE149     -0.2406
      2  C21       22.0300   30.6870  -15.4730 C.2   149  ORE149      0.3878
      3  O6        23.1400   30.6510  -16.0600 O.co2 149  ORE149     -0.2406
      4  C17       21.9460   31.6440  -14.3160 C.ar  149  ORE149      0.0800
      5  C18       21.0090   31.4580  -13.2950 C.ar  149  ORE149      0.0132
      6  C19       20.9700   32.3360  -12.2160 C.ar  149  ORE149      0.0800
      7  C20       19.9490   32.1450  -11.1320 C.2   149  ORE149      0.3878
      8  O5        19.1250   33.0810  -10.9430 O.co2 149  ORE149     -0.2406
      9  O4        19.9400   31.0690  -10.4800 O.co2 149  ORE149     -0.2406
     10  C16       22.8640   32.7060  -14.2560 C.ar  149  ORE149      0.0066
     11  C15       22.8540   33.6020  -13.1980 C.ar  149  ORE149      0.0004
     12  C14       21.9360   33.4630  -12.1790 C.ar  149  ORE149      0.0063
     13  C10       21.9640   34.4230  -11.0320 C.2   149  ORE149      0.0026
     14  C9        22.5460   34.0350   -9.8890 C.ar  149  ORE149      0.0368
     15  C8        23.1570   32.6910   -9.7330 C.ar  149  ORE149      0.0360
     16  C7        23.7400   32.3250   -8.5830 C.ar  149  ORE149      0.1790
     17  F2        24.2910   31.1480   -8.4620 F     149  ORE149     -0.2008
     18  C6        23.7820   33.2080   -7.3880 C.ar  149  ORE149      0.2259
     19  O3        25.0480   33.2150   -6.8170 O.3   149  ORE149     -0.2841
     20  C4        22.5840   34.9430   -8.7610 C.ar  149  ORE149      0.1485
     21  C5        23.1650   34.5750   -7.6150 C.ar  149  ORE149      0.0818
     22  C11       21.3600   35.7810  -11.1510 C.2   149  ORE149      0.0194
     23  C12       20.7640   36.1910  -12.3290 C.3   149  ORE149      0.0892
     24  C13       20.2110   37.4540  -12.4130 C.2   149  ORE149      0.1608
     25  F1        19.6320   37.8410  -13.5570 F     149  ORE149     -0.2052
     26  C3        21.4130   36.6930   -9.9900 C.2   149  ORE149      0.1449
     27  O2        22.0030   36.2630   -8.8480 O.3   149  ORE149     -0.4536
     28  C2        20.8610   37.9640  -10.0650 C.2   149  ORE149      0.0812
     29  C1        20.2560   38.3780  -11.2480 C.2   149  ORE149      0.2221
     30  O1        19.7310   39.5950  -11.3610 O.2   149  ORE149     -0.2844
@<TRIPOS>BOND
     1     3     2   ar
     2     1     2   ar
     3     2     4    1
     4     4    10   ar
     5     4     5   ar
     6    10    11   ar
     7    25    24    1
     8     5     6   ar
     9    11    12   ar
    10    24    23    1
    11    24    29    2
    12    23    22    1
    13     6    12   ar
    14     6     7    1
    15    12    13    1
    16    30    29    1
    17    29    28    1
    18    22    13    2
    19    22    26    1
    20     7     8   ar
    21     7     9   ar
    22    13    14    1
    23    28    26    2
    24    26    27    1
    25    14    15   ar
    26    14    20   ar
    27    15    16   ar
    28    27    20    1
    29    20    21   ar
    30    16    17    1
    31    16    18   ar
    32    21    18   ar
    33    18    19    1
