@<TRIPOS>MOLECULE
2a9w_GA9_A_1.pdb
 31 35 0 0 0
SMALL
GASTEIGER

@<TRIPOS>ATOM
      1  C1        32.2860   50.8110  -17.1080 C.2   1320  GA91320     0.3419
      2  C2        32.0660   49.6170  -16.3190 C.ar  1320  GA91320     0.0756
      3  C3        31.5260   49.7480  -14.9710 C.ar  1320  GA91320     0.0073
      4  C4        31.1280   48.6270  -14.2480 C.ar  1320  GA91320     0.0116
      5  C5        31.2290   47.3400  -14.7930 C.ar  1320  GA91320     0.0576
      6  C6        31.7590   47.1700  -16.1340 C.ar  1320  GA91320     0.0106
      7  C7        31.8770   45.8530  -16.7210 C.ar  1320  GA91320     0.0008
      8  C8        32.4030   45.6960  -17.9950 C.ar  1320  GA91320    -0.0002
      9  C9        32.8270   46.7990  -18.7250 C.ar  1320  GA91320    -0.0003
     10  C10       32.7310   48.1670  -18.1740 C.ar  1320  GA91320     0.0218
     11  C11       32.1820   48.3250  -16.8830 C.ar  1320  GA91320     0.0069
     12  C12       33.2430   49.3930  -18.9500 C.3   1320  GA91320     0.1923
     13  C13       34.6900   49.3920  -18.8420 C.ar  1320  GA91320     0.0222
     14  C14       35.3910   48.2800  -18.2840 C.ar  1320  GA91320     0.0096
     15  C15       36.7930   48.2770  -18.1140 C.ar  1320  GA91320     0.0732
     16  C16       37.5530   49.4040  -18.5030 C.ar  1320  GA91320     0.2018
     17  C17       36.8760   50.5250  -19.0610 C.ar  1320  GA91320     0.0424
     18  C18       35.4760   50.5310  -19.2320 C.ar  1320  GA91320     0.0030
     19  C19       32.7750   49.3630  -20.3150 C.ar  1320  GA91320     0.0222
     20  C20       33.6490   49.1290  -21.4400 C.ar  1320  GA91320     0.0096
     21  C21       33.1740   49.1210  -22.7780 C.ar  1320  GA91320     0.0732
     22  C22       31.7990   49.3440  -23.0330 C.ar  1320  GA91320     0.2018
     23  C23       30.9280   49.5720  -21.9270 C.ar  1320  GA91320     0.0424
     24  C24       31.3980   49.5830  -20.5960 C.ar  1320  GA91320     0.0030
     25  O1        32.8770   50.7030  -18.3380 O.3   1320  GA91320    -0.4399
     26  O2        31.9390   51.9140  -16.6840 O.2   1320  GA91320    -0.2449
     27  O4        31.2920   49.3450  -24.3680 O.3   1320  GA91320    -0.2860
     28  O3        38.9670   49.4120  -18.3460 O.3   1320  GA91320    -0.2860
     29 BR1        37.6060   46.7920  -17.3790 Br    1320  GA91320    -0.0457
     30 BR2        34.3700   48.8290  -24.1680 Br    1320  GA91320    -0.0457
     31 CL3        30.7980   45.9680  -13.8500 Cl    1320  GA91320    -0.0822
@<TRIPOS>BOND
     1    27    22    1
     2    30    21    1
     3    22    21   ar
     4    22    23   ar
     5    21    20   ar
     6    23    24   ar
     7    20    19   ar
     8    24    19   ar
     9    19    12    1
    10    18    17   ar
    11    18    13   ar
    12    17    16   ar
    13    12    13    1
    14    12    25    1
    15    12    10    1
    16    13    14   ar
    17     9    10   ar
    18     9     8   ar
    19    16    28    1
    20    16    15   ar
    21    25     1    1
    22    14    15   ar
    23    10    11   ar
    24    15    29    1
    25     8     7   ar
    26     1    26    2
    27     1     2    1
    28    11     2   ar
    29    11     6   ar
    30     7     6   ar
    31     2     3   ar
    32     6     5   ar
    33     3     4   ar
    34     5     4   ar
    35     5    31    1
