@<TRIPOS>MOLECULE
2a9w_UMP_A_1.pdb
 20 21 0 0 0
SMALL
GASTEIGER

@<TRIPOS>ATOM
      1  N1        25.9000   45.4500  -12.8820 N.am  1277  UMP1277    -0.1790
      2  C2        26.4060   44.1430  -12.8970 C.1   1277  UMP1277     0.2844
      3  N3        27.5300   43.9160  -12.1080 N.2   1277  UMP1277    -0.2452
      4  C4        28.1550   44.8890  -11.3320 C.1   1277  UMP1277     0.2182
      5  C5        27.5550   46.2190  -11.3930 C.2   1277  UMP1277     0.1242
      6  C6        26.4240   46.4580  -12.1840 C.2   1277  UMP1277     0.0928
      7  O2        25.8980   43.2460  -13.5690 O.2   1277  UMP1277    -0.1918
      8  O4        29.1400   44.6090  -10.6490 O.2   1277  UMP1277    -0.2085
      9  C1'       24.6690   45.6960  -13.6690 C.3   1277  UMP1277     0.2090
     10  C2'       23.4510   44.9810  -13.0860 C.3   1277  UMP1277     0.0874
     11  C3'       22.3530   45.5850  -13.9380 C.3   1277  UMP1277     0.1857
     12  C4'       22.6000   47.0960  -13.9370 C.3   1277  UMP1277     0.1774
     13  O3'       22.6310   45.1260  -15.2580 O.3   1277  UMP1277    -0.2203
     14  O4'       24.1070   47.0740  -13.9740 O.3   1277  UMP1277    -0.3339
     15  C5'       22.1180   47.7220  -12.6270 C.3   1277  UMP1277     0.1858
     16  O5'       20.6610   47.6520  -12.5560 O.3   1277  UMP1277    -0.2675
     17  P         19.8910   47.6290  -11.1430 P.3   1277  UMP1277     0.5327
     18  OP1       20.1190   46.3170  -10.5040 O.3   1277  UMP1277    -0.1145
     19  OP2       20.3920   48.7070  -10.2570 O.3   1277  UMP1277    -0.1145
     20  OP3       18.4420   47.8170  -11.3770 O.2   1277  UMP1277    -0.2224
@<TRIPOS>BOND
     1    13    11    1
     2    14    12    1
     3    14     9    1
     4    11    12    1
     5    11    10    1
     6    12    15    1
     7     9    10    1
     8     9     1    1
     9     7     2    2
    10     2     1   am
    11     2     3    2
    12     1     6    1
    13    15    16    1
    14    16    17    1
    15     6     5    2
    16     3     4    2
    17     5     4    1
    18    20    17    2
    19     4     8    2
    20    17    18    1
    21    17    19    1
