@<TRIPOS>MOLECULE
2a9y_26A_A_1.pdb
 21 23 0 0 0
SMALL
GASTEIGER

@<TRIPOS>ATOM
      1  C10       -5.7600  -40.9760 -107.9130 C.3   1001  26A1001     0.2537
      2  N6        -7.0200  -40.7720 -107.2300 N.pl3 1001  26A1001    -0.1816
      3  C9        -7.8580  -39.5620 -107.5350 C.3   1001  26A1001     0.2537
      4  C6        -7.5950  -41.7800 -106.5020 C.2   1001  26A1001     0.3485
      5  C5        -8.8880  -41.6930 -105.8080 C.2   1001  26A1001     0.2442
      6  C4        -9.3400  -42.8980 -105.1970 C.2   1001  26A1001     0.3515
      7  N3        -8.6770  -44.0910 -105.2650 N.2   1001  26A1001    -0.0055
      8  C2        -7.5040  -44.0700 -105.9150 C.3   1001  26A1001     0.5252
      9  N1        -6.9330  -42.9770 -106.4760 N.2   1001  26A1001    -0.0056
     10  N7        -9.7880  -40.6950 -105.5160 N.2   1001  26A1001    -0.2098
     11  C8       -10.8150  -41.2600 -104.7940 C.3   1001  26A1001     0.3377
     12  N9       -10.4790  -42.6030 -104.5350 N.pl3 1001  26A1001    -0.1439
     13  C1'      -11.2870  -43.5890 -103.7840 C.3   1001  26A1001     0.3186
     14  O4'      -12.4610  -43.7460 -104.5730 O.3   1001  26A1001    -0.3134
     15  C4'      -13.3880  -44.5290 -103.7300 C.3   1001  26A1001     0.1851
     16  C5'      -14.7980  -44.4660 -104.2340 C.3   1001  26A1001     0.2143
     17  O5'      -14.8670  -45.0100 -105.5790 O.3   1001  26A1001    -0.2176
     18  C2'      -11.8290  -43.1640 -102.4170 C.3   1001  26A1001     0.2570
     19  O2'      -10.8370  -43.3310 -101.4590 O.3   1001  26A1001    -0.2130
     20  C3'      -13.1700  -43.9510 -102.3490 C.3   1001  26A1001     0.2186
     21  O3'      -12.9970  -45.0410 -101.4450 O.3   1001  26A1001    -0.2174
@<TRIPOS>BOND
     1     1     2    1
     2     3     2    1
     3     2     4    1
     4     4     9    2
     5     4     5    1
     6     9     8    1
     7     8     7    1
     8     5    10    2
     9     5     6    1
    10    17    16    1
    11    10    11    1
    12     7     6    2
    13     6    12    1
    14    11    12    1
    15    14    13    1
    16    14    15    1
    17    12    13    1
    18    16    15    1
    19    13    18    1
    20    15    20    1
    21    18    20    1
    22    18    19    1
    23    20    21    1
