@<TRIPOS>MOLECULE
2a9z_26A_A_1.pdb
 21 23 0 0 0
SMALL
GASTEIGER

@<TRIPOS>ATOM
      1  C10       -5.7220  -41.1000 -107.7150 C.3   1001  26A1001     0.2537
      2  N6        -6.9930  -40.8640 -107.0610 N.pl3 1001  26A1001    -0.1816
      3  C9        -7.7940  -39.6390 -107.3400 C.3   1001  26A1001     0.2537
      4  C6        -7.5800  -41.8740 -106.3420 C.2   1001  26A1001     0.3485
      5  C5        -8.8520  -41.7780 -105.6350 C.2   1001  26A1001     0.2442
      6  C4        -9.3310  -42.9690 -105.0120 C.2   1001  26A1001     0.3515
      7  N3        -8.6840  -44.1630 -105.1160 N.2   1001  26A1001    -0.0055
      8  C2        -7.4980  -44.1730 -105.7660 C.3   1001  26A1001     0.5252
      9  N1        -6.9360  -43.0680 -106.3140 N.2   1001  26A1001    -0.0056
     10  N7        -9.7180  -40.7790 -105.3410 N.2   1001  26A1001    -0.2098
     11  C8       -10.7780  -41.3260 -104.6600 C.3   1001  26A1001     0.3377
     12  N9       -10.4700  -42.6490 -104.3830 N.pl3 1001  26A1001    -0.1439
     13  C1'      -11.2930  -43.6000 -103.6340 C.3   1001  26A1001     0.3186
     14  O4'      -12.4410  -43.8340 -104.4550 O.3   1001  26A1001    -0.3134
     15  C4'      -13.3670  -44.5850 -103.6000 C.3   1001  26A1001     0.1851
     16  C5'      -14.7920  -44.4700 -104.1110 C.3   1001  26A1001     0.2143
     17  O5'      -14.9020  -45.0790 -105.4230 O.3   1001  26A1001    -0.2176
     18  C2'      -11.8420  -43.2130 -102.2610 C.3   1001  26A1001     0.2570
     19  O2'      -10.8250  -43.3820 -101.2980 O.3   1001  26A1001    -0.2130
     20  C3'      -13.1630  -44.0390 -102.2060 C.3   1001  26A1001     0.2186
     21  O3'      -12.9300  -45.1460 -101.3210 O.3   1001  26A1001    -0.2174
@<TRIPOS>BOND
     1     1     2    1
     2     3     2    1
     3     2     4    1
     4     4     9    2
     5     4     5    1
     6     9     8    1
     7     8     7    1
     8     5    10    2
     9     5     6    1
    10    17    16    1
    11    10    11    1
    12     7     6    2
    13     6    12    1
    14    11    12    1
    15    14    13    1
    16    14    15    1
    17    12    13    1
    18    16    15    1
    19    13    18    1
    20    15    20    1
    21    18    20    1
    22    18    19    1
    23    20    21    1
