@<TRIPOS>MOLECULE
2a9z_ACP_A_1.pdb
 31 33 0 0 0
SMALL
GASTEIGER

@<TRIPOS>ATOM
      1  PG       -21.3760  -42.5380 -110.7540 P.3   1005  ACP1005     0.1295
      2  O1G      -20.1790  -42.1050 -109.9940 O.3   1005  ACP1005    -0.3567
      3  O2G      -21.3310  -41.9940 -112.2700 O.2   1005  ACP1005    -0.4595
      4  O3G      -22.7400  -41.9610 -110.1340 O.3   1005  ACP1005    -0.3567
      5  PB       -20.2280  -44.9540 -111.9510 P.3   1005  ACP1005     0.3815
      6  O1B      -20.3360  -44.1170 -113.1740 O.2   1005  ACP1005    -0.2547
      7  O2B      -18.8820  -44.9770 -111.3350 O.3   1005  ACP1005    -0.1391
      8  C3B      -21.4840  -44.3470 -110.8160 C.3   1005  ACP1005     0.1768
      9  PA       -21.8860  -46.8300 -113.1950 P.3   1005  ACP1005     0.2209
     10  O1A      -22.7980  -45.6730 -112.8980 O.3   1005  ACP1005    -0.4371
     11  O2A      -21.6620  -47.1700 -114.6390 O.2   1005  ACP1005    -0.5170
     12  O3A      -20.5950  -46.4860 -112.3350 O.3   1005  ACP1005    -0.2483
     13  O5'      -22.4690  -48.1330 -112.4510 O.3   1005  ACP1005    -0.3111
     14  C5'      -21.7410  -49.2700 -111.9780 C.3   1005  ACP1005     0.1813
     15  C4'      -22.6960  -50.3960 -111.5710 C.3   1005  ACP1005     0.1821
     16  O4'      -23.4630  -50.1030 -110.3990 O.3   1005  ACP1005    -0.3135
     17  C3'      -23.6900  -50.6920 -112.6790 C.3   1005  ACP1005     0.2184
     18  O3'      -23.0960  -51.6250 -113.6010 O.3   1005  ACP1005    -0.2174
     19  C2'      -24.8270  -51.3280 -111.8890 C.3   1005  ACP1005     0.2570
     20  O2'      -24.4960  -52.6790 -111.5760 O.3   1005  ACP1005    -0.2130
     21  C1'      -24.8300  -50.4960 -110.6130 C.3   1005  ACP1005     0.3186
     22  N9       -25.6890  -49.2950 -110.7540 N.pl3 1005  ACP1005    -0.1439
     23  C8       -25.2130  -48.0320 -110.8080 C.3   1005  ACP1005     0.3377
     24  N7       -26.2870  -47.2050 -110.8850 N.2   1005  ACP1005    -0.2095
     25  C5       -27.3900  -47.9700 -110.8360 C.2   1005  ACP1005     0.2526
     26  C6       -28.8100  -47.6660 -110.8290 C.2   1005  ACP1005     0.4393
     27  N6       -29.3040  -46.4280 -110.8390 N.pl3 1005  ACP1005     0.2180
     28  N1       -29.6800  -48.7680 -110.8470 N.2   1005  ACP1005     0.0021
     29  C2       -29.1980  -50.0500 -110.5820 C.3   1005  ACP1005     0.5254
     30  N3       -27.8980  -50.2960 -110.5470 N.2   1005  ACP1005    -0.0055
     31  C4       -27.0100  -49.2850 -110.5980 C.2   1005  ACP1005     0.3518
@<TRIPOS>BOND
     1    11     9    2
     2    18    17    1
     3     9    10    1
     4     9    13    1
     5     9    12    1
     6     6     5    2
     7    17    19    1
     8    17    15    1
     9    13    14    1
    10    12     5    1
    11     3     1    2
    12    14    15    1
    13     5     7    1
    14     5     8    1
    15    19    20    1
    16    19    21    1
    17    15    16    1
    18    24    25    2
    19    24    23    1
    20    28    26    2
    21    28    29    1
    22    27    26    1
    23    25    26    1
    24    25    31    1
    25     8     1    1
    26    23    22    1
    27     1     4    1
    28     1     2    1
    29    22    21    1
    30    22    31    1
    31    21    16    1
    32    31    30    2
    33    29    30    1
