@<TRIPOS>MOLECULE
2aa0_MTP_A_1.pdb
 20 22 0 0 0
SMALL
GASTEIGER

@<TRIPOS>ATOM
      1  O5'      -14.9470  -45.1170 -105.8140 O.3   1001  MTP1001    -0.2176
      2  C5'      -14.8650  -44.6590 -104.4620 C.3   1001  MTP1001     0.2143
      3  C4'      -13.4040  -44.6910 -104.0100 C.3   1001  MTP1001     0.1851
      4  O4'      -12.6310  -43.8510 -104.8820 O.3   1001  MTP1001    -0.3134
      5  C1'      -11.4250  -43.6740 -104.1280 C.3   1001  MTP1001     0.3186
      6  N9       -10.4990  -42.7180 -104.7800 N.pl3 1001  MTP1001    -0.1441
      7  C8       -10.6820  -41.4080 -104.9400 C.3   1001  MTP1001     0.3376
      8  N7        -9.6730  -40.8970 -105.6430 N.2   1001  MTP1001    -0.2143
      9  C5        -8.8360  -41.8880 -105.9340 C.2   1001  MTP1001     0.1849
     10  C6        -7.6360  -41.9850 -106.6290 C.2   1001  MTP1001     0.1305
     11  S6        -6.8960  -40.5740 -107.3550 S.3   1001  MTP1001    -0.0926
     12  CS        -5.5210  -41.1570 -108.3230 C.3   1001  MTP1001     0.0757
     13  N1        -7.0400  -43.1830 -106.7350 N.2   1001  MTP1001    -0.2106
     14  C2        -7.5690  -44.2680 -106.1970 C.3   1001  MTP1001     0.3924
     15  N3        -8.7100  -44.2110 -105.5310 N.2   1001  MTP1001    -0.0348
     16  C4        -9.3610  -43.0490 -105.3820 C.2   1001  MTP1001     0.3435
     17  C2'      -11.9640  -43.2380 -102.7650 C.3   1001  MTP1001     0.2570
     18  O2'      -11.0290  -43.5060 -101.7180 O.3   1001  MTP1001    -0.2130
     19  C3'      -13.2500  -44.0560 -102.6260 C.3   1001  MTP1001     0.2186
     20  O3'      -13.0570  -45.0930 -101.6600 O.3   1001  MTP1001    -0.2174
@<TRIPOS>BOND
     1    12    11    1
     2    11    10    1
     3    13    10    2
     4    13    14    1
     5    10     9    1
     6    14    15    1
     7     9     8    2
     8     9    16    1
     9     1     2    1
    10     8     7    1
    11    15    16    2
    12    16     6    1
    13     7     6    1
    14     4     5    1
    15     4     3    1
    16     6     5    1
    17     2     3    1
    18     5    17    1
    19     3    19    1
    20    17    19    1
    21    17    18    1
    22    19    20    1
