@<TRIPOS>MOLECULE
2aa1_HEM_A_1.pdb
 43 50 0 0 0
SMALL
GASTEIGER

@<TRIPOS>ATOM
      1 FE         14.1950   14.5490    7.9960 Fe    200  HEM200      0.0000
      2  CHA       16.5120   16.8680    7.1410 C.2   200  HEM200      0.0000
      3  CHB       11.7120   16.8770    7.5150 C.2   200  HEM200      0.0000
      4  CHC       11.9590   12.4750    9.5120 C.2   200  HEM200      0.0000
      5  CHD       16.7330   12.4790    9.2000 C.2   200  HEM200      0.0000
      6  NA        14.1210   16.5440    7.5670 N.ar  200  HEM200      0.0000
      7  C1A       15.1850   17.3010    7.1180 C.ar  200  HEM200      0.0000
      8  C2A       14.7250   18.5760    6.6020 C.ar  200  HEM200      0.0000
      9  C3A       13.3780   18.5660    6.6830 C.ar  200  HEM200      0.0000
     10  C4A       13.0070   17.2970    7.2770 C.ar  200  HEM200      0.0000
     11  CMA       12.4450   19.7140    6.2980 C.3   200  HEM200      0.0000
     12  CAA       15.5880   19.7680    6.2090 C.3   200  HEM200      0.0000
     13  CBA       16.0320   19.8660    4.7540 C.3   200  HEM200      0.0000
     14  CGA       16.9440   21.0590    4.4920 C.2   200  HEM200      0.0000
     15  O1A       17.8030   20.9630    3.5910 O.co2 200  HEM200      0.0000
     16  O2A       16.8060   22.0950    5.1810 O.co2 200  HEM200      0.0000
     17  NB        12.2370   14.6440    8.3490 N.2   200  HEM200      0.0000
     18  C1B       11.3370   15.6460    8.0210 C.2   200  HEM200      0.0000
     19  C2B        9.9640   15.2640    8.3150 C.2   200  HEM200      0.0000
     20  C3B       10.0410   14.0280    8.8950 C.2   200  HEM200      0.0000
     21  C4B       11.4600   13.6540    8.9190 C.2   200  HEM200      0.0000
     22  CMB        8.6850   16.0300    7.9210 C.3   200  HEM200      0.0000
     23  CAB        8.9860   13.2030    9.2790 C.3   200  HEM200      0.0000
     24  CBB        7.9040   13.5520   10.1780 C.3   200  HEM200      0.0000
     25  NC        14.3540   12.7550    9.1210 N.ar  200  HEM200      0.0000
     26  C1C       13.2930   12.0590    9.6420 C.ar  200  HEM200      0.0000
     27  C2C       13.7560   10.8610   10.3480 C.ar  200  HEM200      0.0000
     28  C3C       15.1210   10.8600   10.2480 C.ar  200  HEM200      0.0000
     29  C4C       15.4600   12.0490    9.4860 C.ar  200  HEM200      0.0000
     30  CMC       12.8590    9.8180   11.0220 C.3   200  HEM200      0.0000
     31  CAC       16.0450    9.9010   10.6790 C.3   200  HEM200      0.0000
     32  CBC       16.0230    9.2080   11.9520 C.3   200  HEM200      0.0000
     33  ND        16.1740   14.6470    8.1540 N.2   200  HEM200      0.0000
     34  C1D       17.0750   13.6760    8.5950 C.2   200  HEM200      0.0000
     35  C2D       18.4460   14.0860    8.3820 C.2   200  HEM200      0.0000
     36  C3D       18.3730   15.3090    7.8320 C.2   200  HEM200      0.0000
     37  C4D       16.9770   15.6620    7.6630 C.2   200  HEM200      0.0000
     38  CMD       19.7200   13.2760    8.6450 C.3   200  HEM200      0.0000
     39  CAD       19.5960   16.1250    7.5060 C.3   200  HEM200      0.0000
     40  CBD       19.8530   17.0590    8.6680 C.3   200  HEM200      0.0000
     41  CGD       21.3240   17.2210    8.9790 C.2   200  HEM200      0.0000
     42  O1D       21.6320   17.6610   10.1000 O.co2 200  HEM200      0.0000
     43  O2D       22.1740   16.9040    8.1210 O.co2 200  HEM200      0.0000
@<TRIPOS>BOND
     1    15    14   ar
     2    14    13    1
     3    14    16   ar
     4    13    12    1
     5    12     8    1
     6    11     9    1
     7     8     9   ar
     8     8     7   ar
     9     9    10   ar
    10     7     2    2
    11     7     6   ar
    12     2    37    1
    13    10     3    2
    14    10     6   ar
    15    39    36    1
    16    39    40    1
    17     3    18    1
    18     6     1    1
    19    37    36    1
    20    37    33    2
    21    36    35    2
    22    22    19    1
    23     1    33    1
    24     1    17    1
    25     1    25    1
    26    18    19    1
    27    18    17    2
    28    43    41   ar
    29    33    34    1
    30    19    20    2
    31    17    21    1
    32    35    34    1
    33    35    38    1
    34    34     5    2
    35    40    41    1
    36    20    21    1
    37    20    23    1
    38    21     4    2
    39    41    42   ar
    40    25    29   ar
    41    25    26   ar
    42     5    29    1
    43    23    24    1
    44    29    28   ar
    45     4    26    1
    46    26    27   ar
    47    28    27   ar
    48    28    31    1
    49    27    30    1
    50    31    32    1
