@<TRIPOS>MOLECULE
2aa2_AS4_A_1.pdb
 26 30 0 0 0
SMALL
GASTEIGER

@<TRIPOS>ATOM
      1  C1        19.8700   73.9850   20.2970 C.3   201  AS4201      0.0054
      2  C5        17.4550   73.7690   20.9300 C.3   201  AS4201      0.0350
      3  C6        18.9890   72.9270   22.5790 C.3   201  AS4201      0.2690
      4  C7        18.6700   70.4240   19.0570 C.3   201  AS4201      0.0180
      5  C8        19.7270   70.1490   17.9400 C.2   201  AS4201     -0.0419
      6  C9        19.4650   69.3550   16.8630 C.2   201  AS4201      0.0289
      7  C10       18.0970   68.6670   16.6740 C.2   201  AS4201      0.1725
      8  C15       19.0190   69.4610   20.2520 C.3   201  AS4201      0.0041
      9  C16       20.7130   75.7070   21.8680 C.3   201  AS4201      0.0076
     10  C17       19.1660   75.5790   21.9050 C.3   201  AS4201      0.0652
     11  C18       18.4750   76.1360   23.2040 C.2   201  AS4201      0.1835
     12  C19       16.9640   76.3730   23.1630 C.3   201  AS4201      0.2458
     13  C20       21.1680   74.6940   20.7900 C.3   201  AS4201      0.0006
     14  C         18.8690   74.0950   21.5270 C.3   201  AS4201      0.0637
     15  C2        20.0500   72.5000   19.8510 C.3   201  AS4201      0.0031
     16  C3        18.6260   71.9600   19.5140 C.3   201  AS4201      0.0308
     17  C4        17.6310   72.2430   20.7480 C.3   201  AS4201      0.1183
     18  O         18.1950   71.8110   22.0140 O.3   201  AS4201     -0.3310
     19  O1        18.3890   73.2210   23.8400 O.3   201  AS4201     -0.1899
     20  O2        17.7730   68.1020   15.6360 O.2   201  AS4201     -0.2914
     21  C11       17.1160   68.6840   17.8750 C.3   201  AS4201      0.0694
     22  C12       17.2540   70.1010   18.4590 C.3   201  AS4201      0.0119
     23  C13       21.1140   70.8000   18.1620 C.3   201  AS4201      0.0221
     24  C14       20.9910   72.2890   18.6040 C.3   201  AS4201      0.0044
     25  O3        19.1350   76.3620   24.1890 O.2   201  AS4201     -0.2933
     26  O4        16.4710   76.4530   24.5030 O.3   201  AS4201     -0.2119
@<TRIPOS>BOND
     1    20     7    2
     2     7     6    1
     3     7    21    1
     4     6     5    2
     5    21    22    1
     6     5    23    1
     7     5     4    1
     8    23    24    1
     9    22     4    1
    10    24    15    1
    11     4    16    1
    12     4     8    1
    13    16    15    1
    14    16    17    1
    15    15     1    1
    16     1    13    1
    17     1    14    1
    18    17     2    1
    19    17    18    1
    20    13     9    1
    21     2    14    1
    22    14    10    1
    23    14     3    1
    24     9    10    1
    25    10    11    1
    26    18     3    1
    27     3    19    1
    28    12    11    1
    29    12    26    1
    30    11    25    2
