@<TRIPOS>MOLECULE
2aa3_AP0_A_1.pdb
 44 48 0 0 0
SMALL
GASTEIGER

@<TRIPOS>ATOM
      1  O7N        4.6900   20.3750    9.3700 O.2   1401  AP01401    -0.2913
      2  C7N        5.1620   20.8750    8.3720 C.2   1401  AP01401     0.1747
      3  C8N        4.6760   20.6550    7.0920 C.3   1401  AP01401     0.0773
      4  C3N        6.3400   21.7490    8.6680 C.2   1401  AP01401     0.0490
      5  C4N        6.8010   21.8470    9.9920 C.2   1401  AP01401     0.0012
      6  C5N        7.8860   22.6420   10.2690 C.2   1401  AP01401    -0.0046
      7  C6N        8.4510   23.3420    9.1710 C.3   1401  AP01401     0.1195
      8  C2N        6.9420   22.4630    7.6280 C.2   1401  AP01401     0.0661
      9  N1N        7.9770   23.2660    7.8940 N.pl3 1401  AP01401    -0.2788
     10  C1D        8.6860   23.9500    6.9190 C.3   1401  AP01401     0.2263
     11  C2D        8.7250   25.2400    6.5610 C.3   1401  AP01401     0.2309
     12  O2D        7.8430   26.1750    6.7450 O.3   1401  AP01401    -0.2158
     13  C3D        9.9190   25.6130    5.7780 C.3   1401  AP01401     0.2158
     14  O3D        9.2270   25.9780    4.5620 O.3   1401  AP01401    -0.2175
     15  O4D        9.8100   23.2790    6.3130 O.3   1401  AP01401    -0.3327
     16  C4D       10.6300   24.2410    5.6260 C.3   1401  AP01401     0.1799
     17  C5D       12.0930   24.1680    6.0350 C.3   1401  AP01401     0.1813
     18  O5D       12.3330   24.3460    7.4280 O.3   1401  AP01401    -0.3112
     19  PN        13.7930   24.5360    8.0180 P.3   1401  AP01401     0.2189
     20  O1N       13.5540   24.8550    9.4440 O.3   1401  AP01401    -0.4371
     21  O2N       14.6070   23.3910    7.5290 O.2   1401  AP01401    -0.5170
     22  O3        14.2580   25.8770    7.1820 O.3   1401  AP01401    -0.2703
     23  PA        15.7330   26.3020    6.7410 P.3   1401  AP01401     0.2189
     24  O1A       16.7450   26.1010    7.7970 O.3   1401  AP01401    -0.4371
     25  O2A       15.5570   27.6740    6.1380 O.2   1401  AP01401    -0.5170
     26  O5B       15.9920   25.3760    5.4710 O.3   1401  AP01401    -0.3112
     27  C5B       15.5080   25.6640    4.1260 C.3   1401  AP01401     0.1813
     28  C4B       16.6850   25.2950    3.2190 C.3   1401  AP01401     0.1821
     29  O4B       16.2760   25.1950    1.8770 O.3   1401  AP01401    -0.3135
     30  C1B       17.2830   25.7610    1.0530 C.3   1401  AP01401     0.3186
     31  C2B       17.7590   26.9620    1.8250 C.3   1401  AP01401     0.2570
     32  O2B       19.0680   27.3090    1.4070 O.3   1401  AP01401    -0.2130
     33  C3B       17.7700   26.3640    3.2390 C.3   1401  AP01401     0.2184
     34  O3B       19.0010   25.7420    3.6240 O.3   1401  AP01401    -0.2174
     35  N9A       16.8000   26.0220   -0.3250 N.pl3 1401  AP01401    -0.1439
     36  C8A       16.2230   27.1230   -0.8830 C.3   1401  AP01401     0.3377
     37  N7A       16.0000   26.8730   -2.2030 N.2   1401  AP01401    -0.2095
     38  C5A       16.4530   25.6310   -2.4760 C.2   1401  AP01401     0.2526
     39  C6A       16.5000   24.8330   -3.6200 C.2   1401  AP01401     0.4393
     40  N6A       16.0210   25.2350   -4.8360 N.pl3 1401  AP01401     0.2180
     41  C4A       16.9780   25.1130   -1.2790 C.2   1401  AP01401     0.3518
     42  N3A       17.5280   23.8560   -1.2360 N.2   1401  AP01401    -0.0055
     43  C2A       17.5310   23.1330   -2.3520 C.3   1401  AP01401     0.5254
     44  N1A       17.0250   23.6250   -3.5140 N.2   1401  AP01401     0.0021
@<TRIPOS>BOND
     1    40    39    1
     2    39    44    2
     3    39    38    1
     4    44    43    1
     5    38    37    2
     6    38    41    1
     7    43    42    1
     8    37    36    1
     9    41    42    2
    10    41    35    1
    11    36    35    1
    12    35    30    1
    13    30    31    1
    14    30    29    1
    15    32    31    1
    16    31    33    1
    17    29    28    1
    18    28    33    1
    19    28    27    1
    20    33    34    1
    21    27    26    1
    22    14    13    1
    23    26    23    1
    24    16    13    1
    25    16    17    1
    26    16    15    1
    27    13    11    1
    28    17    18    1
    29    25    23    2
    30    15    10    1
    31    11    12    1
    32    11    10    1
    33    23    22    1
    34    23    24    1
    35    10     9    1
    36     3     2    1
    37    22    19    1
    38    18    19    1
    39    21    19    2
    40     8     9    1
    41     8     4    2
    42     9     7    1
    43    19    20    1
    44     2     4    1
    45     2     1    2
    46     4     5    1
    47     7     6    1
    48     5     6    2
