@<TRIPOS>MOLECULE
2aa5_STR_A_1.pdb
 23 26 0 0 0
SMALL
GASTEIGER

@<TRIPOS>ATOM
      1  C1        17.7710   50.4110   18.4610 C.3   301  STR301      0.0118
      2  C2        16.7670   50.3710   19.6330 C.3   301  STR301      0.0694
      3  C3        15.7480   49.2340   19.4790 C.2   301  STR301      0.1725
      4  O3        14.6660   49.3270   20.0980 O.2   301  STR301     -0.2914
      5  C4        16.0370   48.0410   18.6530 C.2   301  STR301      0.0289
      6  C5        17.1710   47.9040   17.9790 C.2   301  STR301     -0.0420
      7  C6        17.4450   46.5820   17.1880 C.3   301  STR301      0.0221
      8  C7        18.1080   46.8420   15.8210 C.3   301  STR301      0.0044
      9  C8        19.3080   47.8510   15.8320 C.3   301  STR301      0.0006
     10  C9        18.8150   49.2160   16.4800 C.3   301  STR301      0.0035
     11  C10       18.3020   49.0200   17.9640 C.3   301  STR301      0.0157
     12  C11       19.9610   50.2980   16.4580 C.3   301  STR301      0.0003
     13  C12       20.4870   50.4920   14.9950 C.3   301  STR301      0.0004
     14  C13       21.0190   49.1460   14.3510 C.3   301  STR301      0.0065
     15  C14       19.8150   48.1150   14.3800 C.3   301  STR301      0.0004
     16  C15       20.3480   46.9160   13.5280 C.3   301  STR301      0.0004
     17  C16       21.1410   47.6490   12.3860 C.3   301  STR301      0.0073
     18  C17       21.2710   49.1690   12.8100 C.3   301  STR301      0.0576
     19  C18       22.2900   48.6010   15.1180 C.3   301  STR301      0.0004
     20  C19       19.4360   48.5130   18.9590 C.3   301  STR301      0.0041
     21  C20       22.6560   49.7840   12.4190 C.2   301  STR301      0.1507
     22  O20       23.5110   49.0550   11.9600 O.2   301  STR301     -0.2961
     23  C21       22.9440   51.2610   12.6030 C.3   301  STR301      0.0722
@<TRIPOS>BOND
     1    22    21    2
     2    17    18    1
     3    17    16    1
     4    21    23    1
     5    21    18    1
     6    18    14    1
     7    16    15    1
     8    14    15    1
     9    14    13    1
    10    14    19    1
    11    15     9    1
    12    13    12    1
    13     8     9    1
    14     8     7    1
    15     9    10    1
    16    12    10    1
    17    10    11    1
    18     7     6    1
    19    11     6    1
    20    11     1    1
    21    11    20    1
    22     6     5    2
    23     1     2    1
    24     5     3    1
    25     3     2    1
    26     3     4    2
