@<TRIPOS>MOLECULE
2aa6_STR_A_1.pdb
 23 26 0 0 0
SMALL
GASTEIGER

@<TRIPOS>ATOM
      1  C1        17.5650   50.4360   18.3850 C.3   401  STR401      0.0118
      2  C2        16.5600   50.3360   19.5960 C.3   401  STR401      0.0694
      3  C3        15.5210   49.2270   19.3690 C.2   401  STR401      0.1725
      4  O3        14.4240   49.3330   19.9230 O.2   401  STR401     -0.2914
      5  C4        15.8220   48.0460   18.5310 C.2   401  STR401      0.0289
      6  C5        16.9710   47.9160   17.8890 C.2   401  STR401     -0.0420
      7  C6        17.2490   46.6230   17.0850 C.3   401  STR401      0.0221
      8  C7        17.9090   46.9360   15.7290 C.3   401  STR401      0.0044
      9  C8        19.1520   47.9250   15.8060 C.3   401  STR401      0.0006
     10  C9        18.6580   49.2660   16.4440 C.3   401  STR401      0.0035
     11  C10       18.1160   49.0410   17.8990 C.3   401  STR401      0.0157
     12  C11       19.8190   50.3550   16.4740 C.3   401  STR401      0.0003
     13  C12       20.3530   50.5540   15.0120 C.3   401  STR401      0.0004
     14  C13       20.9100   49.2090   14.4040 C.3   401  STR401      0.0065
     15  C14       19.6960   48.2120   14.3940 C.3   401  STR401      0.0004
     16  C15       20.2260   47.0120   13.5640 C.3   401  STR401      0.0004
     17  C16       21.0600   47.7320   12.4050 C.3   401  STR401      0.0073
     18  C17       21.2040   49.2340   12.8600 C.3   401  STR401      0.0576
     19  C18       22.1590   48.6790   15.2260 C.3   401  STR401      0.0004
     20  C19       19.2400   48.5020   18.9180 C.3   401  STR401      0.0041
     21  C20       22.5740   49.8490   12.5190 C.2   401  STR401      0.1507
     22  O20       23.4690   49.1410   12.1170 O.2   401  STR401     -0.2961
     23  C21       22.7740   51.3250   12.6770 C.3   401  STR401      0.0722
@<TRIPOS>BOND
     1    22    21    2
     2    17    18    1
     3    17    16    1
     4    21    23    1
     5    21    18    1
     6    18    14    1
     7    16    15    1
     8    15    14    1
     9    15     9    1
    10    14    13    1
    11    14    19    1
    12    13    12    1
    13     8     9    1
    14     8     7    1
    15     9    10    1
    16    10    12    1
    17    10    11    1
    18     7     6    1
    19     6    11    1
    20     6     5    2
    21    11     1    1
    22    11    20    1
    23     1     2    1
    24     5     3    1
    25     3     2    1
    26     3     4    2
