@<TRIPOS>MOLECULE
2aa7_1CA_A_1.pdb
 24 27 0 0 0
SMALL
GASTEIGER

@<TRIPOS>ATOM
      1  C1        29.1260   16.9150   18.4560 C.3   201  1CA201      0.0118
      2  C2        29.2710   18.0680   17.4150 C.3   201  1CA201      0.0694
      3  C3        28.1210   18.0960   16.4270 C.2   201  1CA201      0.1725
      4  C4        26.8600   17.3950   16.6930 C.2   201  1CA201      0.0289
      5  C5        26.6800   16.6790   17.8240 C.2   201  1CA201     -0.0420
      6  C6        25.2590   15.9890   18.0100 C.3   201  1CA201      0.0221
      7  C7        25.3720   14.5460   18.6450 C.3   201  1CA201      0.0044
      8  C8        26.3560   14.4020   19.8720 C.3   201  1CA201      0.0006
      9  C9        27.7750   14.9190   19.4220 C.3   201  1CA201      0.0035
     10  C10       27.7100   16.4850   18.9350 C.3   201  1CA201      0.0157
     11  C11       28.7820   14.7320   20.5860 C.3   201  1CA201      0.0003
     12  C12       28.8190   13.2800   21.1150 C.3   201  1CA201      0.0004
     13  C13       27.4390   12.7520   21.6220 C.3   201  1CA201      0.0066
     14  C14       26.4470   12.8850   20.4050 C.3   201  1CA201      0.0004
     15  C15       25.1360   12.2310   20.9500 C.3   201  1CA201      0.0004
     16  C16       25.7030   11.1090   21.9560 C.3   201  1CA201      0.0074
     17  C17       27.2790   11.2200   21.9250 C.3   201  1CA201      0.0603
     18  C18       27.1140   13.6600   22.9300 C.3   201  1CA201      0.0004
     19  C19       27.2690   17.4280   20.0890 C.3   201  1CA201      0.0041
     20  C20       27.9370   10.7440   23.2650 C.2   201  1CA201      0.1834
     21  C21       29.4190   10.3970   23.3230 C.3   201  1CA201      0.2458
     22  O3        28.2770   18.7350   15.3990 O.2   201  1CA201     -0.2914
     23  O20       27.2850   10.6520   24.2840 O.2   201  1CA201     -0.2933
     24  O21       29.7940   10.0040   24.6380 O.3   201  1CA201     -0.2119
@<TRIPOS>BOND
     1    22     3    2
     2     3     4    1
     3     3     2    1
     4     4     5    2
     5     2     1    1
     6     5     6    1
     7     5    10    1
     8     6     7    1
     9     1    10    1
    10     7     8    1
    11    10     9    1
    12    10    19    1
    13     9     8    1
    14     9    11    1
    15     8    14    1
    16    14    15    1
    17    14    13    1
    18    11    12    1
    19    15    16    1
    20    12    13    1
    21    13    17    1
    22    13    18    1
    23    17    16    1
    24    17    20    1
    25    20    21    1
    26    20    23    2
    27    21    24    1
