@<TRIPOS>MOLECULE
2aa9_SKM_A_1.pdb
 12 12 0 0 0
SMALL
GASTEIGER

@<TRIPOS>ATOM
      1  O12       56.6790    8.6380   30.4740 O.3   501  SKM501     -0.2173
      2  C8        56.6260    9.9260   29.8790 C.3   501  SKM501      0.2167
      3  C6        57.9020   10.2560   29.1100 C.3   501  SKM501      0.1896
      4  O7        59.0440   10.1580   29.9750 O.3   501  SKM501     -0.2200
      5  C5        57.7680   11.6890   28.5680 C.3   501  SKM501      0.0684
      6  C4        56.5170   12.0620   27.9730 C.2   501  SKM501      0.0584
      7  C1        56.3950   13.3500   27.1710 C.2   501  SKM501      0.3837
      8  O2        55.4970   13.3990   26.2960 O.co2 501  SKM501     -0.2409
      9  O3        57.1220   14.3070   27.4410 O.co2 501  SKM501     -0.2409
     10  C10       55.3580   11.2710   28.1490 C.2   501  SKM501      0.0111
     11  C9        55.4030    9.9800   28.9340 C.3   501  SKM501      0.2066
     12  O11       55.4060    8.8830   28.0370 O.3   501  SKM501     -0.2155
@<TRIPOS>BOND
     1     8     7   ar
     2     7     9   ar
     3     7     6    1
     4     6    10    2
     5     6     5    1
     6    12    11    1
     7    10    11    1
     8     5     3    1
     9    11     2    1
    10     3     2    1
    11     3     4    1
    12     2     1    1
