@<TRIPOS>MOLECULE
2aac_FCB_A_1.pdb
 11 11 0 0 0
SMALL
GASTEIGER

@<TRIPOS>ATOM
      1  C1         9.2970   38.5070   34.5850 C.3     1  FCB1        0.3023
      2  C2        10.2430   39.5990   35.1110 C.3     1  FCB1        0.2434
      3  C3        11.4160   39.0130   35.9040 C.3     1  FCB1        0.2198
      4  C4        10.9260   38.0260   36.9500 C.3     1  FCB1        0.2118
      5  C5         9.9820   37.0050   36.2850 C.3     1  FCB1        0.1509
      6  C6         9.4100   35.9920   37.2590 C.3     1  FCB1        0.0350
      7  O1         8.1750   39.0980   34.0400 O.3     1  FCB1       -0.1869
      8  O2        10.7500   40.3550   34.0180 O.3     1  FCB1       -0.2148
      9  O3        12.1070   40.0590   36.5430 O.3     1  FCB1       -0.2174
     10  O4        10.2490   38.7180   37.9920 O.3     1  FCB1       -0.2177
     11  O5         8.8740   37.6750   35.6550 O.3     1  FCB1       -0.3264
@<TRIPOS>BOND
     1     8     2    1
     2     7     1    1
     3     1     2    1
     4     1    11    1
     5     2     3    1
     6    11     5    1
     7     3     9    1
     8     3     4    1
     9     5     4    1
    10     5     6    1
    11     4    10    1
