@<TRIPOS>MOLECULE
2aad_2GP_A_1.pdb
 24 26 0 0 0
SMALL
GASTEIGER

@<TRIPOS>ATOM
      1  P         48.1610   32.8660    1.2850 P.3   105  2GP105      0.5327
      2  O1P       48.0100   34.2630    1.9680 O.3   105  2GP105     -0.1145
      3  O2P       49.1990   33.1070    0.2410 O.2   105  2GP105     -0.2224
      4  O3P       48.3040   31.7570    2.2890 O.3   105  2GP105     -0.1145
      5  O5'       45.4800   30.9860   -4.2570 O.3   105  2GP105     -0.2176
      6  C5'       45.2820   32.3840   -3.9360 C.3   105  2GP105      0.2142
      7  C4'       45.7680   32.6250   -2.5700 C.3   105  2GP105      0.1827
      8  O4'       44.6810   32.2390   -1.7270 O.3   105  2GP105     -0.3326
      9  C3'       46.9460   31.8050   -1.9680 C.3   105  2GP105      0.2132
     10  O3'       48.1270   32.5760   -2.0880 O.3   105  2GP105     -0.2176
     11  C2'       46.5450   31.7090   -0.4820 C.3   105  2GP105      0.2054
     12  O2'       46.8370   32.7690    0.4020 O.3   105  2GP105     -0.2657
     13  C1'       45.0200   31.6130   -0.5220 C.3   105  2GP105      0.2266
     14  N9        44.3800   30.3600   -0.4020 N.pl3 105  2GP105     -0.2354
     15  C8        43.2450   30.0220    0.3210 C.3   105  2GP105      0.2246
     16  N7        42.9510   28.7690    0.2010 N.2   105  2GP105     -0.2322
     17  C5        43.8400   28.1910   -0.6430 C.2   105  2GP105      0.2182
     18  C6        44.1870   26.9380   -1.2450 C.1   105  2GP105      0.2372
     19  O6        43.6460   25.8300   -1.1240 O.2   105  2GP105     -0.2069
     20  N1        45.3230   26.7450   -2.1280 N.2   105  2GP105     -0.2485
     21  C2        46.2100   27.8060   -2.4500 C.1   105  2GP105      0.2531
     22  N2        47.1480   27.6610   -3.2130 N.pl3 105  2GP105     -0.0226
     23  N3        45.9120   28.9620   -1.8880 N.2   105  2GP105     -0.3074
     24  C4        44.7770   29.2030   -1.0440 C.2   105  2GP105      0.2300
@<TRIPOS>BOND
     1     5     6    1
     2     6     7    1
     3    22    21    1
     4     7     9    1
     5     7     8    1
     6    21    20    2
     7    21    23    2
     8    20    18    2
     9    10     9    1
    10     9    11    1
    11    23    24    2
    12     8    13    1
    13    18    19    2
    14    18    17    1
    15    24    17    1
    16    24    14    1
    17    17    16    2
    18    13    11    1
    19    13    14    1
    20    11    12    1
    21    14    15    1
    22    16    15    1
    23     3     1    2
    24    12     1    1
    25     1     2    1
    26     1     4    1
