@<TRIPOS>MOLECULE
2aai_GAL_B_1.pdb
 11 11 0 0 0
SMALL
GASTEIGER

@<TRIPOS>ATOM
      1  C1        31.9590   41.1420   12.9070 C.3   264  GAL264      0.1777
      2  C2        31.4460   42.2870   13.7660 C.3   264  GAL264      0.2141
      3  C3        30.7980   41.8350   15.0220 C.3   264  GAL264      0.2173
      4  C4        29.7110   40.8900   14.6920 C.3   264  GAL264      0.2142
      5  C5        30.2020   39.7980   13.7300 C.3   264  GAL264      0.1810
      6  C6        29.0770   38.9440   13.2460 C.3   264  GAL264      0.2141
      7  O2        32.5330   43.1620   14.1150 O.3   264  GAL264     -0.2176
      8  O3        30.2430   42.9780   15.6150 O.3   264  GAL264     -0.2175
      9  O4        28.6480   41.6630   14.1470 O.3   264  GAL264     -0.2176
     10  O5        30.8140   40.3460   12.5710 O.3   264  GAL264     -0.3481
     11  O6        28.1590   39.7750   12.5190 O.3   264  GAL264     -0.2176
@<TRIPOS>BOND
     1    11     6    1
     2    10     1    1
     3    10     5    1
     4     1     2    1
     5     6     5    1
     6     5     4    1
     7     2     7    1
     8     2     3    1
     9     9     4    1
    10     4     3    1
    11     3     8    1
