@<TRIPOS>MOLECULE
2aaq_AUP_A_1.pdb
 27 31 0 0 0
SMALL
GASTEIGER

@<TRIPOS>ATOM
      1  C1       -25.2400   -0.4160   95.5980 C.ar  601  AUP601     -0.0241
      2  C2       -25.9340   -1.1910   96.5700 C.ar  601  AUP601     -0.0241
      3  C3       -25.5400   -1.1310   98.0600 C.3   601  AUP601      0.0261
      4  C4       -24.3670   -0.2010   98.4560 C.3   601  AUP601      0.0050
      5  C5       -24.1550    0.9710   97.4850 C.3   601  AUP601      0.0050
      6  C6       -24.0810    0.4960   96.0200 C.3   601  AUP601      0.0261
      7  C7       -25.6960   -0.5730   94.3280 C.ar  601  AUP601      0.0154
      8  P        -27.0740   -1.7260   94.2450 P.3   601  AUP601     -0.0070
      9  C9       -26.9350   -1.9570   96.0610 C.ar  601  AUP601      0.0154
     10  N14      -27.1400   -3.7030   97.6320 N.ar  601  AUP601     -0.2438
     11  C15      -27.6500   -4.6920   98.4490 C.ar  601  AUP601      0.0988
     12  C16      -29.0330   -4.9380   98.4110 C.ar  601  AUP601      0.0207
     13  C17      -29.8260   -4.1590   97.5440 C.ar  601  AUP601      0.0031
     14  C18      -29.2750   -3.1450   96.7150 C.ar  601  AUP601      0.0192
     15  C19      -27.8750   -2.9050   96.7570 C.ar  601  AUP601      0.0814
     16  C24      -27.2500   -5.8880   92.2710 C.ar  601  AUP601      0.0000
     17  C25      -26.0380   -5.6620   92.9840 C.ar  601  AUP601      0.0000
     18  C26      -25.8200   -4.4220   93.6540 C.ar  601  AUP601      0.0005
     19  C27      -26.8300   -3.4200   93.6010 C.ar  601  AUP601      0.0021
     20  C28      -28.0430   -3.6400   92.8920 C.ar  601  AUP601      0.0005
     21  C29      -28.2530   -4.8760   92.2250 C.ar  601  AUP601      0.0000
     22  N35      -23.9120    0.2350   92.8560 N.ar  601  AUP601     -0.2438
     23  C36      -25.2680    0.0210   93.0420 C.ar  601  AUP601      0.0814
     24  C37      -26.1880    0.3690   92.0090 C.ar  601  AUP601      0.0192
     25  C38      -25.6570    0.9240   90.8290 C.ar  601  AUP601      0.0031
     26  C39      -24.2650    1.1280   90.6730 C.ar  601  AUP601      0.0207
     27  C40      -23.3790    0.7740   91.7120 C.ar  601  AUP601      0.0988
@<TRIPOS>BOND
     1    26    25   ar
     2    26    27   ar
     3    25    24   ar
     4    27    22   ar
     5    24    23   ar
     6    21    16   ar
     7    21    20   ar
     8    16    17   ar
     9    22    23   ar
    10    20    19   ar
    11    17    18   ar
    12    23     7    1
    13    19    18   ar
    14    19     8    1
    15     8     7   ar
    16     8     9   ar
    17     7     1   ar
    18     1     6    1
    19     1     2   ar
    20     6     5    1
    21     9     2   ar
    22     9    15    1
    23     2     3    1
    24    14    15   ar
    25    14    13   ar
    26    15    10   ar
    27     5     4    1
    28    13    12   ar
    29    10    11   ar
    30     3     4    1
    31    12    11   ar
