@<TRIPOS>MOLECULE
2aat_PMP_A_1.pdb
 16 16 0 0 0
SMALL
GASTEIGER

@<TRIPOS>ATOM
      1  N1       129.7240   38.1530   25.7140 N.ar    1  PMP1       -0.2452
      2  C2       130.0340   37.1590   24.8920 C.ar    1  PMP1        0.0978
      3  C2A      129.3050   36.9630   23.6050 C.3     1  PMP1        0.0555
      4  C3       131.0940   36.3250   25.3050 C.ar    1  PMP1        0.2063
      5  O3       131.4220   35.3400   24.5020 O.3     1  PMP1       -0.2856
      6  C4       131.7280   36.5730   26.5280 C.ar    1  PMP1        0.0369
      7  C4A      132.7810   35.6740   26.9230 C.3     1  PMP1        0.1386
      8  N4A      133.4920   34.9410   25.9590 N.3     1  PMP1       -0.1261
      9  C5       131.3540   37.6120   27.3320 C.ar    1  PMP1        0.0275
     10  C6       130.3040   38.4270   26.9020 C.ar    1  PMP1        0.0965
     11  C5A      131.9550   37.9860   28.6460 C.3     1  PMP1        0.1816
     12  O4P      133.3400   37.6800   28.8200 O.3     1  PMP1       -0.2653
     13  P        134.3230   38.5980   29.6360 P.3     1  PMP1        0.5329
     14  O1P      133.5280   39.0120   30.8210 O.3     1  PMP1       -0.1145
     15  O2P      134.8670   39.4690   28.5430 O.2     1  PMP1       -0.2224
     16  O3P      135.6020   37.8160   30.1510 O.3     1  PMP1       -0.1145
@<TRIPOS>BOND
     1     3     2    1
     2     5     4    1
     3     2     4   ar
     4     2     1   ar
     5     4     6   ar
     6     1    10   ar
     7     8     7    1
     8     6     7    1
     9     6     9   ar
    10    10     9   ar
    11     9    11    1
    12    15    13    2
    13    11    12    1
    14    12    13    1
    15    13    16    1
    16    13    14    1
