@<TRIPOS>MOLECULE
2aaw_GTX_A_1.pdb
 26 25 0 0 0
SMALL
GASTEIGER

@<TRIPOS>ATOM
      1  N1        -4.9500   58.6140   39.7230 N.3   220  GTX220     -0.1208
      2  CA1       -5.7710   59.8250   39.4300 C.3   220  GTX220      0.1948
      3  C1        -7.2460   59.5400   39.8680 C.2   220  GTX220      0.3819
      4  O11       -7.6640   58.3660   39.7400 O.co2 220  GTX220     -0.2441
      5  O12       -7.9420   60.4710   40.3300 O.co2 220  GTX220     -0.2441
      6  CB1       -5.6140   60.1000   37.9230 C.3   220  GTX220      0.0402
      7  CG1       -6.4210   61.3670   37.5020 C.3   220  GTX220      0.0889
      8  CD1       -6.2280   61.6350   35.9980 C.2   220  GTX220      0.2418
      9  OE1       -5.5620   60.9830   35.2290 O.2   220  GTX220     -0.2733
     10  N2        -6.9370   62.7790   35.6180 N.am  220  GTX220     -0.1969
     11  CA2       -6.9340   63.2920   34.2710 C.3   220  GTX220      0.1834
     12  C2        -6.5220   64.7480   34.4370 C.2   220  GTX220      0.2626
     13  O2        -7.0030   65.5490   35.2330 O.2   220  GTX220     -0.2714
     14  CB2       -8.3450   63.2540   33.6690 C.3   220  GTX220      0.0886
     15  SG2       -8.9100   61.5650   33.4310 S.3   220  GTX220     -0.1379
     16  C1S       -9.6930   61.6210   31.8190 C.3   220  GTX220      0.0576
     17  C2S       -9.1280   60.4960   30.9130 C.3   220  GTX220      0.0116
     18  C3S       -8.4260   61.1030   29.6770 C.3   220  GTX220      0.0009
     19  C4S       -7.3410   60.1340   29.1830 C.3   220  GTX220      0.0000
     20  C5S       -6.1250   60.8860   28.5870 C.3   220  GTX220      0.0000
     21  C6S       -4.8320   60.1690   29.0130 C.3   220  GTX220      0.0000
     22  N3        -5.4890   65.0680   33.5240 N.am  220  GTX220     -0.1917
     23  CA3       -4.9210   66.4270   33.4810 C.3   220  GTX220      0.2285
     24  C3        -3.4570   66.3630   33.0700 C.2   220  GTX220      0.3865
     25  O31       -2.8580   67.4750   32.9850 O.co2 220  GTX220     -0.2437
     26  O32       -2.8500   65.2950   32.8400 O.co2 220  GTX220     -0.2437
@<TRIPOS>BOND
     1    20    21    1
     2    20    19    1
     3    19    18    1
     4    18    17    1
     5    17    16    1
     6    16    15    1
     7    26    24   ar
     8    25    24   ar
     9    24    23    1
    10    15    14    1
    11    23    22    1
    12    22    12   am
    13    14    11    1
    14    11    12    1
    15    11    10    1
    16    12    13    2
    17     9     8    2
    18    10     8   am
    19     8     7    1
    20     7     6    1
    21     6     2    1
    22     2     1    1
    23     2     3    1
    24     4     3   ar
    25     3     5   ar
