@<TRIPOS>MOLECULE
2aax_PDN_A_1.pdb
 26 29 0 0 0
SMALL
GASTEIGER

@<TRIPOS>ATOM
      1  C1        17.6910   50.5790   18.7120 C.3   502  PDN502      0.0123
      2  C2        16.5110   50.6410   19.6890 C.3   502  PDN502      0.0695
      3  C3        15.5290   49.5280   19.5990 C.2   502  PDN502      0.1725
      4  C4        15.8320   48.3240   18.7990 C.2   502  PDN502      0.0290
      5  C5        16.9680   48.1980   18.0650 C.2   502  PDN502     -0.0416
      6  C6        17.2120   46.8790   17.3370 C.3   502  PDN502      0.0221
      7  C7        17.7540   47.1770   15.9070 C.3   502  PDN502      0.0048
      8  C8        18.9650   48.1050   15.9650 C.3   502  PDN502      0.0076
      9  C9        18.7440   49.4000   16.7460 C.3   502  PDN502      0.0610
     10  C10       18.0760   49.2420   18.1040 C.3   502  PDN502      0.0222
     11  C11       19.8010   50.4520   16.5330 C.2   502  PDN502      0.1506
     12  C12       20.4760   50.6210   15.1910 C.3   502  PDN502      0.0673
     13  C13       20.7740   49.3320   14.5060 C.3   502  PDN502      0.0393
     14  C14       19.6380   48.3660   14.5990 C.3   502  PDN502      0.0036
     15  C15       19.9880   47.2230   13.6800 C.3   502  PDN502      0.0031
     16  C16       20.9800   47.8040   12.6320 C.3   502  PDN502      0.0377
     17  C17       21.2730   49.2560   13.0860 C.3   502  PDN502      0.1799
     18  C18       21.9330   48.9210   15.4290 C.3   502  PDN502      0.0033
     19  C19       19.1610   48.7450   19.0500 C.3   502  PDN502      0.0045
     20  C20       22.6180   49.8530   12.8140 C.2   502  PDN502      0.2109
     21  C21       22.6730   51.3430   12.5000 C.3   502  PDN502      0.2484
     22  O1        14.4630   49.7000   20.1850 O.2   502  PDN502     -0.2914
     23  O2        20.0590   51.2740   17.3410 O.2   502  PDN502     -0.2961
     24  O3        20.3150   50.0170   12.3250 O.3   502  PDN502     -0.2181
     25  O4        23.6320   49.2120   12.9120 O.2   502  PDN502     -0.2907
     26  O5        23.9960   51.8010   12.4750 O.3   502  PDN502     -0.2118
@<TRIPOS>BOND
     1    24    17    1
     2    26    21    1
     3    21    20    1
     4    16    17    1
     5    16    15    1
     6    20    25    2
     7    20    17    1
     8    17    13    1
     9    15    14    1
    10    13    14    1
    11    13    12    1
    12    13    18    1
    13    14     8    1
    14    12    11    1
    15     7     8    1
    16     7     6    1
    17     8     9    1
    18    11     9    1
    19    11    23    2
    20     9    10    1
    21     6     5    1
    22     5    10    1
    23     5     4    2
    24    10     1    1
    25    10    19    1
    26     1     2    1
    27     4     3    1
    28     3     2    1
    29     3    22    2
