@<TRIPOS>MOLECULE
2aay_SKM_A_1.pdb
 12 12 0 0 0
SMALL
GASTEIGER

@<TRIPOS>ATOM
      1  O12       56.1270    8.6470   30.3120 O.3   701  SKM701     -0.2173
      2  C8        55.9970    9.9670   29.7580 C.3   701  SKM701      0.2167
      3  C6        57.2660   10.4120   29.0430 C.3   701  SKM701      0.1896
      4  O7        58.3510   10.3590   29.9600 O.3   701  SKM701     -0.2200
      5  C5        57.0650   11.8530   28.5370 C.3   701  SKM701      0.0684
      6  C4        55.8100   12.1340   27.8890 C.2   701  SKM701      0.0584
      7  C1        55.6490   13.3790   27.0720 C.2   701  SKM701      0.3837
      8  O2        54.7310   13.3910   26.2080 O.co2 701  SKM701     -0.2409
      9  O3        56.3560   14.3300   27.3490 O.co2 701  SKM701     -0.2409
     10  C10       54.7080   11.2690   28.0110 C.2   701  SKM701      0.0111
     11  C9        54.8130    9.9790   28.7880 C.3   701  SKM701      0.2066
     12  O11       54.8610    8.8400   27.8670 O.3   701  SKM701     -0.2155
@<TRIPOS>BOND
     1     8     7   ar
     2     7     9   ar
     3     7     6    1
     4    12    11    1
     5     6    10    2
     6     6     5    1
     7    10    11    1
     8     5     3    1
     9    11     2    1
    10     3     2    1
    11     3     4    1
    12     2     1    1
