@<TRIPOS>MOLECULE
2aay_GPJ_A_1.pdb
 10 9 0 0 0
SMALL
GASTEIGER

@<TRIPOS>ATOM
      1  P1        60.4190    8.8980   26.7530 P.3   702  GPJ702      0.1347
      2  O1        60.5200   10.3300   27.1830 O.3   702  GPJ702     -0.3562
      3  O2        59.3180    8.6470   25.7410 O.2   702  GPJ702     -0.4587
      4  O3        61.7140    8.3810   26.2690 O.3   702  GPJ702     -0.3562
      5  O4        61.0500   10.0320   31.4450 O.co2 702  GPJ702     -0.2440
      6  O5        60.3760    8.4750   32.8360 O.co2 702  GPJ702     -0.2440
      7  C1        59.9890    7.9520   28.1090 C.3   702  GPJ702      0.1476
      8  C2        60.0330    8.0120   30.6230 C.3   702  GPJ702      0.2033
      9  C3        60.5270    8.8980   31.7370 C.2   702  GPJ702      0.3823
     10  N1        60.3150    8.6330   29.3280 N.3   702  GPJ702     -0.1988
@<TRIPOS>BOND
     1     3     1    2
     2     4     1    1
     3     1     2    1
     4     1     7    1
     5     7    10    1
     6    10     8    1
     7     8     9    1
     8     5     9   ar
     9     9     6   ar
