@<TRIPOS>MOLECULE
2aaz_UMP_A_1.pdb
 20 21 0 0 0
SMALL
GASTEIGER

@<TRIPOS>ATOM
      1  N1        69.4710  -14.4930   25.0350 N.am  350  UMP350     -0.2018
      2  C2        68.5400  -15.4990   25.0360 C.1   350  UMP350      0.2802
      3  N3        68.1000  -16.0040   26.2130 N.2   350  UMP350     -0.2497
      4  C4        68.6660  -15.6650   27.4160 C.1   350  UMP350      0.1941
      5  C5        69.8630  -14.7160   27.4490 C.3   350  UMP350      0.1579
      6  C6        69.8950  -13.7500   26.2590 C.3   350  UMP350      0.1249
      7  O2        68.0970  -15.9470   23.9920 O.2   350  UMP350     -0.1922
      8  O4        68.2050  -16.1230   28.4570 O.2   350  UMP350     -0.2133
      9  C1'       70.0600  -14.0810   23.7370 C.3   350  UMP350      0.2048
     10  C2'       69.3430  -12.9310   23.0030 C.3   350  UMP350      0.0871
     11  C3'       70.5130  -12.2610   22.2740 C.3   350  UMP350      0.1857
     12  C4'       71.6900  -12.2860   23.2680 C.3   350  UMP350      0.1774
     13  O3'       70.9580  -13.1190   21.2320 O.3   350  UMP350     -0.2203
     14  O4'       71.4080  -13.5280   24.0340 O.3   350  UMP350     -0.3342
     15  C5'       71.6450  -11.1030   24.2310 C.3   350  UMP350      0.1858
     16  O5'       72.1990   -9.9720   23.4860 O.3   350  UMP350     -0.2675
     17  P         71.3890   -8.6680   23.4970 P.3   350  UMP350      0.5327
     18  OP1       70.0180   -9.0460   22.9870 O.3   350  UMP350     -0.1145
     19  OP2       71.2990   -8.0850   24.8500 O.3   350  UMP350     -0.1145
     20  OP3       72.0810   -7.6830   22.6310 O.2   350  UMP350     -0.2224
@<TRIPOS>BOND
     1    13    11    1
     2    11    10    1
     3    11    12    1
     4    20    17    2
     5    18    17    1
     6    10     9    1
     7    12    14    1
     8    12    15    1
     9    16    17    1
    10    16    15    1
    11    17    19    1
    12     9    14    1
    13     9     1    1
    14     7     2    2
    15     1     2   am
    16     1     6    1
    17     2     3    2
    18     3     4    2
    19     6     5    1
    20     4     5    1
    21     4     8    2
