@<TRIPOS>MOLECULE
2ab2_SNL_A_1.pdb
 29 33 0 0 0
SMALL
GASTEIGER

@<TRIPOS>ATOM
      1  C8        -0.3510   -2.7480   12.7410 C.3   502  SNL502      0.0401
      2  C4         0.4800   -5.5830   15.2650 C.3   502  SNL502      0.0034
      3  C5        -0.0170   -4.2210   14.7030 C.3   502  SNL502      0.0337
      4  C2         2.9390   -4.2050   18.0810 C.3   502  SNL502      0.0157
      5  C6         1.2110   -3.3090   14.5490 C.3   502  SNL502      0.0042
      6  C1         3.3890   -5.5990   18.6420 C.3   502  SNL502      0.0118
      7  C3         1.0760   -5.4260   16.6760 C.3   502  SNL502      0.0004
      8  C7         0.7950   -2.1450   13.6690 C.3   502  SNL502      0.0037
      9  C9        -0.6090   -4.2180   13.2330 C.3   502  SNL502      0.1362
     10  C10       -1.1550   -3.6160   15.6510 C.3   502  SNL502      0.0035
     11  C11        1.9070   -3.6210   19.0570 C.3   502  SNL502      0.0041
     12  C12        4.5050   -5.5110   19.7450 C.3   502  SNL502      0.0694
     13  C13       -0.0730   -5.3340   12.2940 C.3   502  SNL502      0.0517
     14  C14       -1.1540   -6.4340   12.5210 C.3   502  SNL502      0.1131
     15  C15       -2.3850   -5.6890   12.8410 C.2   502  SNL502      0.3169
     16  C16        4.5760   -4.0850   14.2030 C.2   502  SNL502      0.1992
     17  C17        5.4580   -4.2830   13.0220 C.3   502  SNL502      0.0845
     18  C18        5.6090   -4.4930   19.4700 C.2   502  SNL502      0.1725
     19  C19        5.2930   -3.3670   18.5600 C.2   502  SNL502      0.0290
     20  C20        4.1150   -3.1980   17.9520 C.2   502  SNL502     -0.0411
     21  C21        3.7850   -1.8730   17.2770 C.3   502  SNL502      0.0333
     22  C22        3.1040   -2.0700   15.9210 C.3   502  SNL502      0.0586
     23  C23        1.8720   -3.0540   15.9480 C.3   502  SNL502      0.0111
     24  C24        2.2810   -4.4180   16.6320 C.3   502  SNL502      0.0043
     25  O57       -3.5150   -6.0220   12.8130 O.2   502  SNL502     -0.2501
     26  O58       -2.0610   -4.4230   13.2250 O.3   502  SNL502     -0.4557
     27  O59        4.1290   -4.9950   14.8500 O.2   502  SNL502     -0.2845
     28  O60        6.6940   -4.5870   19.9880 O.2   502  SNL502     -0.2914
     29  S61        4.2450   -2.3690   14.5200 S.3   502  SNL502     -0.0777
@<TRIPOS>BOND
     1    13    14    1
     2    13     9    1
     3    14    15    1
     4     1     9    1
     5     1     8    1
     6    25    15    2
     7    15    26    1
     8    17    16    1
     9    26     9    1
    10     9     3    1
    11     8     5    1
    12    16    29    1
    13    16    27    2
    14    29    22    1
    15     5     3    1
    16     5    23    1
    17     3     2    1
    18     3    10    1
    19     2     7    1
    20    22    23    1
    21    22    21    1
    22    23    24    1
    23    24     7    1
    24    24     4    1
    25    21    20    1
    26    20     4    1
    27    20    19    2
    28     4     6    1
    29     4    11    1
    30    19    18    1
    31     6    12    1
    32    18    12    1
    33    18    28    2
