@<TRIPOS>MOLECULE
2ab6_GSM_A_1.pdb
 21 20 0 0 0
SMALL
GASTEIGER

@<TRIPOS>ATOM
      1  O32       33.2620    9.9330   23.6710 O.co2 1218  GSM1218    -0.2437
      2  C3        33.5560   11.1340   23.4910 C.2   1218  GSM1218     0.3865
      3  O31       32.7580   12.0780   23.6680 O.co2 1218  GSM1218    -0.2437
      4  CA3       34.9440   11.4740   23.0290 C.3   1218  GSM1218     0.2285
      5  N3        35.7960   10.2900   22.9200 N.am  1218  GSM1218    -0.1917
      6  C2        36.5100    9.7180   23.8830 C.2   1218  GSM1218     0.2626
      7  O2        36.4830   10.1660   25.0120 O.2   1218  GSM1218    -0.2714
      8  CA2       37.3580    8.5190   23.5080 C.3   1218  GSM1218     0.1834
      9  CB2       38.6810    8.6140   24.2930 C.3   1218  GSM1218     0.0886
     10  SG2       39.9270    7.4350   23.8390 S.3   1218  GSM1218    -0.1370
     11  C4        39.7690    6.2280   25.1230 C.3   1218  GSM1218     0.0692
     12  N2        37.7350    8.6230   22.0940 N.am  1218  GSM1218    -0.1969
     13  CD1       37.6450    7.6560   21.1730 C.2   1218  GSM1218     0.2418
     14  OE1       37.2530    6.5190   21.3790 O.2   1218  GSM1218    -0.2733
     15  CG1       38.1030    8.0420   19.7900 C.3   1218  GSM1218     0.0889
     16  CB1       38.4980    6.7920   19.0090 C.3   1218  GSM1218     0.0402
     17  CA1       38.6750    7.1190   17.5220 C.3   1218  GSM1218     0.1948
     18  N1        38.5330    5.9090   16.7260 N.3   1218  GSM1218    -0.1208
     19  C1        39.9990    7.7890   17.2200 C.2   1218  GSM1218     0.3819
     20  O11       40.1790    9.0250   17.3700 O.co2 1218  GSM1218    -0.2441
     21  O12       40.9180    7.0630   16.8100 O.co2 1218  GSM1218    -0.2441
@<TRIPOS>BOND
     1    18    17    1
     2    21    19   ar
     3    19    20   ar
     4    19    17    1
     5    17    16    1
     6    16    15    1
     7    15    13    1
     8    13    14    2
     9    13    12   am
    10    12     8    1
    11     5     4    1
    12     5     6   am
    13     4     2    1
    14     2     3   ar
    15     2     1   ar
    16     8     6    1
    17     8     9    1
    18    10     9    1
    19    10    11    1
    20     6     7    2
