@<TRIPOS>MOLECULE
2ab8_ACP_A_1.pdb
 31 33 0 0 0
SMALL
GASTEIGER

@<TRIPOS>ATOM
      1  PG       -21.1020  -42.4540 -110.6310 P.3   1002  ACP1002     0.1295
      2  O1G      -19.7540  -41.9030 -110.8950 O.3   1002  ACP1002    -0.3567
      3  O2G      -22.1800  -41.9620 -111.7210 O.2   1002  ACP1002    -0.4595
      4  O3G      -21.6730  -41.9890 -109.1990 O.3   1002  ACP1002    -0.3567
      5  PB       -20.1510  -44.8820 -112.0140 P.3   1002  ACP1002     0.3815
      6  O1B      -20.5490  -44.1310 -113.2260 O.2   1002  ACP1002    -0.2547
      7  O2B      -18.7270  -44.8520 -111.6090 O.3   1002  ACP1002    -0.1391
      8  C3B      -21.1530  -44.2630 -110.6420 C.3   1002  ACP1002     0.1768
      9  PA       -21.8880  -46.7990 -113.0790 P.3   1002  ACP1002     0.2209
     10  O1A      -22.8370  -45.6640 -113.0240 O.3   1002  ACP1002    -0.4371
     11  O2A      -21.3950  -47.2400 -114.4030 O.2   1002  ACP1002    -0.5170
     12  O3A      -20.6270  -46.4150 -112.1540 O.3   1002  ACP1002    -0.2483
     13  O5'      -22.5360  -48.0540 -112.3070 O.3   1002  ACP1002    -0.3111
     14  C5'      -21.8400  -49.3010 -112.2180 C.3   1002  ACP1002     0.1813
     15  C4'      -22.7940  -50.4150 -111.7810 C.3   1002  ACP1002     0.1821
     16  O4'      -23.4720  -50.0950 -110.5530 O.3   1002  ACP1002    -0.3135
     17  C3'      -23.9050  -50.6210 -112.8090 C.3   1002  ACP1002     0.2184
     18  O3'      -23.4260  -51.4770 -113.8490 O.3   1002  ACP1002    -0.2174
     19  C2'      -24.8950  -51.3860 -111.9330 C.3   1002  ACP1002     0.2570
     20  O2'      -24.4120  -52.7050 -111.6630 O.3   1002  ACP1002    -0.2130
     21  C1'      -24.8390  -50.5360 -110.6610 C.3   1002  ACP1002     0.3186
     22  N9       -25.7090  -49.3440 -110.7970 N.pl3 1002  ACP1002    -0.1439
     23  C8       -25.3040  -48.0840 -110.9390 C.3   1002  ACP1002     0.3377
     24  N7       -26.3630  -47.2800 -111.0030 N.2   1002  ACP1002    -0.2095
     25  C5       -27.4540  -48.0320 -110.9020 C.2   1002  ACP1002     0.2526
     26  C6       -28.8150  -47.7530 -110.9060 C.2   1002  ACP1002     0.4393
     27  N6       -29.2520  -46.5020 -111.0260 N.pl3 1002  ACP1002     0.2180
     28  N1       -29.7200  -48.8140 -110.7790 N.2   1002  ACP1002     0.0021
     29  C2       -29.2330  -50.1220 -110.6510 C.3   1002  ACP1002     0.5254
     30  N3       -27.9310  -50.3480 -110.6510 N.2   1002  ACP1002    -0.0055
     31  C4       -27.0390  -49.3520 -110.7720 C.2   1002  ACP1002     0.3518
@<TRIPOS>BOND
     1    11     9    2
     2    18    17    1
     3     6     5    2
     4     9    10    1
     5     9    13    1
     6     9    12    1
     7    17    19    1
     8    17    15    1
     9    13    14    1
    10    14    15    1
    11    12     5    1
    12     5     7    1
    13     5     8    1
    14    19    20    1
    15    19    21    1
    16    15    16    1
    17     3     1    2
    18    27    26    1
    19    24    23    1
    20    24    25    2
    21    23    22    1
    22    26    25    1
    23    26    28    2
    24    25    31    1
    25     2     1    1
    26    22    31    1
    27    22    21    1
    28    28    29    1
    29    31    30    2
    30    21    16    1
    31    29    30    1
    32     8     1    1
    33     1     4    1
