@<TRIPOS>MOLECULE
2ab8_MTP_A_1.pdb
 20 22 0 0 0
SMALL
GASTEIGER

@<TRIPOS>ATOM
      1  O5'      -14.8760  -45.1590 -105.4040 O.3   1001  MTP1001    -0.2176
      2  C5'      -14.7880  -44.5740 -104.1020 C.3   1001  MTP1001     0.2143
      3  C4'      -13.3200  -44.4980 -103.6730 C.3   1001  MTP1001     0.1851
      4  O4'      -12.5830  -43.7260 -104.6320 O.3   1001  MTP1001    -0.3134
      5  C1'      -11.3410  -43.5330 -103.9400 C.3   1001  MTP1001     0.3186
      6  N9       -10.4250  -42.6090 -104.6510 N.pl3 1001  MTP1001    -0.1441
      7  C8       -10.6490  -41.3210 -104.9050 C.3   1001  MTP1001     0.3376
      8  N7        -9.6300  -40.8140 -105.5960 N.2   1001  MTP1001    -0.2143
      9  C5        -8.7450  -41.7880 -105.7860 C.2   1001  MTP1001     0.1849
     10  C6        -7.5070  -41.8670 -106.4130 C.2   1001  MTP1001     0.1305
     11  S6        -6.8260  -40.4610 -107.2030 S.3   1001  MTP1001    -0.0926
     12  CS        -5.2870  -40.9420 -107.9580 C.3   1001  MTP1001     0.0757
     13  N1        -6.8500  -43.0370 -106.4100 N.2   1001  MTP1001    -0.2106
     14  C2        -7.3600  -44.1100 -105.8280 C.3   1001  MTP1001     0.3924
     15  N3        -8.5360  -44.0680 -105.2250 N.2   1001  MTP1001    -0.0348
     16  C4        -9.2500  -42.9330 -105.1830 C.2   1001  MTP1001     0.3435
     17  C2'      -11.7890  -43.0490 -102.5590 C.3   1001  MTP1001     0.2570
     18  O2'      -10.8650  -43.4510 -101.5450 O.3   1001  MTP1001    -0.2130
     19  C3'      -13.1660  -43.6940 -102.3810 C.3   1001  MTP1001     0.2186
     20  O3'      -13.1390  -44.5890 -101.2660 O.3   1001  MTP1001    -0.2174
@<TRIPOS>BOND
     1    12    11    1
     2    11    10    1
     3    10    13    2
     4    10     9    1
     5    13    14    1
     6    14    15    1
     7     9     8    2
     8     9    16    1
     9     8     7    1
    10     1     2    1
    11    15    16    2
    12    16     6    1
    13     7     6    1
    14     6     5    1
    15     4     5    1
    16     4     3    1
    17     2     3    1
    18     5    17    1
    19     3    19    1
    20    17    19    1
    21    17    18    1
    22    19    20    1
