@<TRIPOS>MOLECULE
2aba_FMN_A_1.pdb
 31 33 0 0 0
SMALL
GASTEIGER

@<TRIPOS>ATOM
      1  N1         6.9240   27.1370   24.5570 N.2   1401  FMN1401    -0.2887
      2  C2         7.7220   28.1800   24.2370 C.1   1401  FMN1401     0.3669
      3  O2         8.6750   28.5070   24.9580 O.2   1401  FMN1401    -0.1744
      4  N3         7.4100   28.9610   23.1220 N.2   1401  FMN1401    -0.2300
      5  C4         6.3890   28.6570   22.2430 C.1   1401  FMN1401     0.2513
      6  O4         6.1340   29.4760   21.3290 O.2   1401  FMN1401    -0.2057
      7  C4A        5.6110   27.5410   22.5450 C.2   1401  FMN1401     0.2703
      8  N5         4.5800   27.1450   21.6900 N.2   1401  FMN1401    -0.3882
      9  C5A        3.6720   26.1920   22.1290 C.2   1401  FMN1401     0.1277
     10  C6         2.5560   25.8920   21.3410 C.3   1401  FMN1401     0.0820
     11  C7         1.6450   24.9180   21.7200 C.2   1401  FMN1401    -0.0408
     12  C7M        0.3710   24.7470   20.9300 C.3   1401  FMN1401     0.0265
     13  C8         1.8700   24.2230   22.9010 C.2   1401  FMN1401    -0.0280
     14  C8M        0.8480   23.2490   23.4270 C.3   1401  FMN1401     0.0304
     15  C9         2.9890   24.5270   23.6890 C.2   1401  FMN1401     0.0123
     16  C9A        3.9060   25.5110   23.3280 C.2   1401  FMN1401     0.0793
     17  N10        5.0340   25.7980   24.1110 N.pl3 1401  FMN1401    -0.2545
     18  C10        5.8670   26.8360   23.7380 C.2   1401  FMN1401     0.2449
     19  C1'        5.1620   25.2410   25.4860 C.3   1401  FMN1401     0.1336
     20  C2'        4.2350   26.0340   26.4100 C.3   1401  FMN1401     0.2048
     21  O2'        4.7060   27.3460   26.6210 O.3   1401  FMN1401    -0.2185
     22  C3'        4.1670   25.2390   27.7250 C.3   1401  FMN1401     0.2165
     23  O3'        5.4840   25.0150   28.2160 O.3   1401  FMN1401    -0.2175
     24  C4'        3.3650   23.9440   27.5220 C.3   1401  FMN1401     0.2147
     25  O4'        2.0910   24.4390   27.1370 O.3   1401  FMN1401    -0.2176
     26  C5'        3.2590   22.9550   28.6970 C.3   1401  FMN1401     0.1892
     27  O5'        2.2900   23.4020   29.6340 O.3   1401  FMN1401    -0.2674
     28  P          0.7050   23.0070   29.6520 P.3   1401  FMN1401     0.5327
     29  O1P        0.4740   21.5990   30.1330 O.3   1401  FMN1401    -0.1145
     30  O2P        0.1950   23.2110   28.2270 O.2   1401  FMN1401    -0.2224
     31  O3P        0.2070   24.0870   30.6380 O.3   1401  FMN1401    -0.1145
@<TRIPOS>BOND
     1    12    11    1
     2     6     5    2
     3    10    11    1
     4    10     9    1
     5     8     9    2
     6     8     7    2
     7    11    13    2
     8     9    16    1
     9     5     7    1
    10     5     4    2
    11     7    18    1
    12    13    14    1
    13    13    15    1
    14     4     2    2
    15    16    15    2
    16    16    17    1
    17    18    17    1
    18    18     1    2
    19    17    19    1
    20     2     1    2
    21     2     3    2
    22    19    20    1
    23    20    21    1
    24    20    22    1
    25    25    24    1
    26    24    22    1
    27    24    26    1
    28    22    23    1
    29    30    28    2
    30    26    27    1
    31    27    28    1
    32    28    29    1
    33    28    31    1
