@<TRIPOS>MOLECULE
2aba_STR_A_1.pdb
 23 26 0 0 0
SMALL
GASTEIGER

@<TRIPOS>ATOM
      1  C1         7.8810   23.0900   21.1060 C.3   1500  STR1500     0.0118
      2  C2         8.1780   24.0820   22.2260 C.3   1500  STR1500     0.0694
      3  C3         8.3080   25.4830   21.7090 C.2   1500  STR1500     0.1725
      4  O3         9.0360   26.3100   22.2660 O.2   1500  STR1500    -0.2914
      5  C4         7.5520   25.8150   20.5000 C.2   1500  STR1500     0.0289
      6  C5         6.7530   24.9150   19.8600 C.2   1500  STR1500    -0.0420
      7  C6         5.8840   25.3890   18.7190 C.3   1500  STR1500     0.0221
      8  C7         5.9400   24.4830   17.4980 C.3   1500  STR1500     0.0044
      9  C8         5.6900   23.0330   17.8750 C.3   1500  STR1500     0.0006
     10  C9         6.6910   22.5750   18.9510 C.3   1500  STR1500     0.0035
     11  C10        6.6730   23.4440   20.2330 C.3   1500  STR1500     0.0157
     12  C11        6.5410   21.0680   19.2440 C.3   1500  STR1500     0.0003
     13  C12        6.5900   20.1780   17.9820 C.3   1500  STR1500     0.0004
     14  C13        5.6030   20.6610   16.9210 C.3   1500  STR1500     0.0065
     15  C14        5.8460   22.1350   16.6470 C.3   1500  STR1500     0.0004
     16  C15        5.0220   22.4430   15.3960 C.3   1500  STR1500     0.0004
     17  C16        5.2230   21.1740   14.5630 C.3   1500  STR1500     0.0073
     18  C17        5.8000   20.0910   15.5050 C.3   1500  STR1500     0.0576
     19  C18        4.1510   20.3710   17.3790 C.3   1500  STR1500     0.0004
     20  C19        5.3970   23.2170   21.0510 C.3   1500  STR1500     0.0041
     21  C20        5.1850   18.7250   15.3310 C.2   1500  STR1500     0.1507
     22  O20        4.1320   18.5920   14.7220 O.2   1500  STR1500    -0.2961
     23  C21        5.8740   17.5600   15.9460 C.3   1500  STR1500     0.0722
@<TRIPOS>BOND
     1    17    16    1
     2    17    18    1
     3    22    21    2
     4    21    18    1
     5    21    23    1
     6    16    15    1
     7    18    14    1
     8    15    14    1
     9    15     9    1
    10    14    19    1
    11    14    13    1
    12     8     9    1
    13     8     7    1
    14     9    10    1
    15    13    12    1
    16     7     6    1
    17    10    12    1
    18    10    11    1
    19     6    11    1
    20     6     5    2
    21    11    20    1
    22    11     1    1
    23     5     3    1
    24     1     2    1
    25     3     2    1
    26     3     4    2
