@<TRIPOS>MOLECULE
2abb_FMN_A_1.pdb
 31 33 0 0 0
SMALL
GASTEIGER

@<TRIPOS>ATOM
      1  N1        21.5190   26.7040   19.8840 N.2   1401  FMN1401    -0.2887
      2  C2        20.7400   27.7720   20.1660 C.1   1401  FMN1401     0.3669
      3  O2        19.8210   28.1410   19.4120 O.2   1401  FMN1401    -0.1744
      4  N3        20.9750   28.5110   21.3220 N.2   1401  FMN1401    -0.2300
      5  C4        21.9360   28.1500   22.2450 C.1   1401  FMN1401     0.2513
      6  O4        22.1980   28.9670   23.1830 O.2   1401  FMN1401    -0.2057
      7  C4A       22.6850   27.0010   21.9850 C.2   1401  FMN1401     0.2706
      8  N5        23.6480   26.5810   22.8960 N.2   1401  FMN1401    -0.3841
      9  C5A       24.5250   25.5600   22.5160 C.2   1401  FMN1401     0.1452
     10  C6        25.5730   25.2280   23.3750 C.2   1401  FMN1401     0.0252
     11  C7        26.4660   24.2050   23.0350 C.2   1401  FMN1401    -0.0375
     12  C7M       27.6840   23.9620   23.9000 C.3   1401  FMN1401     0.0268
     13  C8        26.3060   23.5400   21.8090 C.3   1401  FMN1401     0.0417
     14  C8M       27.3420   22.5560   21.3050 C.3   1401  FMN1401     0.0091
     15  C9        25.2560   23.8980   20.9470 C.2   1401  FMN1401    -0.0049
     16  C9A       24.3670   24.9240   21.2810 C.2   1401  FMN1401     0.0795
     17  N10       23.3270   25.2860   20.4220 N.pl3 1401  FMN1401    -0.2545
     18  C10       22.5080   26.3490   20.7570 C.2   1401  FMN1401     0.2449
     19  C1'       23.2250   24.7220   19.0510 C.3   1401  FMN1401     0.1336
     20  C2'       24.2320   25.4130   18.1560 C.3   1401  FMN1401     0.2048
     21  O2'       23.8240   26.7450   17.8920 O.3   1401  FMN1401    -0.2185
     22  C3'       24.3300   24.5730   16.8660 C.3   1401  FMN1401     0.2165
     23  O3'       23.0420   24.4840   16.2780 O.3   1401  FMN1401    -0.2175
     24  C4'       24.9380   23.1770   17.0640 C.3   1401  FMN1401     0.2147
     25  O4'       26.1870   23.4850   17.6940 O.3   1401  FMN1401    -0.2176
     26  C5'       25.0990   22.4520   15.7200 C.3   1401  FMN1401     0.1892
     27  O5'       26.0770   23.1790   14.9540 O.3   1401  FMN1401    -0.2674
     28  P         27.6410   22.5820   14.9030 P.3   1401  FMN1401     0.5327
     29  O1P       27.7050   21.1920   14.3670 O.3   1401  FMN1401    -0.1145
     30  O2P       28.1620   22.6760   16.3300 O.3   1401  FMN1401    -0.1145
     31  O3P       28.2520   23.6190   13.9470 O.2   1401  FMN1401    -0.2224
@<TRIPOS>BOND
     1    31    28    2
     2    29    28    1
     3    28    27    1
     4    28    30    1
     5    27    26    1
     6    26    24    1
     7    23    22    1
     8    22    24    1
     9    22    20    1
    10    24    25    1
    11    21    20    1
    12    20    19    1
    13    19    17    1
    14     3     2    2
    15     1     2    2
    16     1    18    2
    17     2     4    2
    18    17    18    1
    19    17    16    1
    20    18     7    1
    21    15    16    2
    22    15    13    1
    23    16     9    1
    24    14    13    1
    25     4     5    2
    26    13    11    1
    27     7     5    1
    28     7     8    2
    29     5     6    2
    30     9     8    2
    31     9    10    1
    32    11    10    2
    33    11    12    1
