@<TRIPOS>MOLECULE
2abe_HIS_A_1.pdb
 10 10 0 0 0
SMALL
GASTEIGER

@<TRIPOS>ATOM
      1  N         -0.0430    4.9180   10.8060 N.3   300  HIS300     -0.1241
      2  CA        -0.6490    6.2410   10.7100 C.3   300  HIS300      0.1618
      3  C         -0.9760    6.8020   12.0900 C.2   300  HIS300      0.2264
      4  O         -0.1170    7.3860   12.7530 O.2   300  HIS300     -0.2867
      5  CB        -1.9230    6.1770    9.8610 C.3   300  HIS300      0.0704
      6  CG        -2.9410    5.2010   10.3660 C.2   300  HIS300      0.0649
      7  ND1       -2.6790    3.8550   10.5040 N.2   300  HIS300     -0.2310
      8  CD2       -4.2260    5.3760   10.7580 C.3   300  HIS300      0.1683
      9  CE1       -3.7570    3.2430   10.9590 C.2   300  HIS300      0.1939
     10  NE2       -4.7100    4.1430   11.1210 N.2   300  HIS300     -0.2440
@<TRIPOS>BOND
     1     5     6    1
     2     5     2    1
     3     6     7    2
     4     6     8    1
     5     7     9    1
     6     2     1    1
     7     2     3    1
     8     8    10    1
     9     9    10    2
    10     3     4    2
