@<TRIPOS>MOLECULE
2abi_1CA_A_1.pdb
 24 27 0 0 0
SMALL
GASTEIGER

@<TRIPOS>ATOM
      1  C1       -15.6710   55.4270   -2.5090 C.3   1001  1CA1001     0.0118
      2  C2       -14.7060   56.6350   -2.9690 C.3   1001  1CA1001     0.0694
      3  C3       -15.4840   57.6640   -3.9050 C.2   1001  1CA1001     0.1725
      4  C4       -16.9190   57.9700   -3.7030 C.2   1001  1CA1001     0.0289
      5  C5       -17.7340   57.2630   -2.6600 C.2   1001  1CA1001    -0.0420
      6  C6       -19.2540   57.7020   -2.4170 C.3   1001  1CA1001     0.0221
      7  C7       -20.2390   56.5000   -2.3390 C.3   1001  1CA1001     0.0044
      8  C8       -19.7570   55.2820   -1.4000 C.3   1001  1CA1001     0.0006
      9  C9       -18.1840   54.7690   -1.8290 C.3   1001  1CA1001     0.0035
     10  C10      -17.1350   55.9400   -1.8270 C.3   1001  1CA1001     0.0157
     11  C11      -17.6680   53.4280   -1.0270 C.3   1001  1CA1001     0.0003
     12  C12      -18.7240   52.3210   -0.9790 C.3   1001  1CA1001     0.0001
     13  C13      -20.1930   52.8440   -0.3440 C.3   1001  1CA1001     0.0024
     14  C14      -20.7530   54.0120   -1.3420 C.3   1001  1CA1001     0.0001
     15  C15      -22.2680   54.2300   -0.9590 C.3   1001  1CA1001     0.0001
     16  C16      -22.7130   52.8920   -0.4980 C.3   1001  1CA1001     0.0026
     17  C17      -21.4350   51.9030   -0.5380 C.3   1001  1CA1001     0.0331
     18  C18      -19.9640   53.3110    1.2210 C.3   1001  1CA1001     0.0001
     19  C19      -16.8870   56.4920   -0.3660 C.3   1001  1CA1001     0.0041
     20  C20      -21.5770   50.6810    0.3870 C.3   1001  1CA1001     0.1847
     21  C21      -20.8980   49.3950    0.0680 C.3   1001  1CA1001     0.2147
     22  O3       -14.8570   58.2150   -4.7850 O.2   1001  1CA1001    -0.2914
     23  O20      -22.2440   50.7890    1.5040 O.3   1001  1CA1001    -0.2203
     24  O21      -20.3510   48.6900    1.2050 O.3   1001  1CA1001    -0.2176
@<TRIPOS>BOND
     1    22     3    2
     2     3     4    1
     3     3     2    1
     4     4     5    2
     5     2     1    1
     6     5     6    1
     7     5    10    1
     8     1    10    1
     9     6     7    1
    10     7     8    1
    11     9    10    1
    12     9     8    1
    13     9    11    1
    14    10    19    1
    15     8    14    1
    16    14    15    1
    17    14    13    1
    18    11    12    1
    19    12    13    1
    20    15    16    1
    21    17    16    1
    22    17    13    1
    23    17    20    1
    24    13    18    1
    25    21    20    1
    26    21    24    1
    27    20    23    1
