@<TRIPOS>MOLECULE
2abj_CBC_A_1.pdb
 27 29 0 0 0
SMALL
GASTEIGER

@<TRIPOS>ATOM
      1  F49       32.8050   61.6220   93.1020 F     1401  CBC1401    -0.1658
      2  C46       31.5070   61.3680   93.2000 C.3   1401  CBC1401     0.4198
      3  F50       30.9600   61.3720   91.9970 F     1401  CBC1401    -0.1658
      4  F51       31.3590   60.1640   93.7230 F     1401  CBC1401    -0.1658
      5  C41       30.8280   62.3860   94.0950 C.ar  1401  CBC1401     0.0901
      6  C42       30.3930   61.9080   95.3370 C.ar  1401  CBC1401     0.0052
      7  C43       29.7520   62.7240   96.2660 C.ar  1401  CBC1401     0.0000
      8  C44       29.5430   64.0580   95.9470 C.ar  1401  CBC1401     0.0014
      9  C45       29.9750   64.5490   94.7120 C.ar  1401  CBC1401     0.0200
     10  C40       30.6240   63.7440   93.7680 C.ar  1401  CBC1401     0.1291
     11  S1        31.0510   64.4790   92.3840 S.O2  1401  CBC1401     0.0951
     12  O38       31.4520   65.8270   92.6580 O.2   1401  CBC1401    -0.1501
     13  O39       32.1160   63.8000   91.6950 O.2   1401  CBC1401    -0.1501
     14  N33       29.7420   64.5920   91.4590 N.3   1401  CBC1401     0.0407
     15  N32       29.1990   63.4270   90.9190 N.am  1401  CBC1401    -0.0825
     16  C39       29.3570   63.1490   89.6280 C.2   1401  CBC1401     0.3171
     17  O37       30.0550   63.8260   88.8860 O.2   1401  CBC1401    -0.2635
     18  C54       28.5640   62.0160   89.0750 C.ar  1401  CBC1401     0.2014
     19  C53       27.6330   61.1440   89.6510 C.ar  1401  CBC1401     0.0454
     20  O40       28.7140   61.7820   87.7250 O.2   1401  CBC1401    -0.4488
     21  C51       27.8580   60.7110   87.4050 C.ar  1401  CBC1401     0.1456
     22  C50       27.2110   60.3200   88.5510 C.ar  1401  CBC1401     0.0386
     23  C49       26.2980   59.2730   88.5060 C.ar  1401  CBC1401     0.0145
     24  C52       27.6600   60.1130   86.1650 C.ar  1401  CBC1401     0.0384
     25  C47       26.7530   59.0550   86.1140 C.ar  1401  CBC1401     0.0145
     26  C48       26.0820   58.6490   87.2720 C.ar  1401  CBC1401     0.0579
     27 CL1        24.9180   57.2960   87.1610 Cl    1401  CBC1401    -0.0822
@<TRIPOS>BOND
     1    25    24   ar
     2    25    26   ar
     3    24    21   ar
     4    27    26    1
     5    26    23   ar
     6    21    20   ar
     7    21    22   ar
     8    20    18   ar
     9    23    22   ar
    10    22    19   ar
    11    17    16    2
    12    18    16    1
    13    18    19   ar
    14    16    15   am
    15    15    14    1
    16    14    11    1
    17    13    11    2
    18     3     2    1
    19    11    12    2
    20    11    10    1
    21     1     2    1
    22     2     4    1
    23     2     5    1
    24    10     5   ar
    25    10     9   ar
    26     5     6   ar
    27     9     8   ar
    28     6     7   ar
    29     8     7   ar
