@<TRIPOS>MOLECULE
2abj_PLP_A_1.pdb
 15 15 0 0 0
SMALL
GASTEIGER

@<TRIPOS>ATOM
      1  N1        26.2390   68.7630   93.9310 N.ar  420  PLP420     -0.2452
      2  C2        26.5530   68.0160   95.0530 C.ar  420  PLP420      0.0978
      3  C2A       25.4660   67.5860   96.0010 C.3   420  PLP420      0.0555
      4  C3        27.8780   67.6710   95.2910 C.ar  420  PLP420      0.2049
      5  O3        28.2490   66.9500   96.4000 O.3   420  PLP420     -0.2857
      6  C4        28.8550   68.0810   94.3990 C.ar  420  PLP420      0.0182
      7  C4A       30.2840   67.8840   94.7810 C.3   420  PLP420      0.0342
      8  C5        28.5320   68.8240   93.2640 C.ar  420  PLP420      0.0261
      9  C6        27.2040   69.1710   93.0350 C.ar  420  PLP420      0.0965
     10  C5A       29.5260   68.8920   92.1250 C.3   420  PLP420      0.1815
     11  O4P       30.6320   69.6520   92.5600 O.3   420  PLP420     -0.2653
     12  P         32.0040   69.7110   91.7210 P.3   420  PLP420      0.5329
     13  O1P       31.7230   70.2470   90.3380 O.2   420  PLP420     -0.2224
     14  O2P       32.6060   68.3300   91.6440 O.3   420  PLP420     -0.1145
     15  O3P       32.9530   70.6290   92.4430 O.3   420  PLP420     -0.1145
@<TRIPOS>BOND
     1    13    12    2
     2    14    12    1
     3    12    15    1
     4    12    11    1
     5    10    11    1
     6    10     8    1
     7     9     8   ar
     8     9     1   ar
     9     8     6   ar
    10     1     2   ar
    11     6     7    1
    12     6     4   ar
    13     2     4   ar
    14     2     3    1
    15     4     5    1
