@<TRIPOS>MOLECULE
2abm_POQ_A_1.pdb
 39 40 0 0 0
SMALL
GASTEIGER

@<TRIPOS>ATOM
      1  C1         8.0490   -0.5640   26.7640 C.3   600  POQ600      0.2995
      2  O1         7.8120    0.7550   26.8230 O.3   600  POQ600     -0.1871
      3  C2         8.6990   -1.1070   28.1300 C.3   600  POQ600      0.2134
      4  C3         8.8820   -2.6660   27.7720 C.3   600  POQ600      0.2171
      5  O3         9.4760   -3.3140   28.8760 O.3   600  POQ600     -0.2175
      6  C4         7.4830   -3.5980   27.4750 C.3   600  POQ600      0.2142
      7  O4         8.0150   -5.0030   27.1500 O.3   600  POQ600     -0.2176
      8  C5         6.7400   -2.9680   26.1990 C.3   600  POQ600      0.1806
      9  O5         6.6250   -1.3580   26.3200 O.3   600  POQ600     -0.3238
     10  C6         6.1670   -3.7420   24.9360 C.3   600  POQ600      0.1813
     11  P1        11.7590   -0.0520   29.1140 P.3   600  POQ600      0.2141
     12  O11       10.1770   -0.1560   28.4480 O.3   600  POQ600     -0.3085
     13  O12       12.2430    1.4650   28.7940 O.3   600  POQ600     -0.4373
     14  O13       12.7310   -1.1480   28.3690 O.2   600  POQ600     -0.5172
     15  O14       12.0420   -0.1740   30.7980 O.3   600  POQ600     -0.3141
     16  C15       13.4730   -0.0570   31.3230 C.3   600  POQ600      0.1492
     17  C16       13.7540   -0.1570   32.8680 C.3   600  POQ600      0.0351
     18  P3         8.5120   -5.0740   23.8070 P.3   600  POQ600      0.2141
     19  O31        7.3580   -3.7760   24.1320 O.3   600  POQ600     -0.3114
     20  O32        9.7210   -4.4960   22.7530 O.2   600  POQ600     -0.5172
     21  O33        9.0900   -6.8030   23.8000 O.3   600  POQ600     -0.3114
     22  O34        9.5760   -4.7140   24.9720 O.3   600  POQ600     -0.4373
     23  C1B       12.0910   -8.0860   20.9400 C.3   600  POQ600      0.2995
     24  O1B       13.0350   -9.0570   20.8190 O.3   600  POQ600     -0.1871
     25  C2B       11.9690   -7.2090   19.5980 C.3   600  POQ600      0.2134
     26  C3B       10.7980   -6.1630   19.9970 C.3   600  POQ600      0.2171
     27  O3B       10.5740   -5.3050   18.8980 O.3   600  POQ600     -0.2175
     28  C4B        9.2450   -6.8060   20.3450 C.3   600  POQ600      0.2142
     29  O4B        8.3520   -5.6150   20.6800 O.3   600  POQ600     -0.2176
     30  C5B        9.4050   -7.7620   21.6160 C.3   600  POQ600      0.1806
     31  O5B       10.6370   -8.8000   21.4250 O.3   600  POQ600     -0.3238
     32  C6B        8.4980   -7.7880   22.9120 C.3   600  POQ600      0.1813
     33  P2        14.5540   -5.2930   18.5480 P.3   600  POQ600      0.2141
     34  O21       13.5830   -6.5420   19.2320 O.3   600  POQ600     -0.3085
     35  O22       16.0910   -5.7800   18.8020 O.2   600  POQ600     -0.5172
     36  O23       14.2850   -3.8710   19.3370 O.3   600  POQ600     -0.4373
     37  O24       14.5130   -4.9610   16.8560 O.3   600  POQ600     -0.3141
     38  C25       15.3850   -3.8380   16.2720 C.3   600  POQ600      0.1492
     39  C26       15.3480   -3.5240   14.7260 C.3   600  POQ600      0.0351
@<TRIPOS>BOND
     1    39    38    1
     2    38    37    1
     3    37    33    1
     4    33    35    2
     5    33    34    1
     6    33    36    1
     7    27    26    1
     8    34    25    1
     9    25    26    1
    10    25    23    1
    11    26    28    1
    12    28    29    1
    13    28    30    1
    14    24    23    1
    15    23    31    1
    16    31    30    1
    17    30    32    1
    18    20    18    2
    19    32    21    1
    20    21    18    1
    21    18    19    1
    22    18    22    1
    23    19    10    1
    24    10     8    1
    25     8     9    1
    26     8     6    1
    27     9     1    1
    28     1     2    1
    29     1     3    1
    30     7     6    1
    31     6     4    1
    32     4     3    1
    33     4     5    1
    34     3    12    1
    35    14    11    2
    36    12    11    1
    37    13    11    1
    38    11    15    1
    39    15    16    1
    40    16    17    1
