@<TRIPOS>MOLECULE
2abs_ACP_A_1.pdb
 31 33 0 0 0
SMALL
GASTEIGER

@<TRIPOS>ATOM
      1  PG        11.1280  -15.2040 -101.8520 P.3   1001  ACP1001     0.1295
      2  O1G       11.5130  -14.3420 -103.1590 O.2   1001  ACP1001    -0.4595
      3  O2G       10.2230  -14.4890 -100.9340 O.3   1001  ACP1001    -0.3567
      4  O3G       12.5400  -15.5850 -101.2260 O.3   1001  ACP1001    -0.3567
      5  PB         9.4890  -16.2830 -104.0950 P.3   1001  ACP1001     0.3815
      6  O1B        8.2240  -15.5190 -103.9590 O.3   1001  ACP1001    -0.1391
      7  O2B       10.4920  -15.7000 -105.0410 O.2   1001  ACP1001    -0.2547
      8  C3B       10.2520  -16.6230 -102.5180 C.3   1001  ACP1001     0.1768
      9  PA        10.0590  -18.9040 -104.9540 P.3   1001  ACP1001     0.2209
     10  O1A       10.3350  -19.3750 -106.3560 O.2   1001  ACP1001    -0.5170
     11  O2A       11.3020  -18.6290 -104.1370 O.3   1001  ACP1001    -0.4371
     12  O3A        9.0560  -17.6780 -104.8020 O.3   1001  ACP1001    -0.2483
     13  O5'        9.2900  -20.0590 -104.1250 O.3   1001  ACP1001    -0.3111
     14  C5'        9.9290  -21.3170 -103.8660 C.3   1001  ACP1001     0.1813
     15  C4'        8.9270  -22.4500 -103.6150 C.3   1001  ACP1001     0.1821
     16  O4'        8.0840  -22.1120 -102.4940 O.3   1001  ACP1001    -0.3135
     17  C3'        7.9790  -22.6700 -104.7910 C.3   1001  ACP1001     0.2184
     18  O3'        8.4990  -23.6120 -105.7250 O.3   1001  ACP1001    -0.2174
     19  C2'        6.7030  -23.1380 -104.0940 C.3   1001  ACP1001     0.2570
     20  O2'        6.8720  -24.4560 -103.5780 O.3   1001  ACP1001    -0.2130
     21  C1'        6.7100  -22.2590 -102.8410 C.3   1001  ACP1001     0.3186
     22  N9         6.0360  -20.9920 -103.1230 N.pl3 1001  ACP1001    -0.1439
     23  C8         6.5330  -19.7790 -103.3260 C.3   1001  ACP1001     0.3377
     24  N7         5.5310  -18.9320 -103.5570 N.2   1001  ACP1001    -0.2095
     25  C5         4.3890  -19.6050 -103.4870 C.2   1001  ACP1001     0.2526
     26  C6         3.0490  -19.2490 -103.5890 C.2   1001  ACP1001     0.4393
     27  N6         2.6460  -17.9980 -103.7770 N.pl3 1001  ACP1001     0.2180
     28  N1         2.1470  -20.2230 -103.4440 N.2   1001  ACP1001     0.0021
     29  C2         2.4890  -21.4760 -103.1960 C.3   1001  ACP1001     0.5254
     30  N3         3.7330  -21.8510 -103.0560 N.2   1001  ACP1001    -0.0055
     31  C4         4.6920  -20.9240 -103.2100 C.2   1001  ACP1001     0.3518
@<TRIPOS>BOND
     1    10     9    2
     2    18    17    1
     3     7     5    2
     4     9    12    1
     5     9    11    1
     6     9    13    1
     7    12     5    1
     8    17    19    1
     9    17    15    1
    10    13    14    1
    11     5     6    1
    12     5     8    1
    13    19    20    1
    14    19    21    1
    15    14    15    1
    16    27    26    1
    17    15    16    1
    18    26    25    1
    19    26    28    2
    20    24    25    2
    21    24    23    1
    22    25    31    1
    23    28    29    1
    24    23    22    1
    25    31    22    1
    26    31    30    2
    27    29    30    1
    28     2     1    2
    29    22    21    1
    30    21    16    1
    31     8     1    1
    32     1     4    1
    33     1     3    1
