@<TRIPOS>MOLECULE
2ac1_NAG_A_1.pdb
 14 14 0 0 0
SMALL
GASTEIGER

@<TRIPOS>ATOM
      1  C1        81.5940  116.0100    2.6290 C.3   750  NAG750      0.1665
      2  C2        80.1550  115.8690    3.1370 C.3   750  NAG750      0.1576
      3  C3        79.5410  117.2100    3.5280 C.3   750  NAG750      0.2069
      4  C4        80.5470  118.1220    4.2340 C.3   750  NAG750      0.2134
      5  C5        81.8770  118.2340    3.4860 C.3   750  NAG750      0.1809
      6  C6        83.0710  117.9540    4.3640 C.3   750  NAG750      0.2141
      7  C7        78.8570  113.9930    2.3770 C.2   750  NAG750      0.2420
      8  C8        77.7570  113.4710    1.4690 C.3   750  NAG750      0.0964
      9  N2        79.3210  115.2190    2.1430 N.am  750  NAG750     -0.2019
     10  O3        78.4570  116.9770    4.4030 O.3   750  NAG750     -0.2184
     11  O4        79.9920  119.4390    4.3080 O.3   750  NAG750     -0.2176
     12  O5        81.9340  117.3550    2.3390 O.3   750  NAG750     -0.3489
     13  O6        84.1880  118.6910    3.9180 O.3   750  NAG750     -0.2176
     14  O7        79.2800  113.2840    3.2970 O.2   750  NAG750     -0.2733
@<TRIPOS>BOND
     1     8     7    1
     2     9     7   am
     3     9     2    1
     4    12     1    1
     5    12     5    1
     6     7    14    2
     7     1     2    1
     8     2     3    1
     9     5     4    1
    10     5     6    1
    11     3     4    1
    12     3    10    1
    13    13     6    1
    14     4    11    1
