@<TRIPOS>MOLECULE
2ac1_MAN_A_1.pdb
 11 11 0 0 0
SMALL
GASTEIGER

@<TRIPOS>ATOM
      1  C1        78.3460  123.7450   14.1390 C.3   753  MAN753      0.1777
      2  C2        78.7540  124.0210   15.5880 C.3   753  MAN753      0.2141
      3  C3        79.5790  122.8450   16.1500 C.3   753  MAN753      0.2173
      4  C4        78.9060  121.4900   15.8860 C.3   753  MAN753      0.2142
      5  C5        78.4800  121.3670   14.4160 C.3   753  MAN753      0.1810
      6  C6        77.6780  120.1210   14.1240 C.3   753  MAN753      0.2141
      7  O2        77.5910  124.2740   16.4150 O.3   753  MAN753     -0.2176
      8  O3        79.7610  123.0150   17.5540 O.3   753  MAN753     -0.2175
      9  O4        79.8130  120.4440   16.1980 O.3   753  MAN753     -0.2176
     10  O5        77.6680  122.4980   14.0450 O.3   753  MAN753     -0.3481
     11  O6        77.4620  119.9600   12.7280 O.3   753  MAN753     -0.2176
@<TRIPOS>BOND
     1    11     6    1
     2    10     1    1
     3    10     5    1
     4     6     5    1
     5     1     2    1
     6     5     4    1
     7     2     3    1
     8     2     7    1
     9     4     3    1
    10     4     9    1
    11     3     8    1
