@<TRIPOS>MOLECULE
2ac7_ADN_A_1.pdb
 19 21 0 0 0
SMALL
GASTEIGER

@<TRIPOS>ATOM
      1  O5'       35.8190   26.2500   13.3510 O.3   1216  ADN1216    -0.2176
      2  C5'       36.5660   26.8310   12.2750 C.3   1216  ADN1216     0.2143
      3  C4'       35.5970   27.4800   11.2920 C.3   1216  ADN1216     0.1851
      4  O4'       34.7490   28.4620   11.9550 O.3   1216  ADN1216    -0.3134
      5  C3'       36.2950   28.2570   10.1900 C.3   1216  ADN1216     0.2186
      6  O3'       35.5570   28.1030    8.9760 O.3   1216  ADN1216    -0.2174
      7  C2'       36.3560   29.6890   10.7490 C.3   1216  ADN1216     0.2570
      8  O2'       36.0960   30.6800    9.7800 O.3   1216  ADN1216    -0.2130
      9  C1'       35.2760   29.7740   11.8360 C.3   1216  ADN1216     0.3186
     10  N9        35.7290   30.0980   13.1880 N.pl3 1216  ADN1216    -0.1439
     11  C8        34.8750   30.3550   14.2440 C.3   1216  ADN1216     0.3377
     12  N7        35.4980   30.5840   15.3780 N.2   1216  ADN1216    -0.2095
     13  C5        36.8420   30.4480   15.0470 C.2   1216  ADN1216     0.2526
     14  C6        38.0170   30.5520   15.8200 C.2   1216  ADN1216     0.4393
     15  N6        37.9890   30.8350   17.1320 N.pl3 1216  ADN1216     0.2180
     16  N1        39.2190   30.3600   15.2150 N.2   1216  ADN1216     0.0021
     17  C2        39.2360   30.0850   13.8980 C.3   1216  ADN1216     0.5254
     18  N3        38.1910   29.9490   13.0750 N.2   1216  ADN1216    -0.0055
     19  C4        37.0040   30.1440   13.7050 C.2   1216  ADN1216     0.3518
@<TRIPOS>BOND
     1     6     5    1
     2     8     7    1
     3     5     7    1
     4     5     3    1
     5     7     9    1
     6     3     4    1
     7     3     2    1
     8     9     4    1
     9     9    10    1
    10     2     1    1
    11    18    19    2
    12    18    17    1
    13    10    19    1
    14    10    11    1
    15    19    13    1
    16    17    16    1
    17    11    12    1
    18    13    12    2
    19    13    14    1
    20    16    14    2
    21    14    15    1
