@<TRIPOS>MOLECULE
2ace_ACH_A_1.pdb
 10 9 0 0 0
SMALL
GASTEIGER

@<TRIPOS>ATOM
      1  N1         4.9050   68.0610   63.9350 N.4   998  ACH998      0.3874
      2  C2         5.4980   66.7180   63.5650 C.3   998  ACH998     -0.0406
      3  C3         5.1900   66.0260   62.2220 C.3   998  ACH998      0.1228
      4  O4         5.6040   64.6490   62.2910 O.3   998  ACH998     -0.3307
      5  C5         5.6430   63.6640   61.2490 C.3   998  ACH998      0.2690
      6  O7         4.4510   63.6450   60.5360 O.3   998  ACH998     -0.1899
      7  C6         5.8310   62.3300   61.9780 C.3   998  ACH998      0.0696
      8  C8         5.3560   68.4070   65.3280 C.3   998  ACH998     -0.0959
      9  C9         5.3860   69.1590   63.0390 C.3   998  ACH998     -0.0959
     10  C10        3.3990   68.0070   63.9050 C.3   998  ACH998     -0.0959
@<TRIPOS>BOND
     1     6     5    1
     2     5     7    1
     3     5     4    1
     4     3     4    1
     5     3     2    1
     6     9     1    1
     7     2     1    1
     8    10     1    1
     9     1     8    1
