@<TRIPOS>MOLECULE
2ack_EDR_A_1.pdb
 12 12 0 0 0
SMALL
GASTEIGER

@<TRIPOS>ATOM
      1  C1         3.1720   66.2200   64.2330 C.ar  999  EDR999      0.0134
      2  C2         4.0770   66.8670   63.4140 C.ar  999  EDR999      0.0375
      3  C3         5.0360   66.0790   62.7640 C.ar  999  EDR999      0.0552
      4  C4         5.0650   64.7010   62.9540 C.ar  999  EDR999      0.1969
      5  C5         4.1630   64.0750   63.8130 C.ar  999  EDR999      0.0421
      6  C6         3.1950   64.8390   64.4540 C.ar  999  EDR999      0.0045
      7  O4         6.0280   63.9370   62.3740 O.3   999  EDR999     -0.2865
      8  N2         4.0930   68.3280   63.1220 N.pl3 999  EDR999     -0.3524
      9  C7         4.7710   68.6450   61.7580 C.3   999  EDR999      0.0959
     10  C8         2.6100   68.7950   63.0170 C.3   999  EDR999      0.0959
     11  C9         4.8490   69.0800   64.2330 C.3   999  EDR999      0.0757
     12  C10        6.4090   69.0100   64.2590 C.3   999  EDR999      0.0217
@<TRIPOS>BOND
     1     9     8    1
     2     7     4    1
     3     3     4   ar
     4     3     2   ar
     5     4     5   ar
     6    10     8    1
     7     8     2    1
     8     8    11    1
     9     2     1   ar
    10     5     6   ar
    11     1     6   ar
    12    11    12    1
