@<TRIPOS>MOLECULE
2acl_L05_B_1.pdb
 29 32 0 0 0
SMALL
GASTEIGER

@<TRIPOS>ATOM
      1  C1        39.0670   79.9640   92.5460 C.3   101  L05101      0.2525
      2  O2        39.6520   80.2210   91.2600 O.3   101  L05101     -0.4714
      3  C3        40.3930   79.1850   90.6960 C.ar  101  L05101      0.1388
      4  C4        41.7360   79.0740   91.1670 C.ar  101  L05101      0.0382
      5  C5        42.5820   78.0610   90.6650 C.ar  101  L05101      0.0196
      6  C6        42.1110   77.1280   89.6780 C.ar  101  L05101      0.0709
      7  N7        42.9070   76.0830   89.1320 N.pl3 101  L05101     -0.2077
      8  C8        43.9730   75.3360   89.6540 C.2   101  L05101      0.1286
      9  C9        44.1390   74.7710   90.8810 C.2   101  L05101      0.0737
     10  C10       45.4560   74.0900   90.9020 C.2   101  L05101      0.2567
     11  O11       45.9100   73.4850   91.8510 O.2   101  L05101     -0.2694
     12  N12       46.0280   74.2740   89.6820 N.am  101  L05101     -0.2174
     13  C13       47.3480   73.7520   89.3030 C.3   101  L05101      0.1281
     14  C14       47.3480   72.3500   88.7140 C.ar  101  L05101     -0.0019
     15  C15       48.2590   71.3570   89.2140 C.ar  101  L05101     -0.0026
     16  C16       48.2810   70.0400   88.6750 C.ar  101  L05101     -0.0003
     17  C17       47.3920   69.6920   87.6260 C.ar  101  L05101     -0.0000
     18  C18       46.4780   70.6610   87.1120 C.ar  101  L05101     -0.0003
     19  C19       46.4570   71.9800   87.6510 C.ar  101  L05101     -0.0026
     20  C20       45.2190   75.0090   88.8670 C.2   101  L05101      0.2707
     21  O21       45.4580   75.3380   87.7170 O.2   101  L05101     -0.2681
     22  C22       43.2020   74.8110   92.0140 C.ar  101  L05101      0.0058
     23  C23       41.8310   74.4270   91.8490 C.ar  101  L05101      0.0002
     24  C24       40.9420   74.4760   92.9470 C.ar  101  L05101      0.0000
     25  C25       41.4040   74.9050   94.2230 C.ar  101  L05101      0.0000
     26  C26       42.7510   75.2870   94.4010 C.ar  101  L05101      0.0000
     27  C27       43.6490   75.2440   93.3040 C.ar  101  L05101      0.0002
     28  C28       40.7720   77.2510   89.2200 C.ar  101  L05101      0.0196
     29  C29       39.9110   78.2680   89.7170 C.ar  101  L05101      0.0382
@<TRIPOS>BOND
     1    18    17   ar
     2    18    19   ar
     3    17    16   ar
     4    19    14   ar
     5    21    20    2
     6    16    15   ar
     7    14    15   ar
     8    14    13    1
     9    20     8    1
    10    20    12   am
    11     7     8    1
    12     7     6    1
    13    28     6   ar
    14    28    29   ar
    15    13    12    1
    16     8     9    2
    17     6     5   ar
    18    12    10   am
    19    29     3   ar
    20     5     4   ar
    21     3     4   ar
    22     3     2    1
    23     9    10    1
    24     9    22    1
    25    10    11    2
    26     2     1    1
    27    23    22   ar
    28    23    24   ar
    29    22    27   ar
    30    24    25   ar
    31    27    26   ar
    32    25    26   ar
