@<TRIPOS>MOLECULE
2acl_REA_A_1.pdb
 22 22 0 0 0
SMALL
GASTEIGER

@<TRIPOS>ATOM
      1  C1        61.5170   65.2820  113.6760 C.3   502  REA502      0.0183
      2  C2        62.8660   66.0640  113.4520 C.3   502  REA502      0.0044
      3  C3        63.3000   67.0380  114.5180 C.3   502  REA502      0.0047
      4  C4        62.2000   67.9810  114.9200 C.3   502  REA502      0.0217
      5  C5        60.9060   67.2390  115.3200 C.2   502  REA502     -0.0479
      6  C6        60.5730   65.9990  114.7730 C.2   502  REA502     -0.0307
      7  C7        59.3410   65.2110  115.1160 C.2   502  REA502     -0.0052
      8  C8        58.8880   64.8140  116.3190 C.2   502  REA502     -0.0046
      9  C9        57.6720   64.0520  116.6140 C.2   502  REA502     -0.0219
     10  C10       57.3680   63.7600  117.9270 C.2   502  REA502     -0.0043
     11  C11       58.1660   64.1240  119.1020 C.2   502  REA502     -0.0006
     12  C12       57.7020   63.8240  120.3290 C.2   502  REA502     -0.0041
     13  C13       58.3950   64.1520  121.5740 C.2   502  REA502     -0.0153
     14  C14       57.7640   63.8310  122.7450 C.2   502  REA502      0.0819
     15  C15       58.1560   64.0650  124.1650 C.2   502  REA502      0.3876
     16  C16       61.9020   63.8510  114.1070 C.3   502  REA502      0.0043
     17  C17       60.7570   65.2230  112.3140 C.3   502  REA502      0.0043
     18  C18       60.1300   68.0730  116.3560 C.3   502  REA502      0.0260
     19  C19       56.7330   63.6060  115.4680 C.3   502  REA502      0.0310
     20  C20       59.7650   64.8710  121.5170 C.3   502  REA502      0.0312
     21  O1        57.2330   64.1950  125.0150 O.co2 502  REA502     -0.2406
     22  O2        59.3680   64.1680  124.4950 O.co2 502  REA502     -0.2406
@<TRIPOS>BOND
     1    17     1    1
     2     2     1    1
     3     2     3    1
     4     1    16    1
     5     1     6    1
     6     3     4    1
     7     6     7    1
     8     6     5    2
     9     4     5    1
    10     7     8    2
    11     5    18    1
    12    19     9    1
    13     8     9    1
    14     9    10    2
    15    10    11    1
    16    11    12    2
    17    12    13    1
    18    20    13    1
    19    13    14    2
    20    14    15    1
    21    15    22   ar
    22    15    21   ar
