@<TRIPOS>MOLECULE
2aco_VCA_B_1.pdb
 20 19 0 0 0
SMALL
GASTEIGER

@<TRIPOS>ATOM
      1  O2        13.5390   27.5580   21.2650 O.co2 501  VCA501     -0.2457
      2  C1        13.1440   28.0900   20.2040 C.2   501  VCA501      0.3649
      3  O1        13.3830   27.6180   19.0710 O.co2 501  VCA501     -0.2457
      4  C2        12.3350   29.3640   20.3070 C.3   501  VCA501      0.1141
      5  C3        12.9860   30.5390   19.5720 C.3   501  VCA501      0.0118
      6  C4        14.4430   30.7910   19.9350 C.3   501  VCA501      0.0006
      7  C5        14.8180   32.2780   19.8570 C.3   501  VCA501      0.0000
      8  C6        16.0510   32.5410   18.9890 C.3   501  VCA501      0.0000
      9  C7        16.6140   33.9340   19.2650 C.3   501  VCA501      0.0000
     10  C8        17.9050   34.1810   18.4910 C.3   501  VCA501      0.0000
     11  C9        18.6810   35.3830   19.0260 C.3   501  VCA501      0.0000
     12  C10       19.5410   35.9860   17.9260 C.3   501  VCA501      0.0003
     13  C11       20.7690   36.7700   18.4120 C.3   501  VCA501      0.0047
     14  C12       20.4900   38.2000   18.8680 C.3   501  VCA501      0.0257
     15  C13       19.8440   39.1330   17.8520 C.2   501  VCA501     -0.0307
     16  C14       18.8210   39.9580   18.1650 C.2   501  VCA501     -0.0307
     17  C15       18.2190   39.9430   19.5520 C.3   501  VCA501      0.0257
     18  C16       17.2780   41.0930   19.8200 C.3   501  VCA501      0.0047
     19  C17       16.9520   41.2000   21.3110 C.3   501  VCA501      0.0003
     20  C18       15.4750   41.1550   21.5980 C.3   501  VCA501      0.0000
@<TRIPOS>BOND
     1    15    16    2
     2    15    14    1
     3    12    13    1
     4    12    11    1
     5    16    17    1
     6    13    14    1
     7    10    11    1
     8    10     9    1
     9     8     9    1
    10     8     7    1
    11     3     2   ar
    12    17    18    1
    13     5     6    1
    14     5     4    1
    15    18    19    1
    16     7     6    1
    17     2     4    1
    18     2     1   ar
    19    19    20    1
