@<TRIPOS>MOLECULE
2acp_HEM_X_1.pdb
 43 50 0 0 0
SMALL
GASTEIGER

@<TRIPOS>ATOM
      1 FE         22.2140   78.6310   27.2860 Fe    201  HEM201      0.0000
      2  CHA       24.7750   76.4660   27.7000 C.2   201  HEM201      0.0000
      3  CHB       22.8490   79.9680   30.3620 C.2   201  HEM201      0.0000
      4  CHC       19.9020   81.0470   26.7190 C.2   201  HEM201      0.0000
      5  CHD       20.9410   76.7550   24.7260 C.2   201  HEM201      0.0000
      6  NA        23.5430   78.2590   28.8090 N.2   201  HEM201      0.0000
      7  C1A       24.5170   77.2870   28.7600 C.2   201  HEM201      0.0000
      8  C2A       25.2400   77.3060   29.9840 C.2   201  HEM201      0.0000
      9  C3A       24.6920   78.2690   30.7400 C.2   201  HEM201      0.0000
     10  C4A       23.6320   78.9010   29.9790 C.2   201  HEM201      0.0000
     11  CMA       25.1070   78.6990   32.1690 C.3   201  HEM201      0.0000
     12  CAA       26.4350   76.3560   30.2950 C.3   201  HEM201      0.0000
     13  CBA       26.0150   75.0180   30.8660 C.3   201  HEM201      0.0000
     14  CGA       27.2800   74.2220   31.0660 C.2   201  HEM201      0.0000
     15  O1A       27.3450   73.0220   30.7280 O.co2 201  HEM201      0.0000
     16  O2A       28.2700   74.8240   31.5500 O.co2 201  HEM201      0.0000
     17  NB        21.5130   80.2550   28.3450 N.ar  201  HEM201      0.0000
     18  C1B       21.9770   80.6720   29.5740 C.ar  201  HEM201      0.0000
     19  C2B       21.4450   81.9770   29.7890 C.ar  201  HEM201      0.0000
     20  C3B       20.6320   82.2860   28.8010 C.ar  201  HEM201      0.0000
     21  C4B       20.6740   81.2040   27.8590 C.ar  201  HEM201      0.0000
     22  CMB       21.6300   82.7430   31.0950 C.3   201  HEM201      0.0000
     23  CAB       19.7950   83.5480   28.6070 C.2   201  HEM201      0.0000
     24  CBB       20.3160   84.7570   28.8310 C.2   201  HEM201      0.0000
     25  NC        20.6770   78.8060   25.9770 N.2   201  HEM201      0.0000
     26  C1C       19.8180   79.8950   25.9150 C.2   201  HEM201      0.0000
     27  C2C       19.0170   79.7440   24.7460 C.2   201  HEM201      0.0000
     28  C3C       19.2800   78.5420   24.2070 C.2   201  HEM201      0.0000
     29  C4C       20.2800   77.9110   25.0140 C.2   201  HEM201      0.0000
     30  CMC       17.9060   80.7390   24.3330 C.3   201  HEM201      0.0000
     31  CAC       18.6140   77.8090   23.0470 C.2   201  HEM201      0.0000
     32  CBC       17.8050   78.3810   22.1560 C.2   201  HEM201      0.0000
     33  ND        22.7720   76.8630   26.3800 N.ar  201  HEM201      0.0000
     34  C1D       22.1330   76.3550   25.2520 C.ar  201  HEM201      0.0000
     35  C2D       22.9930   75.2990   24.7390 C.ar  201  HEM201      0.0000
     36  C3D       24.2010   75.2190   25.6110 C.ar  201  HEM201      0.0000
     37  C4D       23.9790   76.2030   26.6310 C.ar  201  HEM201      0.0000
     38  CMD       22.7570   74.4790   23.4800 C.3   201  HEM201      0.0000
     39  CAD       25.4540   74.2840   25.4220 C.3   201  HEM201      0.0000
     40  CBD       25.4960   73.1350   26.3730 C.3   201  HEM201      0.0000
     41  CGD       26.8270   72.4630   26.0180 C.2   201  HEM201      0.0000
     42  O1D       27.8630   73.1540   25.7890 O.co2 201  HEM201      0.0000
     43  O2D       26.8430   71.2200   25.9450 O.co2 201  HEM201      0.0000
@<TRIPOS>BOND
     1    32    31    2
     2    31    28    1
     3    38    35    1
     4    28    27    2
     5    28    29    1
     6    30    27    1
     7     5    29    1
     8     5    34    2
     9    35    34   ar
    10    35    36   ar
    11    27    26    1
    12    29    25    2
    13    34    33   ar
    14    39    36    1
    15    39    40    1
    16    36    37   ar
    17    42    41   ar
    18    26    25    1
    19    26     4    2
    20    43    41   ar
    21    25     1    1
    22    41    40    1
    23    33    37   ar
    24    33     1    1
    25    37     2    2
    26     4    21    1
    27     1    17    1
    28     1     6    1
    29     2     7    1
    30    21    17   ar
    31    21    20   ar
    32    17    18   ar
    33    23    20    1
    34    23    24    2
    35     7     6    2
    36     7     8    1
    37    20    19   ar
    38     6    10    1
    39    18    19   ar
    40    18     3    1
    41    19    22    1
    42    10     3    2
    43    10     9    1
    44     8    12    1
    45     8     9    2
    46    12    13    1
    47    15    14   ar
    48     9    11    1
    49    13    14    1
    50    14    16   ar
