@<TRIPOS>MOLECULE
2acq_G6P_A_1.pdb
 16 16 0 0 0
SMALL
GASTEIGER

@<TRIPOS>ATOM
      1  C1        19.1390   24.4940   59.9630 C.3   317  G6P317      0.3024
      2  C2        19.0350   23.0100   59.4010 C.3   317  G6P317      0.2434
      3  C3        17.9160   22.2230   60.2640 C.3   317  G6P317      0.2199
      4  C4        16.5920   23.0900   60.4740 C.3   317  G6P317      0.2143
      5  C5        16.6120   24.6520   59.9170 C.3   317  G6P317      0.1808
      6  C6        15.6910   25.7550   60.7030 C.3   317  G6P317      0.1859
      7  O1        19.3380   24.6000   61.3930 O.3   317  G6P317     -0.1869
      8  O2        18.9570   23.0270   57.9570 O.3   317  G6P317     -0.2148
      9  O3        18.4410   21.7560   61.5710 O.3   317  G6P317     -0.2174
     10  O4        15.5450   22.2980   59.9550 O.3   317  G6P317     -0.2176
     11  O5        17.9440   25.2120   59.5850 O.3   317  G6P317     -0.3237
     12  O6        16.3240   26.7430   61.6110 O.3   317  G6P317     -0.2675
     13  P         16.8340   26.4030   63.1430 P.3   317  G6P317      0.5327
     14  O1P       15.9800   27.2530   64.1560 O.3   317  G6P317     -0.1145
     15  O2P       18.4400   26.5950   63.2030 O.2   317  G6P317     -0.2224
     16  O3P       16.4470   24.8700   63.2120 O.3   317  G6P317     -0.1145
@<TRIPOS>BOND
     1     8     2    1
     2     2     1    1
     3     2     3    1
     4    11     5    1
     5    11     1    1
     6     5     4    1
     7     5     6    1
     8    10     4    1
     9     1     7    1
    10     3     4    1
    11     3     9    1
    12     6    12    1
    13    12    13    1
    14    13    15    2
    15    13    16    1
    16    13    14    1
