@<TRIPOS>MOLECULE
2acq_NAP_A_1.pdb
 48 52 0 0 0
SMALL
GASTEIGER

@<TRIPOS>ATOM
      1  PA        23.5240   28.2560   71.8110 P.3   316  NAP316      0.2189
      2  O1A       24.3970   29.3120   71.2610 O.2   316  NAP316     -0.5170
      3  O2A       22.6270   28.6180   72.8710 O.3   316  NAP316     -0.4371
      4  O5B       24.4490   27.0470   72.3770 O.3   316  NAP316     -0.3112
      5  C5B       23.9080   25.8730   72.9650 C.3   316  NAP316      0.1813
      6  C4B       25.0670   24.9970   73.3090 C.3   316  NAP316      0.1820
      7  O4B       25.8170   25.6540   74.3600 O.3   316  NAP316     -0.3136
      8  C3B       24.5670   23.6730   73.8050 C.3   316  NAP316      0.2157
      9  O3B       25.4510   22.6380   73.3730 O.3   316  NAP316     -0.2175
     10  C2B       24.7260   23.7920   75.3030 C.3   316  NAP316      0.2314
     11  O2B       25.0250   22.5230   75.9250 O.3   316  NAP316     -0.2630
     12  C1B       25.9060   24.7230   75.4340 C.3   316  NAP316      0.3158
     13  N9A       25.8340   25.5340   76.6490 N.pl3 316  NAP316     -0.1439
     14  C8A       24.7870   26.2410   77.1400 C.3   316  NAP316      0.3377
     15  N7A       25.1490   26.8860   78.2590 N.2   316  NAP316     -0.2095
     16  C5A       26.4490   26.5690   78.4070 C.2   316  NAP316      0.2526
     17  C6A       27.2720   26.9590   79.4680 C.2   316  NAP316      0.4393
     18  N6A       26.8140   27.5830   80.5430 N.pl3 316  NAP316      0.2180
     19  N1A       28.5260   26.4600   79.4300 N.2   316  NAP316      0.0021
     20  C2A       28.9480   25.6600   78.4330 C.3   316  NAP316      0.5254
     21  N3A       28.1520   25.2720   77.4320 N.2   316  NAP316     -0.0055
     22  C4A       26.8890   25.7180   77.4210 C.2   316  NAP316      0.3518
     23  O3        22.8530   27.4600   70.6110 O.3   316  NAP316     -0.2703
     24  PN        21.5220   27.3720   69.7000 P.3   316  NAP316      0.2189
     25  O1N       20.7220   26.2190   70.1780 O.3   316  NAP316     -0.4371
     26  O2N       22.0490   27.3830   68.3230 O.2   316  NAP316     -0.5170
     27  O5D       20.8180   28.8140   69.8880 O.3   316  NAP316     -0.3112
     28  C5D       19.9850   29.1010   71.0510 C.3   316  NAP316      0.1813
     29  C4D       18.4890   29.0450   70.6770 C.3   316  NAP316      0.1799
     30  O4D       18.2530   30.0380   69.6480 O.3   316  NAP316     -0.3327
     31  C3D       18.0720   27.7620   69.9430 C.3   316  NAP316      0.2158
     32  O3D       17.9380   26.5920   70.7500 O.3   316  NAP316     -0.2175
     33  C2D       16.7790   28.1910   69.2810 C.3   316  NAP316      0.2309
     34  O2D       15.8240   28.1840   70.3210 O.3   316  NAP316     -0.2158
     35  C1D       17.1750   29.5910   68.8000 C.3   316  NAP316      0.2263
     36  N1N       17.6270   29.5710   67.3890 N.pl3 316  NAP316     -0.2787
     37  C2N       16.7730   30.0570   66.4020 C.3   316  NAP316      0.1244
     38  C3N       17.1730   29.9790   65.0640 C.2   316  NAP316      0.0544
     39  C7N       16.2790   30.6300   63.9700 C.2   316  NAP316      0.2818
     40  O7N       16.3710   30.3130   62.7830 O.2   316  NAP316     -0.2670
     41  N7N       15.3580   31.5100   64.3800 N.am  316  NAP316     -0.0839
     42  C4N       18.3980   29.3830   64.7200 C.2   316  NAP316      0.0033
     43  C5N       19.3040   28.9170   65.6790 C.2   316  NAP316      0.0157
     44  C6N       18.8940   29.0330   67.0030 C.2   316  NAP316      0.0633
     45  P2B       23.9440   21.7280   76.7900 P.3   316  NAP316      0.5328
     46  O1X       22.6340   22.0190   76.1460 O.2   316  NAP316     -0.2224
     47  O2X       24.4380   20.3440   76.7050 O.3   316  NAP316     -0.1145
     48  O3X       24.0690   22.2900   78.1310 O.3   316  NAP316     -0.1145
@<TRIPOS>BOND
     1    40    39    2
     2    39    41   am
     3    39    38    1
     4    42    38    2
     5    42    43    1
     6    38    37    1
     7    43    44    2
     8    37    36    1
     9    44    36    1
    10    36    35    1
    11    26    24    2
    12    35    33    1
    13    35    30    1
    14    33    31    1
    15    33    34    1
    16    30    29    1
    17    24    27    1
    18    24    25    1
    19    24    23    1
    20    27    28    1
    21    31    29    1
    22    31    32    1
    23    23     1    1
    24    29    28    1
    25     2     1    2
    26     1     4    1
    27     1     3    1
    28     4     5    1
    29     5     6    1
    30     6     8    1
    31     6     7    1
    32     9     8    1
    33     8    10    1
    34     7    12    1
    35    10    12    1
    36    10    11    1
    37    12    13    1
    38    11    45    1
    39    46    45    2
    40    13    14    1
    41    13    22    1
    42    47    45    1
    43    45    48    1
    44    14    15    1
    45    22    21    2
    46    22    16    1
    47    21    20    1
    48    15    16    2
    49    16    17    1
    50    20    19    1
    51    19    17    2
    52    17    18    1
