@<TRIPOS>MOLECULE
2acr_NAP_A_1.pdb
 48 52 0 0 0
SMALL
GASTEIGER

@<TRIPOS>ATOM
      1  PA        23.6430   28.2940   72.5100 P.3   316  NAP316      0.2189
      2  O1A       24.5060   29.2940   71.8710 O.2   316  NAP316     -0.5170
      3  O2A       22.5930   28.6990   73.4280 O.3   316  NAP316     -0.4371
      4  O5B       24.5530   27.0650   73.0420 O.3   316  NAP316     -0.3112
      5  C5B       23.9310   25.8680   73.5190 C.3   316  NAP316      0.1813
      6  C4B       25.1150   24.9730   73.8230 C.3   316  NAP316      0.1820
      7  O4B       25.9170   25.6590   74.8160 O.3   316  NAP316     -0.3136
      8  C3B       24.6100   23.6700   74.4380 C.3   316  NAP316      0.2157
      9  O3B       25.5340   22.6350   74.1380 O.3   316  NAP316     -0.2175
     10  C2B       24.7530   23.8690   75.9320 C.3   316  NAP316      0.2314
     11  O2B       25.0510   22.6380   76.6520 O.3   316  NAP316     -0.2630
     12  C1B       25.9180   24.8600   76.0240 C.3   316  NAP316      0.3158
     13  N9A       25.8430   25.6450   77.2860 N.pl3 316  NAP316     -0.1439
     14  C8A       24.7730   26.2840   77.8390 C.3   316  NAP316      0.3377
     15  N7A       25.1170   26.8570   79.0040 N.2   316  NAP316     -0.2095
     16  C5A       26.4320   26.6030   79.0990 C.2   316  NAP316      0.2526
     17  C6A       27.2910   27.0490   80.0930 C.2   316  NAP316      0.4393
     18  N6A       26.9140   27.8400   81.0830 N.pl3 316  NAP316      0.2180
     19  N1A       28.5620   26.6070   80.0640 N.2   316  NAP316      0.0021
     20  C2A       28.9740   25.7800   79.1030 C.3   316  NAP316      0.5254
     21  N3A       28.1560   25.3890   78.1390 N.2   316  NAP316     -0.0055
     22  C4A       26.8870   25.8050   78.0870 C.2   316  NAP316      0.3518
     23  O3        22.9820   27.5940   71.2410 O.3   316  NAP316     -0.2703
     24  PN        21.6490   27.5420   70.3480 P.3   316  NAP316      0.2189
     25  O1N       20.7980   26.4710   70.9000 O.3   316  NAP316     -0.4371
     26  O2N       22.1530   27.4760   68.9740 O.2   316  NAP316     -0.5170
     27  O5D       20.9090   28.9890   70.5130 O.3   316  NAP316     -0.3112
     28  C5D       20.0020   29.2270   71.6090 C.3   316  NAP316      0.1813
     29  C4D       18.5290   29.1140   71.2290 C.3   316  NAP316      0.1799
     30  O4D       18.2410   30.1160   70.2690 O.3   316  NAP316     -0.3327
     31  C3D       18.0720   27.8080   70.5760 C.3   316  NAP316      0.2158
     32  O3D       17.8660   26.7150   71.4540 O.3   316  NAP316     -0.2175
     33  C2D       16.7800   28.2610   69.9510 C.3   316  NAP316      0.2309
     34  O2D       15.8480   28.2150   71.0160 O.3   316  NAP316     -0.2158
     35  C1D       17.1710   29.6660   69.4790 C.3   316  NAP316      0.2263
     36  N1N       17.6410   29.6930   68.0770 N.pl3 316  NAP316     -0.2787
     37  C2N       16.7790   30.1230   67.0680 C.3   316  NAP316      0.1244
     38  C3N       17.1490   29.9980   65.7470 C.2   316  NAP316      0.0544
     39  C7N       16.2870   30.5890   64.6670 C.2   316  NAP316      0.2818
     40  O7N       16.5160   30.3040   63.4990 O.2   316  NAP316     -0.2670
     41  N7N       15.3140   31.4110   65.0700 N.am  316  NAP316     -0.0839
     42  C4N       18.3320   29.3830   65.3710 C.2   316  NAP316      0.0033
     43  C5N       19.2040   28.9120   66.3500 C.2   316  NAP316      0.0157
     44  C6N       18.8640   29.1160   67.6780 C.2   316  NAP316      0.0633
     45  P2B       24.0080   21.7500   77.4840 P.3   316  NAP316      0.5328
     46  O1X       22.6590   21.8400   76.8390 O.2   316  NAP316     -0.2224
     47  O2X       24.6090   20.3860   77.3360 O.3   316  NAP316     -0.1145
     48  O3X       24.0580   22.2130   78.8860 O.3   316  NAP316     -0.1145
@<TRIPOS>BOND
     1    40    39    2
     2    39    41   am
     3    39    38    1
     4    42    38    2
     5    42    43    1
     6    38    37    1
     7    43    44    2
     8    37    36    1
     9    44    36    1
    10    36    35    1
    11    26    24    2
    12    35    33    1
    13    35    30    1
    14    33    31    1
    15    33    34    1
    16    30    29    1
    17    24    27    1
    18    24    25    1
    19    24    23    1
    20    27    28    1
    21    31    29    1
    22    31    32    1
    23    29    28    1
    24    23     1    1
    25     2     1    2
    26     1     4    1
    27     1     3    1
    28     4     5    1
    29     5     6    1
    30     6     8    1
    31     6     7    1
    32     9     8    1
    33     8    10    1
    34     7    12    1
    35    10    12    1
    36    10    11    1
    37    12    13    1
    38    11    45    1
    39    46    45    2
    40    13    14    1
    41    13    22    1
    42    47    45    1
    43    45    48    1
    44    14    15    1
    45    22    21    2
    46    22    16    1
    47    21    20    1
    48    15    16    2
    49    16    17    1
    50    20    19    1
    51    19    17    2
    52    17    18    1
