@<TRIPOS>MOLECULE
2acs_NAP_A_1.pdb
 48 52 0 0 0
SMALL
GASTEIGER

@<TRIPOS>ATOM
      1  PA        23.5100   28.2750   72.4700 P.3   316  NAP316      0.2189
      2  O1A       24.3800   29.2370   71.8030 O.2   316  NAP316     -0.5170
      3  O2A       22.5050   28.7170   73.4150 O.3   316  NAP316     -0.4371
      4  O5B       24.3900   27.0620   73.1000 O.3   316  NAP316     -0.3112
      5  C5B       23.8300   25.7740   73.3740 C.3   316  NAP316      0.1813
      6  C4B       24.9970   24.9590   73.8490 C.3   316  NAP316      0.1820
      7  O4B       25.7840   25.6160   74.8430 O.3   316  NAP316     -0.3136
      8  C3B       24.5630   23.6860   74.4500 C.3   316  NAP316      0.2157
      9  O3B       25.4480   22.6770   74.0410 O.3   316  NAP316     -0.2175
     10  C2B       24.7050   23.8450   75.9240 C.3   316  NAP316      0.2314
     11  O2B       24.9890   22.5990   76.5890 O.3   316  NAP316     -0.2630
     12  C1B       25.8670   24.7850   76.0040 C.3   316  NAP316      0.3158
     13  N9A       25.7960   25.5990   77.2450 N.pl3 316  NAP316     -0.1439
     14  C8A       24.7190   26.2180   77.8060 C.3   316  NAP316      0.3377
     15  N7A       25.0470   26.8710   78.9280 N.2   316  NAP316     -0.2095
     16  C5A       26.3680   26.6430   79.0290 C.2   316  NAP316      0.2526
     17  C6A       27.2170   27.0670   80.0660 C.2   316  NAP316      0.4393
     18  N6A       26.7810   27.7890   81.0850 N.pl3 316  NAP316      0.2180
     19  N1A       28.5120   26.6540   80.0400 N.2   316  NAP316      0.0021
     20  C2A       28.9610   25.8460   79.0580 C.3   316  NAP316      0.5254
     21  N3A       28.1400   25.4500   78.0670 N.2   316  NAP316     -0.0055
     22  C4A       26.8520   25.8360   78.0170 C.2   316  NAP316      0.3518
     23  O3        22.7820   27.5210   71.2460 O.3   316  NAP316     -0.2703
     24  PN        21.4860   27.5140   70.2430 P.3   316  NAP316      0.2189
     25  O1N       20.7200   26.3500   70.7940 O.3   316  NAP316     -0.4371
     26  O2N       21.9830   27.5380   68.8370 O.2   316  NAP316     -0.5170
     27  O5D       20.6930   28.9160   70.4360 O.3   316  NAP316     -0.3112
     28  C5D       19.9390   29.1470   71.6530 C.3   316  NAP316      0.1813
     29  C4D       18.4420   29.0590   71.2910 C.3   316  NAP316      0.1799
     30  O4D       18.2450   30.0100   70.2610 O.3   316  NAP316     -0.3327
     31  C3D       18.0330   27.7720   70.6010 C.3   316  NAP316      0.2158
     32  O3D       17.8650   26.6180   71.4210 O.3   316  NAP316     -0.2175
     33  C2D       16.7550   28.2080   69.9390 C.3   316  NAP316      0.2309
     34  O2D       15.7880   28.2040   70.9540 O.3   316  NAP316     -0.2158
     35  C1D       17.1440   29.5890   69.4640 C.3   316  NAP316      0.2263
     36  N1N       17.5640   29.5230   68.0440 N.pl3 316  NAP316     -0.2787
     37  C2N       16.6920   30.0330   67.0840 C.3   316  NAP316      0.1244
     38  C3N       17.0240   29.9250   65.7390 C.2   316  NAP316      0.0544
     39  C7N       16.1700   30.5860   64.6720 C.2   316  NAP316      0.2818
     40  O7N       16.4180   30.3150   63.5030 O.2   316  NAP316     -0.2670
     41  N7N       15.1600   31.3730   65.0680 N.am  316  NAP316     -0.0839
     42  C4N       18.1880   29.2730   65.3450 C.2   316  NAP316      0.0033
     43  C5N       19.0780   28.7350   66.2910 C.2   316  NAP316      0.0157
     44  C6N       18.7430   28.8810   67.6260 C.2   316  NAP316      0.0633
     45  P2B       23.9230   21.7000   77.4020 P.3   316  NAP316      0.5328
     46  O1X       22.5480   21.8890   76.8210 O.2   316  NAP316     -0.2224
     47  O2X       24.5450   20.3650   77.2530 O.3   316  NAP316     -0.1145
     48  O3X       23.9850   22.1820   78.7730 O.3   316  NAP316     -0.1145
@<TRIPOS>BOND
     1    40    39    2
     2    39    41   am
     3    39    38    1
     4    42    38    2
     5    42    43    1
     6    38    37    1
     7    43    44    2
     8    37    36    1
     9    44    36    1
    10    36    35    1
    11    26    24    2
    12    35    33    1
    13    35    30    1
    14    33    31    1
    15    33    34    1
    16    24    27    1
    17    24    25    1
    18    24    23    1
    19    30    29    1
    20    27    28    1
    21    31    29    1
    22    31    32    1
    23    23     1    1
    24    29    28    1
    25     2     1    2
    26     1     4    1
    27     1     3    1
    28     4     5    1
    29     5     6    1
    30     6     8    1
    31     6     7    1
    32     9     8    1
    33     8    10    1
    34     7    12    1
    35    10    12    1
    36    10    11    1
    37    12    13    1
    38    11    45    1
    39    46    45    2
    40    13    14    1
    41    13    22    1
    42    47    45    1
    43    45    48    1
    44    14    15    1
    45    22    21    2
    46    22    16    1
    47    21    20    1
    48    15    16    2
    49    16    17    1
    50    20    19    1
    51    19    17    2
    52    17    18    1
