@<TRIPOS>MOLECULE
2acs_CIT_A_1.pdb
 13 12 0 0 0
SMALL
GASTEIGER

@<TRIPOS>ATOM
      1  C1        16.1850   23.1600   61.8310 C.2   317  CIT317      0.3680
      2  O1        16.0370   23.4210   60.6480 O.co2 317  CIT317     -0.2455
      3  O2        16.2490   21.8910   62.1300 O.co2 317  CIT317     -0.2455
      4  C2        16.1370   24.1620   63.0720 C.3   317  CIT317      0.1560
      5  C3        16.9290   25.6350   63.0640 C.3   317  CIT317      0.2402
      6  O7        18.3790   25.4410   63.0530 O.3   317  CIT317     -0.2129
      7  C4        16.5020   26.5500   61.8780 C.3   317  CIT317      0.1560
      8  C5        17.1650   26.0020   60.5730 C.2   317  CIT317      0.3680
      9  O3        18.4140   25.7590   60.4710 O.co2 317  CIT317     -0.2455
     10  O4        16.3940   25.9580   59.6180 O.co2 317  CIT317     -0.2455
     11  C6        16.5990   26.4110   64.3370 C.2   317  CIT317      0.3927
     12  O5        15.9130   27.3990   64.3540 O.co2 317  CIT317     -0.2429
     13  O6        16.9840   26.0170   65.4160 O.co2 317  CIT317     -0.2429
@<TRIPOS>BOND
     1    10     8   ar
     2     9     8   ar
     3     8     7    1
     4     2     1   ar
     5     1     3   ar
     6     1     4    1
     7     7     5    1
     8     6     5    1
     9     5     4    1
    10     5    11    1
    11    11    12   ar
    12    11    13   ar
