@<TRIPOS>MOLECULE
2acu_NAP_A_1.pdb
 48 52 0 0 0
SMALL
GASTEIGER

@<TRIPOS>ATOM
      1  PA        23.4700   28.2580   72.2820 P.3   316  NAP316      0.2189
      2  O1A       24.4280   29.2040   71.7030 O.2   316  NAP316     -0.5170
      3  O2A       22.4070   28.6940   73.1570 O.3   316  NAP316     -0.4371
      4  O5B       24.3630   27.0560   72.8620 O.3   316  NAP316     -0.3112
      5  C5B       23.6810   25.8750   73.3380 C.3   316  NAP316      0.1813
      6  C4B       24.8410   24.9820   73.7110 C.3   316  NAP316      0.1820
      7  O4B       25.6200   25.6720   74.7030 O.3   316  NAP316     -0.3136
      8  C3B       24.4050   23.6310   74.3230 C.3   316  NAP316      0.2157
      9  O3B       25.3680   22.6530   74.0030 O.3   316  NAP316     -0.2175
     10  C2B       24.5310   23.8410   75.8190 C.3   316  NAP316      0.2314
     11  O2B       24.8670   22.6380   76.5370 O.3   316  NAP316     -0.2630
     12  C1B       25.6670   24.8470   75.8780 C.3   316  NAP316      0.3158
     13  N9A       25.6330   25.6230   77.1760 N.pl3 316  NAP316     -0.1439
     14  C8A       24.5690   26.1700   77.8030 C.3   316  NAP316      0.3377
     15  N7A       24.9950   26.8230   78.8690 N.2   316  NAP316     -0.2095
     16  C5A       26.3230   26.6760   78.8530 C.2   316  NAP316      0.2526
     17  C6A       27.1960   27.0820   79.8470 C.2   316  NAP316      0.4393
     18  N6A       26.7780   27.8430   80.8540 N.pl3 316  NAP316      0.2180
     19  N1A       28.4790   26.6630   79.7720 N.2   316  NAP316      0.0021
     20  C2A       28.8610   25.9170   78.7260 C.3   316  NAP316      0.5254
     21  N3A       28.0170   25.5370   77.7830 N.2   316  NAP316     -0.0055
     22  C4A       26.7360   25.8910   77.8370 C.2   316  NAP316      0.3518
     23  O3        22.8280   27.5320   70.9760 O.3   316  NAP316     -0.2703
     24  PN        21.4690   27.4230   70.1490 P.3   316  NAP316      0.2189
     25  O1N       20.6920   26.3080   70.7160 O.3   316  NAP316     -0.4371
     26  O2N       21.9530   27.3600   68.7370 O.2   316  NAP316     -0.5170
     27  O5D       20.6320   28.8510   70.2720 O.3   316  NAP316     -0.3112
     28  C5D       19.8190   29.2010   71.4050 C.3   316  NAP316      0.1813
     29  C4D       18.3380   29.0820   71.0670 C.3   316  NAP316      0.1799
     30  O4D       18.1880   30.0100   69.9910 O.3   316  NAP316     -0.3327
     31  C3D       17.9290   27.7570   70.4600 C.3   316  NAP316      0.2158
     32  O3D       17.7390   26.6110   71.3220 O.3   316  NAP316     -0.2175
     33  C2D       16.6450   28.1960   69.8360 C.3   316  NAP316      0.2309
     34  O2D       15.6820   28.1260   70.8780 O.3   316  NAP316     -0.2158
     35  C1D       17.0560   29.5660   69.2740 C.3   316  NAP316      0.2263
     36  N1N       17.5160   29.4860   67.8530 N.pl3 316  NAP316     -0.2787
     37  C2N       16.6630   29.9510   66.8730 C.3   316  NAP316      0.1244
     38  C3N       17.0110   29.8550   65.5410 C.2   316  NAP316      0.0544
     39  C7N       16.1240   30.5920   64.5310 C.2   316  NAP316      0.2818
     40  O7N       16.2350   30.3820   63.3270 O.2   316  NAP316     -0.2670
     41  N7N       15.1430   31.3860   64.9780 N.am  316  NAP316     -0.0839
     42  C4N       18.1920   29.2070   65.1370 C.2   316  NAP316      0.0033
     43  C5N       19.0950   28.7330   66.0830 C.2   316  NAP316      0.0157
     44  C6N       18.7420   28.9210   67.4340 C.2   316  NAP316      0.0633
     45  P2B       23.7770   21.7360   77.2790 P.3   316  NAP316      0.5328
     46  O1X       22.4090   21.7830   76.7770 O.2   316  NAP316     -0.2224
     47  O2X       24.5900   20.5500   76.9930 O.3   316  NAP316     -0.1145
     48  O3X       23.8710   22.2460   78.6760 O.3   316  NAP316     -0.1145
@<TRIPOS>BOND
     1    40    39    2
     2    39    41   am
     3    39    38    1
     4    42    38    2
     5    42    43    1
     6    38    37    1
     7    43    44    2
     8    37    36    1
     9    44    36    1
    10    36    35    1
    11    26    24    2
    12    35    33    1
    13    35    30    1
    14    33    31    1
    15    33    34    1
    16    30    29    1
    17    24    27    1
    18    24    25    1
    19    24    23    1
    20    27    28    1
    21    31    29    1
    22    31    32    1
    23    23     1    1
    24    29    28    1
    25     2     1    2
    26     1     4    1
    27     1     3    1
    28     4     5    1
    29     5     6    1
    30     6     8    1
    31     6     7    1
    32     9     8    1
    33     8    10    1
    34     7    12    1
    35    10    12    1
    36    10    11    1
    37    12    13    1
    38    11    45    1
    39    46    45    2
    40    47    45    1
    41    13    14    1
    42    13    22    1
    43    45    48    1
    44    21    22    2
    45    21    20    1
    46    14    15    1
    47    22    16    1
    48    20    19    1
    49    16    15    2
    50    16    17    1
    51    19    17    2
    52    17    18    1
