@<TRIPOS>MOLECULE
2acv_UDP_A_1.pdb
 25 26 0 0 0
SMALL
GASTEIGER

@<TRIPOS>ATOM
      1  N1        33.6630   29.5000   34.9660 N.am  900  UDP900     -0.1766
      2  C2        34.2940   30.7450   35.0940 C.1   900  UDP900      0.2845
      3  N3        34.3310   31.6080   33.9920 N.2   900  UDP900     -0.2452
      4  C4        33.7430   31.2340   32.7770 C.1   900  UDP900      0.2182
      5  C5        33.1110   30.0000   32.6530 C.2   900  UDP900      0.1242
      6  C6        33.0740   29.1400   33.7450 C.2   900  UDP900      0.0929
      7  O2        34.8010   31.0890   36.1610 O.2   900  UDP900     -0.1918
      8  O4        33.7990   31.9960   31.8130 O.2   900  UDP900     -0.2085
      9  C1'       33.6470   28.5450   36.0980 C.3   900  UDP900      0.2401
     10  C2'       32.2560   28.4580   36.7270 C.3   900  UDP900      0.2319
     11  O2'       32.1520   29.4790   37.7230 O.3   900  UDP900     -0.2157
     12  C3'       32.3370   27.0840   37.3920 C.3   900  UDP900      0.2158
     13  C4'       33.1030   26.2850   36.3350 C.3   900  UDP900      0.1799
     14  O4'       33.9430   27.2180   35.6320 O.3   900  UDP900     -0.3320
     15  O3'       33.0800   27.1390   38.6130 O.3   900  UDP900     -0.2175
     16  C5'       32.1320   25.6430   35.3410 C.3   900  UDP900      0.1813
     17  O5'       31.6140   24.4300   35.8870 O.3   900  UDP900     -0.3111
     18  PA        30.1660   23.8580   35.4750 P.3   900  UDP900      0.2231
     19  O1A       30.0040   22.5220   36.0880 O.3   900  UDP900     -0.4370
     20  O2A       29.1500   24.8880   35.7860 O.2   900  UDP900     -0.5169
     21  O3A       30.2170   23.7250   33.8700 O.3   900  UDP900     -0.2261
     22  PB        31.3340   22.8970   33.0560 P.3   900  UDP900      0.5373
     23  O1B       32.0280   21.8760   33.8730 O.3   900  UDP900     -0.1143
     24  O2B       32.3290   23.9980   32.4330 O.3   900  UDP900     -0.1143
     25  O3B       30.5580   22.2630   31.7960 O.2   900  UDP900     -0.2221
@<TRIPOS>BOND
     1    25    22    2
     2     8     4    2
     3    24    22    1
     4     5     4    1
     5     5     6    2
     6     4     3    2
     7    22    21    1
     8    22    23    1
     9     6     1    1
    10    21    18    1
    11     3     2    2
    12     1     2   am
    13     1     9    1
    14     2     7    2
    15    16    17    1
    16    16    13    1
    17    18    20    2
    18    18    17    1
    19    18    19    1
    20    14     9    1
    21    14    13    1
    22     9    10    1
    23    13    12    1
    24    10    12    1
    25    10    11    1
    26    12    15    1
