@<TRIPOS>MOLECULE
2acw_UPG_A_1.pdb
 36 38 0 0 0
SMALL
GASTEIGER

@<TRIPOS>ATOM
      1  N1        33.6390   29.5470   35.0430 N.am  900  UPG900     -0.1766
      2  C2        34.2670   30.8440   35.2290 C.1   900  UPG900      0.2845
      3  N3        34.3230   31.6050   34.0710 N.2   900  UPG900     -0.2452
      4  C4        33.8630   31.2880   32.7870 C.1   900  UPG900      0.2182
      5  C5        33.2370   29.9480   32.6700 C.2   900  UPG900      0.1242
      6  C6        33.1530   29.1580   33.7680 C.2   900  UPG900      0.0929
      7  O2        34.7050   31.2300   36.3230 O.2   900  UPG900     -0.1918
      8  O4        33.9690   32.0570   31.8380 O.2   900  UPG900     -0.2085
      9  C1C       33.4990   28.6220   36.2160 C.3   900  UPG900      0.2401
     10  C2C       32.1780   28.7740   36.9790 C.3   900  UPG900      0.2319
     11  O2C       32.1490   29.7950   37.9580 O.3   900  UPG900     -0.2157
     12  C3C       31.9770   27.3500   37.4570 C.3   900  UPG900      0.2158
     13  C4C       32.6330   26.4330   36.4520 C.3   900  UPG900      0.1799
     14  O4C       33.5610   27.2760   35.7270 O.3   900  UPG900     -0.3320
     15  O3C       32.5860   27.2010   38.7530 O.3   900  UPG900     -0.2175
     16  C5C       31.7110   25.8090   35.3930 C.3   900  UPG900      0.1813
     17  O5C       31.2270   24.5890   35.9600 O.3   900  UPG900     -0.3112
     18  PA        29.9160   23.9490   35.4240 P.3   900  UPG900      0.2189
     19  O1A       29.6910   22.7480   36.1850 O.3   900  UPG900     -0.4371
     20  O2A       28.8560   24.9480   35.4240 O.2   900  UPG900     -0.5170
     21  O3A       30.2000   23.6180   33.8900 O.3   900  UPG900     -0.2703
     22  PB        31.1930   22.6560   33.0740 P.3   900  UPG900      0.2208
     23  O1B       32.3740   22.2650   33.8090 O.3   900  UPG900     -0.4371
     24  O2B       31.4480   23.3440   31.8110 O.2   900  UPG900     -0.5170
     25  O3B       30.3000   21.3340   32.8600 O.3   900  UPG900     -0.2857
     26  C1'       30.5530   19.9430   33.0760 C.3   900  UPG900      0.2742
     27  C2'       29.2600   19.2260   32.6250 C.3   900  UPG900      0.2409
     28  C3'       28.0550   19.6020   33.5450 C.3   900  UPG900      0.2198
     29  C4'       28.4370   19.1140   34.9500 C.3   900  UPG900      0.2144
     30  C5'       29.7170   19.8380   35.4020 C.3   900  UPG900      0.1835
     31  C6'       30.1920   19.3940   36.8010 C.3   900  UPG900      0.2142
     32  O2'       29.0000   19.6080   31.2850 O.3   900  UPG900     -0.2149
     33  O3'       26.8640   18.9390   33.1110 O.3   900  UPG900     -0.2174
     34  O4'       27.3930   19.4150   35.9000 O.3   900  UPG900     -0.2176
     35  O5'       30.8450   19.5900   34.4780 O.3   900  UPG900     -0.3254
     36  O6'       29.9590   17.9720   36.8600 O.3   900  UPG900     -0.2176
@<TRIPOS>BOND
     1    32    27    1
     2    24    22    2
     3     8     4    2
     4    27    26    1
     5    27    28    1
     6     5     4    1
     7     5     6    2
     8     4     3    2
     9    25    22    1
    10    25    26    1
    11    22    23    1
    12    22    21    1
    13    26    35    1
    14    33    28    1
    15    28    29    1
    16     6     1    1
    17    21    18    1
    18     3     2    2
    19    35    30    1
    20    29    30    1
    21    29    34    1
    22     1     2   am
    23     1     9    1
    24     2     7    2
    25    16    17    1
    26    16    13    1
    27    30    31    1
    28    20    18    2
    29    18    17    1
    30    18    19    1
    31    14     9    1
    32    14    13    1
    33     9    10    1
    34    13    12    1
    35    31    36    1
    36    10    12    1
    37    10    11    1
    38    12    15    1
