@<TRIPOS>MOLECULE
2acx_ANP_A_1.pdb
 31 33 0 0 0
SMALL
GASTEIGER

@<TRIPOS>ATOM
      1  PG       -34.1440   26.3090   21.1430 P.3   577  ANP577      0.4884
      2  O1G      -33.8720   25.0920   20.2620 O.2   577  ANP577     -0.2331
      3  O2G      -32.8700   26.8690   21.7750 O.3   577  ANP577     -0.1240
      4  O3G      -35.1070   27.2910   20.4690 O.3   577  ANP577     -0.1240
      5  PB       -34.0530   25.7110   24.0890 P.3   577  ANP577      0.4669
      6  O1B      -35.0670   25.2700   25.1330 O.3   577  ANP577     -0.1253
      7  O2B      -32.8980   24.7470   23.9230 O.2   577  ANP577     -0.2351
      8  N3B      -34.9520   25.7880   22.6040 N.3   577  ANP577     -0.0163
      9  PA       -31.9240   27.7380   24.7280 P.3   577  ANP577      0.2220
     10  O1A      -30.9090   26.6040   24.8960 O.3   577  ANP577     -0.4370
     11  O2A      -31.6260   28.8970   23.8570 O.2   577  ANP577     -0.5170
     12  O3A      -33.4390   27.2210   24.3990 O.3   577  ANP577     -0.2360
     13  O5'      -32.0500   28.5120   26.0860 O.3   577  ANP577     -0.3111
     14  C5'      -32.7910   29.7200   26.2420 C.3   577  ANP577      0.1813
     15  C4'      -31.9250   30.8130   26.8470 C.3   577  ANP577      0.1821
     16  O4'      -31.3890   30.4340   28.1320 O.3   577  ANP577     -0.3135
     17  C3'      -30.6950   31.1530   26.0250 C.3   577  ANP577      0.2184
     18  O3'      -30.8800   32.1080   25.0160 O.3   577  ANP577     -0.2174
     19  C2'      -29.8800   31.8570   27.0470 C.3   577  ANP577      0.2570
     20  O2'      -30.5300   33.0840   27.2430 O.3   577  ANP577     -0.2130
     21  C1'      -30.0920   31.0360   28.2810 C.3   577  ANP577      0.3186
     22  N9       -29.0600   29.9850   28.3660 N.pl3 577  ANP577     -0.1439
     23  C8       -29.1240   28.7440   27.8320 C.3   577  ANP577      0.3377
     24  N7       -28.0260   28.0720   28.1590 N.2   577  ANP577     -0.2095
     25  C5       -27.2580   28.8670   28.9300 C.2   577  ANP577      0.2526
     26  C6       -25.9990   28.7660   29.6370 C.2   577  ANP577      0.4393
     27  N6       -25.2610   27.6630   29.5440 N.pl3 577  ANP577      0.2180
     28  N1       -25.5320   29.8330   30.2850 N.2   577  ANP577      0.0021
     29  C2       -26.2010   30.9820   30.3800 C.3   577  ANP577      0.5254
     30  N3       -27.3840   31.1180   29.7870 N.2   577  ANP577     -0.0055
     31  C4       -27.9300   30.1330   29.0440 C.2   577  ANP577      0.3518
@<TRIPOS>BOND
     1     2     1    2
     2     4     1    1
     3     1     3    1
     4     1     8    1
     5     8     5    1
     6    11     9    2
     7     7     5    2
     8     5    12    1
     9     5     6    1
    10    12     9    1
    11     9    10    1
    12     9    13    1
    13    18    17    1
    14    17    15    1
    15    17    19    1
    16    13    14    1
    17    14    15    1
    18    15    16    1
    19    19    20    1
    20    19    21    1
    21    23    24    1
    22    23    22    1
    23    16    21    1
    24    24    25    2
    25    21    22    1
    26    22    31    1
    27    25    31    1
    28    25    26    1
    29    31    30    2
    30    27    26    1
    31    26    28    2
    32    30    29    1
    33    28    29    1
