@<TRIPOS>MOLECULE
2acz_AT5_C_1.pdb
 23 23 0 0 0
SMALL
GASTEIGER

@<TRIPOS>ATOM
      1  O5        86.0700   93.2940  107.8490 O.2   131  AT5131     -0.2944
      2  C7        86.2550   94.4020  107.3040 C.2   131  AT5131      0.1741
      3  C8        87.7490   94.8430  107.0450 C.3   131  AT5131      0.0593
      4  C11       88.0200   95.0630  105.6020 C.3   131  AT5131      0.0086
      5  C12       88.6470   96.3570  105.2070 C.3   131  AT5131      0.0167
      6  C17       88.3420   96.9640  103.7820 C.3   131  AT5131      0.0013
      7  C13       90.2220   96.2830  105.4350 C.3   131  AT5131      0.0961
      8 CL12       91.0360   95.2120  104.2190 Cl    131  AT5131     -0.1137
      9  C14       90.8910   97.7240  105.3470 C.3   131  AT5131      0.1110
     10 CL16       92.2040   97.9500  106.5290 Cl    131  AT5131     -0.1124
     11  C10       88.7000   93.7370  107.5720 C.3   131  AT5131      0.0078
     12  C6        84.9590   95.2160  106.9890 C.3   131  AT5131      0.2396
     13  C5        83.7570   94.5340  106.6830 C.1   131  AT5131      0.1969
     14  N4        82.5430   95.2010  106.4060 N.2   131  AT5131     -0.2949
     15  C3        82.4140   96.5760  106.4060 C.2   131  AT5131      0.3259
     16  C2        83.6540   97.3370  106.7180 C.2   131  AT5131      0.2419
     17  C1        84.9100   96.7500  107.0080 C.2   131  AT5131      0.2359
     18  O1        85.9840   97.5090  107.2860 O.2   131  AT5131     -0.2862
     19  O2        83.5540   98.7100  106.7210 O.2   131  AT5131     -0.4636
     20  CM2       82.9180   99.2580  107.9290 C.3   131  AT5131      0.2529
     21  O3        81.2040   97.2040  106.1380 O.2   131  AT5131     -0.4450
     22  CM3       80.5820   97.0660  104.8370 C.3   131  AT5131      0.2554
     23  O4        83.7430   93.1890  106.6570 O.2   131  AT5131     -0.2132
@<TRIPOS>BOND
     1     6     5    1
     2     8     7    1
     3    22    21    1
     4     5     7    1
     5     5     4    1
     6     9     7    1
     7     9    10    1
     8     4     3    1
     9    21    15    1
    10    14    15    2
    11    14    13    2
    12    15    16    1
    13    23    13    2
    14    13    12    1
    15    16    19    1
    16    16    17    2
    17    19    20    1
    18    12    17    1
    19    12     2    1
    20    17    18    1
    21     3     2    1
    22     3    11    1
    23     2     1    2
