@<TRIPOS>MOLECULE
2acz_HEB_C_1.pdb
 43 50 0 0 0
SMALL
GASTEIGER

@<TRIPOS>ATOM
      1 FE         74.8980  101.0510   96.4420 Fe    130  HEB130      0.0000
      2  CHA       75.8480  101.1230   99.7270 C.2   130  HEB130      0.0000
      3  CHB       77.8020  102.7410   95.5540 C.2   130  HEB130      0.0000
      4  CHC       73.9170  100.9410   93.2290 C.2   130  HEB130      0.0000
      5  CHD       71.9740   99.3230   97.3710 C.2   130  HEB130      0.0000
      6  NA        76.5280  101.7730   97.4660 N.ar  130  HEB130      0.0000
      7  C1A       76.6910  101.6780   98.7930 C.ar  130  HEB130      0.0000
      8  C2A       77.9530  102.2550   99.1420 C.ar  130  HEB130      0.0000
      9  C3A       78.5320  102.7300   97.9790 C.ar  130  HEB130      0.0000
     10  C4A       77.6010  102.4230   96.9050 C.ar  130  HEB130      0.0000
     11  CMA       79.8780  103.4350   97.8290 C.3   130  HEB130      0.0000
     12  CAA       78.4860  102.3010  100.5530 C.3   130  HEB130      0.0000
     13  CBA       79.5700  101.2450  100.8730 C.3   130  HEB130      0.0000
     14  CGA       79.4390  100.6970  102.2880 C.2   130  HEB130      0.0000
     15  O1A       79.1110   99.4900  102.4120 O.co2 130  HEB130      0.0000
     16  O2A       79.6810  101.4930  103.2150 O.co2 130  HEB130      0.0000
     17  NB        75.6920  101.7350   94.7150 N.2   130  HEB130      0.0000
     18  C1B       76.8910  102.4100   94.5570 C.2   130  HEB130      0.0000
     19  C2B       77.0410  102.7210   93.1320 C.2   130  HEB130      0.0000
     20  C3B       75.9330  102.2040   92.4900 C.2   130  HEB130      0.0000
     21  C4B       75.1000  101.5760   93.5090 C.2   130  HEB130      0.0000
     22  CMB       78.1900  103.4540   92.4930 C.3   130  HEB130      0.0000
     23  CAB       75.5940  102.2320   91.0090 C.3   130  HEB130      0.0000
     24  CBB       74.7960  103.4240   90.5620 C.3   130  HEB130      0.0000
     25  NC        73.2670  100.2600   95.4870 N.ar  130  HEB130      0.0000
     26  C1C       73.1030  100.3390   94.1500 C.ar  130  HEB130      0.0000
     27  C2C       71.8740   99.6790   93.7640 C.ar  130  HEB130      0.0000
     28  C3C       71.3290   99.2270   94.9470 C.ar  130  HEB130      0.0000
     29  C4C       72.2050   99.5980   96.0300 C.ar  130  HEB130      0.0000
     30  CMC       71.3550   99.5580   92.3290 C.3   130  HEB130      0.0000
     31  CAC       70.0110   98.4710   95.0930 C.2   130  HEB130      0.0000
     32  CBC       69.8720   97.2130   94.6400 C.2   130  HEB130      0.0000
     33  ND        74.0500  100.3700   98.2370 N.2   130  HEB130      0.0000
     34  C1D       72.8540   99.7040   98.3810 C.2   130  HEB130      0.0000
     35  C2D       72.6540   99.4540   99.7970 C.2   130  HEB130      0.0000
     36  C3D       73.7380   99.9670  100.4780 C.2   130  HEB130      0.0000
     37  C4D       74.6310  100.5360   99.4610 C.2   130  HEB130      0.0000
     38  CMD       71.4790   98.7600  100.4270 C.3   130  HEB130      0.0000
     39  CAD       73.9120   99.9220  102.0010 C.3   130  HEB130      0.0000
     40  CBD       75.3110   99.7030  102.5930 C.3   130  HEB130      0.0000
     41  CGD       75.3120   99.7270  104.1390 C.2   130  HEB130      0.0000
     42  O1D       74.2180   99.8950  104.7300 O.co2 130  HEB130      0.0000
     43  O2D       76.4170   99.5630  104.7030 O.co2 130  HEB130      0.0000
@<TRIPOS>BOND
     1    24    23    1
     2    23    20    1
     3    30    27    1
     4    20    19    2
     5    20    21    1
     6    22    19    1
     7    19    18    1
     8     4    21    2
     9     4    26    1
    10    21    17    1
    11    27    26   ar
    12    27    28   ar
    13    26    25   ar
    14    18    17    2
    15    18     3    1
    16    32    31    2
    17    17     1    1
    18    28    31    1
    19    28    29   ar
    20    25    29   ar
    21    25     1    1
    22     3    10    2
    23    29     5    1
    24     1     6    1
    25     1    33    1
    26    10     6   ar
    27    10     9   ar
    28     5    34    2
    29     6     7   ar
    30    11     9    1
    31     9     8   ar
    32    33    34    1
    33    33    37    2
    34    34    35    1
    35     7     8   ar
    36     7     2    2
    37     8    12    1
    38    37     2    1
    39    37    36    1
    40    35    38    1
    41    35    36    2
    42    36    39    1
    43    12    13    1
    44    13    14    1
    45    39    40    1
    46    14    15   ar
    47    14    16   ar
    48    40    41    1
    49    41    43   ar
    50    41    42   ar
