@<TRIPOS>MOLECULE
2ad5_CTP_A_1.pdb
 29 30 0 0 0
SMALL
GASTEIGER

@<TRIPOS>ATOM
      1  N1         9.0270   -2.9400   15.7180 N.am  602  CTP602     -0.1778
      2  C2         7.8520   -2.1780   15.4110 C.1   602  CTP602      0.2756
      3  N3         7.0670   -2.5610   14.3640 N.2   602  CTP602     -0.3024
      4  C4         7.4120   -3.6840   13.6220 C.2   602  CTP602      0.2346
      5  C5         8.5520   -4.4320   13.9520 C.2   602  CTP602      0.0687
      6  C6         9.3640   -4.0620   15.0020 C.2   602  CTP602      0.0836
      7  O2         7.5520   -1.1850   16.0620 O.2   602  CTP602     -0.1925
      8  N4         6.6430   -4.0430   12.5930 N.pl3 602  CTP602     -0.0921
      9  C1'        9.8730   -2.4960   16.8340 C.3   602  CTP602      0.2400
     10  C2'        9.9960   -3.3960   18.0140 C.3   602  CTP602      0.2319
     11  O2'        9.0400   -3.0060   19.0090 O.3   602  CTP602     -0.2157
     12  C3'       11.4140   -3.0930   18.5250 C.3   602  CTP602      0.2158
     13  C4'       12.0650   -2.3010   17.3960 C.3   602  CTP602      0.1799
     14  O4'       11.2100   -2.5270   16.2700 O.3   602  CTP602     -0.3320
     15  O3'       11.3140   -2.2650   19.6800 O.3   602  CTP602     -0.2175
     16  C5'       13.5010   -2.7930   17.1200 C.3   602  CTP602      0.1813
     17  O5'       13.9900   -2.1580   15.9640 O.3   602  CTP602     -0.3112
     18  PA        15.3980   -1.3740   15.9430 P.3   602  CTP602      0.2189
     19  O1A       16.0410   -1.3230   17.2860 O.3   602  CTP602     -0.4371
     20  O2A       15.2440   -0.0960   15.2090 O.2   602  CTP602     -0.5170
     21  O3A       16.3500   -2.3970   15.1070 O.3   602  CTP602     -0.2700
     22  PB        16.0080   -3.8860   14.4330 P.3   602  CTP602      0.2277
     23  O1B       14.5510   -4.1000   14.2380 O.2   602  CTP602     -0.5168
     24  O2B       16.7490   -4.9630   15.1100 O.3   602  CTP602     -0.4368
     25  O3B       16.6180   -3.6890   12.9430 O.3   602  CTP602     -0.2258
     26  PG        18.0930   -2.9990   12.5450 P.3   602  CTP602      0.5373
     27  O1G       19.0970   -2.9720   13.6390 O.3   602  CTP602     -0.1143
     28  O2G       17.7580   -1.5490   11.9360 O.3   602  CTP602     -0.1143
     29  O3G       18.5990   -3.8830   11.3140 O.2   602  CTP602     -0.2221
@<TRIPOS>BOND
     1    29    26    2
     2    28    26    1
     3    26    25    1
     4    26    27    1
     5     8     4    1
     6    25    22    1
     7     4     5    1
     8     4     3    2
     9     5     6    2
    10    23    22    2
    11     3     2    2
    12    22    21    1
    13    22    24    1
    14     6     1    1
    15    21    18    1
    16    20    18    2
    17     2     1   am
    18     2     7    2
    19     1     9    1
    20    18    17    1
    21    18    19    1
    22    17    16    1
    23    14     9    1
    24    14    13    1
    25     9    10    1
    26    16    13    1
    27    13    12    1
    28    10    12    1
    29    10    11    1
    30    12    15    1
