@<TRIPOS>MOLECULE
2ad5_ADP_A_1.pdb
 27 29 0 0 0
SMALL
GASTEIGER

@<TRIPOS>ATOM
      1  PB        19.0060    8.1880   16.7630 P.3   601  ADP601      0.5373
      2  O1B       18.6560    9.0540   17.9300 O.3   601  ADP601     -0.1143
      3  O2B       18.3760    8.5940   15.4730 O.2   601  ADP601     -0.2221
      4  O3B       18.9790    6.7230   17.0570 O.3   601  ADP601     -0.1143
      5  PA        21.5190    9.3320   17.5810 P.3   601  ADP601      0.2231
      6  O1A       21.7180   10.7630   17.1750 O.2   601  ADP601     -0.5169
      7  O2A       20.9810    9.0970   18.9530 O.3   601  ADP601     -0.4370
      8  O3A       20.5810    8.5290   16.5170 O.3   601  ADP601     -0.2261
      9  O5'       22.7790    8.5530   17.4350 O.3   601  ADP601     -0.3111
     10  C5'       23.2050    8.0110   16.2000 C.3   601  ADP601      0.1813
     11  C4'       24.7070    7.7900   16.2540 C.3   601  ADP601      0.1821
     12  O4'       25.3230    8.4200   15.1060 O.3   601  ADP601     -0.3135
     13  C3'       25.4100    8.4080   17.4600 C.3   601  ADP601      0.2184
     14  O3'       26.6110    7.6960   17.8050 O.3   601  ADP601     -0.2174
     15  C2'       25.7030    9.8200   16.9710 C.3   601  ADP601      0.2570
     16  O2'       26.7930   10.3900   17.6710 O.3   601  ADP601     -0.2130
     17  C1'       26.0310    9.5810   15.4930 C.3   601  ADP601      0.3186
     18  N9        25.6220   10.6390   14.5680 N.pl3 601  ADP601     -0.1439
     19  C8        24.4820   11.3420   14.2860 C.3   601  ADP601      0.3377
     20  N7        24.6210   12.2070   13.3060 N.2   601  ADP601     -0.2095
     21  C5        25.9370   12.0450   12.8960 C.2   601  ADP601      0.2526
     22  C6        26.7160   12.6530   11.8860 C.2   601  ADP601      0.4393
     23  N6        26.2590   13.5920   11.0580 N.pl3 601  ADP601      0.2180
     24  N1        27.9960   12.2570   11.7400 N.2   601  ADP601      0.0021
     25  C2        28.4600   11.3080   12.5560 C.3   601  ADP601      0.5254
     26  N3        27.8340   10.6640   13.5390 N.2   601  ADP601     -0.0055
     27  C4        26.5640   11.0790   13.6610 C.2   601  ADP601      0.3518
@<TRIPOS>BOND
     1    23    22    1
     2    24    22    2
     3    24    25    1
     4    22    21    1
     5    25    26    1
     6    21    20    2
     7    21    27    1
     8    20    19    1
     9    26    27    2
    10    27    18    1
    11    19    18    1
    12    18    17    1
    13    12    17    1
    14    12    11    1
    15     3     1    2
    16    17    15    1
    17    10    11    1
    18    10     9    1
    19    11    13    1
    20     8     1    1
    21     8     5    1
    22     1     4    1
    23     1     2    1
    24    15    13    1
    25    15    16    1
    26     6     5    2
    27     9     5    1
    28    13    14    1
    29     5     7    1
