@<TRIPOS>MOLECULE
2ad6_PQQ_A_1.pdb
 24 26 0 0 0
SMALL
GASTEIGER

@<TRIPOS>ATOM
      1  N1        14.3710    4.2580   31.0380 N.2   701  PQQ701     -0.3987
      2  C2        14.9390    3.4010   31.9580 C.2   701  PQQ701      0.2104
      3  C2X       16.0340    2.4280   31.6620 C.2   701  PQQ701      0.4168
      4  O2A       16.2360    2.1710   30.4600 O.co2 701  PQQ701     -0.2377
      5  O2B       16.6500    1.9320   32.6330 O.co2 701  PQQ701     -0.2377
      6  C3        14.2660    3.5110   33.1440 C.2   701  PQQ701      0.0441
      7  C3A       13.2500    4.4590   32.9300 C.2   701  PQQ701      0.0665
      8  C1A       13.3470    4.9080   31.6050 C.2   701  PQQ701      0.1225
      9  C4        12.2140    4.9110   33.8410 C.2   701  PQQ701      0.2120
     10  O4        11.8540    4.3580   34.8460 O.2   701  PQQ701     -0.2881
     11  C5        11.5110    6.2460   33.4360 C.3   701  PQQ701      0.2608
     12  O5        10.1770    6.2130   33.9190 O.3   701  PQQ701     -0.2073
     13  C6A       11.4910    6.4690   31.8750 C.2   701  PQQ701      0.1352
     14  N6        10.5400    7.3450   31.5180 N.2   701  PQQ701     -0.4001
     15  C7        10.4850    7.7430   30.2290 C.2   701  PQQ701      0.2099
     16  C7X        9.3160    8.6100   29.8020 C.2   701  PQQ701      0.4168
     17  O7A        8.5690    9.0290   30.7060 O.co2 701  PQQ701     -0.2377
     18  O7B        9.1520    8.8330   28.5830 O.co2 701  PQQ701     -0.2377
     19  C8        11.3830    7.2790   29.2750 C.2   701  PQQ701      0.0419
     20  C9        12.4040    6.3420   29.6170 C.2   701  PQQ701      0.0731
     21  C9X       13.2920    5.7930   28.5000 C.2   701  PQQ701      0.3847
     22  O9A       12.8170    5.8250   27.3440 O.co2 701  PQQ701     -0.2409
     23  O9B       14.4540    5.4220   28.7710 O.co2 701  PQQ701     -0.2409
     24  C9A       12.4600    5.9160   30.9840 C.3   701  PQQ701      0.1320
@<TRIPOS>BOND
     1    22    21   ar
     2    21    23   ar
     3    21    20    1
     4    18    16   ar
     5    19    20    2
     6    19    15    1
     7    20    24    1
     8    16    15    1
     9    16    17   ar
    10    15    14    2
    11     4     3   ar
    12    24     8    1
    13    24    13    1
    14     1     8    2
    15     1     2    2
    16    14    13    2
    17     8     7    1
    18     3     2    1
    19     3     5   ar
    20    13    11    1
    21     2     6    1
    22     7     6    2
    23     7     9    1
    24    11     9    1
    25    11    12    1
    26     9    10    2
