@<TRIPOS>MOLECULE
2ad7_PQQ_A_1.pdb
 24 26 0 0 0
SMALL
GASTEIGER

@<TRIPOS>ATOM
      1  N1        14.3440    4.1460   31.0330 N.2   701  PQQ701     -0.3987
      2  C2        14.9030    3.2810   31.9490 C.2   701  PQQ701      0.2104
      3  C2X       15.9890    2.3010   31.6510 C.2   701  PQQ701      0.4168
      4  O2A       16.1880    2.0460   30.4480 O.co2 701  PQQ701     -0.2377
      5  O2B       16.6010    1.7980   32.6190 O.co2 701  PQQ701     -0.2377
      6  C3        14.2250    3.3820   33.1320 C.2   701  PQQ701      0.0441
      7  C3A       13.2130    4.3330   32.9200 C.2   701  PQQ701      0.0665
      8  C1A       13.3180    4.7940   31.5990 C.2   701  PQQ701      0.1225
      9  C4        12.1720    4.7730   33.8260 C.2   701  PQQ701      0.2120
     10  O4        11.8080    4.2120   34.8250 O.2   701  PQQ701     -0.2881
     11  C5        11.4750    6.1110   33.4300 C.3   701  PQQ701      0.2608
     12  O5        10.1490    6.0900   33.9270 O.3   701  PQQ701     -0.2073
     13  C6A       11.4460    6.3320   31.8660 C.2   701  PQQ701      0.1352
     14  N6        10.4910    7.2050   31.5090 N.2   701  PQQ701     -0.4001
     15  C7        10.4490    7.6220   30.2240 C.2   701  PQQ701      0.2099
     16  C7X        9.2910    8.5030   29.7960 C.2   701  PQQ701      0.4168
     17  O7A        8.5460    8.9270   30.6990 O.co2 701  PQQ701     -0.2377
     18  O7B        9.1390    8.7380   28.5790 O.co2 701  PQQ701     -0.2377
     19  C8        11.3620    7.1770   29.2760 C.2   701  PQQ701      0.0419
     20  C9        12.3860    6.2440   29.6200 C.2   701  PQQ701      0.0731
     21  C9X       13.2750    5.6990   28.5040 C.2   701  PQQ701      0.3847
     22  O9A       12.7980    5.7260   27.3500 O.co2 701  PQQ701     -0.2409
     23  O9B       14.4410    5.3450   28.7760 O.co2 701  PQQ701     -0.2409
     24  C9A       12.4290    5.8010   30.9800 C.3   701  PQQ701      0.1320
@<TRIPOS>BOND
     1    22    21   ar
     2    21    23   ar
     3    21    20    1
     4    18    16   ar
     5    19    20    2
     6    19    15    1
     7    20    24    1
     8    16    15    1
     9    16    17   ar
    10    15    14    2
    11     4     3   ar
    12    24     8    1
    13    24    13    1
    14     1     8    2
    15     1     2    2
    16    14    13    2
    17     8     7    1
    18     3     2    1
    19     3     5   ar
    20    13    11    1
    21     2     6    1
    22     7     6    2
    23     7     9    1
    24    11     9    1
    25    11    12    1
    26     9    10    2
