@<TRIPOS>MOLECULE
2ad8_PQQ_A_1.pdb
 24 26 0 0 0
SMALL
GASTEIGER

@<TRIPOS>ATOM
      1  N1        13.8580    4.0890   30.1470 N.2   701  PQQ701     -0.3986
      2  C2        14.3780    3.2220   31.0860 C.2   701  PQQ701      0.2104
      3  C2X       15.4900    2.2510   30.8300 C.2   701  PQQ701      0.4168
      4  O2A       15.7280    1.9780   29.6370 O.co2 701  PQQ701     -0.2377
      5  O2B       16.0860    1.7810   31.8200 O.co2 701  PQQ701     -0.2377
      6  C3        13.6350    3.3020   32.2330 C.2   701  PQQ701      0.0444
      7  C3A       12.6220    4.2470   31.9800 C.2   701  PQQ701      0.0711
      8  C1A       12.7930    4.7200   30.6600 C.2   701  PQQ701      0.1232
      9  C4        11.5550    4.7170   32.8670 C.2   701  PQQ701      0.2387
     10  O4        11.2310    4.2350   33.9190 O.2   701  PQQ701     -0.2830
     11  C5        10.6470    5.8020   32.2550 C.2   701  PQQ701      0.2601
     12  O5         9.6520    6.1040   32.8700 O.2   701  PQQ701     -0.2807
     13  C6A       10.8910    6.2770   30.8260 C.2   701  PQQ701      0.1617
     14  N6         9.9560    7.1510   30.4260 N.2   701  PQQ701     -0.3954
     15  C7         9.9760    7.5700   29.1420 C.2   701  PQQ701      0.2103
     16  C7X        8.8210    8.4310   28.6570 C.2   701  PQQ701      0.4168
     17  O7A        8.0240    8.8390   29.5250 O.co2 701  PQQ701     -0.2377
     18  O7B        8.7060    8.6430   27.4290 O.co2 701  PQQ701     -0.2377
     19  C8        10.9360    7.1270   28.2390 C.2   701  PQQ701      0.0420
     20  C9        11.9490    6.1960   28.6310 C.2   701  PQQ701      0.0734
     21  C9X       12.8540    5.6120   27.5490 C.2   701  PQQ701      0.3847
     22  O9A       12.4170    5.6540   26.3750 O.co2 701  PQQ701     -0.2409
     23  O9B       13.9980    5.2110   27.8610 O.co2 701  PQQ701     -0.2409
     24  C9A       11.9300    5.7540   29.9940 C.3   701  PQQ701      0.1366
@<TRIPOS>BOND
     1    22    21   ar
     2    18    16   ar
     3    21    23   ar
     4    21    20    1
     5    19    20    2
     6    19    15    1
     7    20    24    1
     8    16    15    1
     9    16    17   ar
    10    15    14    2
    11     4     3   ar
    12    24     8    1
    13    24    13    1
    14     1     8    2
    15     1     2    2
    16    14    13    2
    17     8     7    1
    18    13    11    1
    19     3     2    1
    20     3     5   ar
    21     2     6    1
    22     7     6    2
    23     7     9    1
    24    11     9    1
    25    11    12    2
    26     9    10    2
