@<TRIPOS>MOLECULE
2ada_HPR_A_1.pdb
 19 21 0 0 0
SMALL
GASTEIGER

@<TRIPOS>ATOM
      1  N1         1.3740   21.0250   39.0150 N.2   353  HPR353     -0.1458
      2  C2         2.3800   20.6620   39.8120 C.3   353  HPR353      0.4017
      3  N3         3.5440   20.1910   39.3810 N.2   353  HPR353     -0.0334
      4  C4         3.7140   20.0710   38.0510 C.2   353  HPR353      0.3528
      5  C5         2.7580   20.4160   37.1670 C.2   353  HPR353      0.2446
      6  C6         1.4950   20.9620   37.6150 C.1   353  HPR353      0.1792
      7  O6         1.2590   22.2410   37.0340 O.2   353  HPR353     -0.2203
      8  N7         3.2090   20.1790   35.9160 N.2   353  HPR353     -0.2054
      9  C8         4.4450   19.6980   36.0730 C.3   353  HPR353      0.3382
     10  N9         4.7840   19.6280   37.3620 N.pl3 353  HPR353     -0.1435
     11  C1'        5.9050   18.9790   37.9010 C.3   353  HPR353      0.3186
     12  C2'        6.2900   17.7450   37.0850 C.3   353  HPR353      0.2570
     13  O2'        6.5180   16.7490   38.0750 O.3   353  HPR353     -0.2130
     14  C3'        7.6790   18.0480   36.5420 C.3   353  HPR353      0.2186
     15  O3'        8.5210   16.8940   36.5830 O.3   353  HPR353     -0.2174
     16  C4'        8.1990   19.1680   37.4400 C.3   353  HPR353      0.1851
     17  O4'        7.0470   19.8500   37.9560 O.3   353  HPR353     -0.3134
     18  C5'        9.1110   20.1360   36.6980 C.3   353  HPR353      0.2143
     19  O5'        8.6500   20.4200   35.3740 O.3   353  HPR353     -0.2176
@<TRIPOS>BOND
     1    19    18    1
     2     8     9    1
     3     8     5    2
     4     9    10    1
     5    14    15    1
     6    14    12    1
     7    14    16    1
     8    18    16    1
     9     7     6    2
    10    12    11    1
    11    12    13    1
    12     5     6    1
    13     5     4    1
    14    10    11    1
    15    10     4    1
    16    16    17    1
    17     6     1    2
    18    11    17    1
    19     4     3    2
    20     1     2    1
    21     3     2    1
