@<TRIPOS>MOLECULE
2add_NAG_A_1.pdb
 14 14 0 0 0
SMALL
GASTEIGER

@<TRIPOS>ATOM
      1  C1        39.2830   57.0780   16.5890 C.3   650  NAG650      0.1665
      2  C2        39.2340   57.9650   15.3340 C.3   650  NAG650      0.1576
      3  C3        40.3600   59.0110   15.3530 C.3   650  NAG650      0.2069
      4  C4        40.3140   59.8080   16.6720 C.3   650  NAG650      0.2134
      5  C5        40.3960   58.8050   17.8270 C.3   650  NAG650      0.1809
      6  C6        40.3740   59.4580   19.1940 C.3   650  NAG650      0.2141
      7  C7        38.4180   57.1590   13.2070 C.2   650  NAG650      0.2420
      8  C8        38.5580   56.1520   12.0760 C.3   650  NAG650      0.0964
      9  N2        39.3560   57.1360   14.1520 N.am  650  NAG650     -0.2019
     10  O3        40.2100   59.8800   14.2420 O.3   650  NAG650     -0.2184
     11  O4        41.4160   60.7470   16.7800 O.3   650  NAG650     -0.2176
     12  O5        39.2820   57.8870   17.7730 O.3   650  NAG650     -0.3489
     13  O6        39.3080   60.3880   19.2990 O.3   650  NAG650     -0.2176
     14  O7        37.4700   57.9450   13.2160 O.2   650  NAG650     -0.2733
@<TRIPOS>BOND
     1     8     7    1
     2     7    14    2
     3     7     9   am
     4     9     2    1
     5    10     3    1
     6     2     3    1
     7     2     1    1
     8     3     4    1
     9     1    12    1
    10     4    11    1
    11     4     5    1
    12    12     5    1
    13     5     6    1
    14     6    13    1
