@<TRIPOS>MOLECULE
2add_SUC_A_1.pdb
 23 24 0 0 0
SMALL
GASTEIGER

@<TRIPOS>ATOM
      1  C1         7.1100   71.6790   -2.8010 C.3   800  SUC800      0.2713
      2  C2         6.9920   72.5690   -1.5430 C.3   800  SUC800      0.2406
      3  C3         5.5440   73.0450   -1.3470 C.3   800  SUC800      0.2198
      4  C4         5.1400   73.8130   -2.6010 C.3   800  SUC800      0.2144
      5  C5         5.2670   72.9050   -3.8430 C.3   800  SUC800      0.1835
      6  C6         4.9040   73.6120   -5.1420 C.3   800  SUC800      0.2142
      7  O1         6.3650   70.4210   -2.5950 O.3   800  SUC800     -0.3033
      8  O2         7.4430   71.8310   -0.3950 O.3   800  SUC800     -0.2149
      9  O3         5.4260   73.8920   -0.1930 O.3   800  SUC800     -0.2174
     10  O4         3.7960   74.2580   -2.4520 O.3   800  SUC800     -0.2176
     11  O5         6.6170   72.4170   -3.9800 O.3   800  SUC800     -0.3256
     12  O6         5.7930   74.6990   -5.3540 O.3   800  SUC800     -0.2176
     13  C1'        7.9730   68.4490   -2.5710 C.3   800  SUC800      0.2406
     14  C2'        6.8270   69.2150   -3.2700 C.3   800  SUC800      0.2516
     15  C3'        5.5410   68.3770   -3.5600 C.3   800  SUC800      0.2381
     16  C4'        5.0850   68.9640   -4.8950 C.3   800  SUC800      0.2167
     17  C5'        6.4580   69.1430   -5.5450 C.3   800  SUC800      0.1835
     18  C6'        6.5590   70.2060   -6.6180 C.3   800  SUC800      0.2142
     19  O1'        7.6340   68.0180   -1.2670 O.3   800  SUC800     -0.2149
     20  O2'        7.3660   69.5250   -4.5390 O.3   800  SUC800     -0.3272
     21  O3'        4.5300   68.5590   -2.5600 O.3   800  SUC800     -0.2150
     22  O4'        4.2560   68.0620   -5.6530 O.3   800  SUC800     -0.2175
     23  O6'        7.8160   70.0460   -7.2690 O.3   800  SUC800     -0.2176
@<TRIPOS>BOND
     1    23    18    1
     2    18    17    1
     3    22    16    1
     4    17    16    1
     5    17    20    1
     6    12     6    1
     7     6     5    1
     8    16    15    1
     9    20    14    1
    10    11     5    1
    11    11     1    1
    12     5     4    1
    13    15    14    1
    14    15    21    1
    15    14     7    1
    16    14    13    1
    17     1     7    1
    18     1     2    1
    19     4    10    1
    20     4     3    1
    21    13    19    1
    22     2     3    1
    23     2     8    1
    24     3     9    1
