@<TRIPOS>MOLECULE
2ade_NAG_A_1.pdb
 14 14 0 0 0
SMALL
GASTEIGER

@<TRIPOS>ATOM
      1  C1        38.8010   57.3780   16.3650 C.3   650  NAG650      0.1665
      2  C2        39.1280   58.1120   15.0550 C.3   650  NAG650      0.1576
      3  C3        40.3650   59.0000   15.1740 C.3   650  NAG650      0.2069
      4  C4        40.3330   59.7210   16.5170 C.3   650  NAG650      0.2134
      5  C5        40.4080   58.6900   17.6510 C.3   650  NAG650      0.1809
      6  C6        39.6080   59.0950   18.8580 C.3   650  NAG650      0.2141
      7  C7        38.4850   57.1460   12.9620 C.2   650  NAG650      0.2420
      8  C8        38.6250   56.0190   11.9520 C.3   650  NAG650      0.0964
      9  N2        39.3250   57.1510   13.9910 N.am  650  NAG650     -0.2019
     10  O3        40.3760   59.9400   14.1110 O.3   650  NAG650     -0.2184
     11  O4        41.4420   60.6410   16.6210 O.3   650  NAG650     -0.2176
     12  O5        39.9440   57.3680   17.2350 O.3   650  NAG650     -0.3489
     13  O6        39.7660   60.4800   19.1190 O.3   650  NAG650     -0.2176
     14  O7        37.6170   58.0070   12.8090 O.2   650  NAG650     -0.2733
@<TRIPOS>BOND
     1     8     7    1
     2    14     7    2
     3     7     9   am
     4     9     2    1
     5    10     3    1
     6     2     3    1
     7     2     1    1
     8     3     4    1
     9     1    12    1
    10     4    11    1
    11     4     5    1
    12    12     5    1
    13     5     6    1
    14     6    13    1
