@<TRIPOS>MOLECULE
2ade_FRU_A_1.pdb
 12 12 0 0 0
SMALL
GASTEIGER

@<TRIPOS>ATOM
      1  C1         7.6610   67.8020   -2.2900 C.3   800  FRU800      0.2434
      2  C2         6.8750   68.7530   -3.2170 C.3   800  FRU800      0.2807
      3  C3         5.4440   68.2670   -3.5230 C.3   800  FRU800      0.2409
      4  C4         5.0640   69.0520   -4.7760 C.3   800  FRU800      0.2168
      5  C5         6.3810   69.0530   -5.5360 C.3   800  FRU800      0.1836
      6  C6         6.6850   70.3160   -6.3310 C.3   800  FRU800      0.2142
      7  O1         9.0700   67.9140   -2.5060 O.3   800  FRU800     -0.2148
      8  O2         6.9180   70.0860   -2.6050 O.3   800  FRU800     -0.1896
      9  O3         4.5590   68.3860   -2.4150 O.3   800  FRU800     -0.2149
     10  O4         4.0900   68.4020   -5.6020 O.3   800  FRU800     -0.2175
     11  O5         7.4140   68.8560   -4.5570 O.3   800  FRU800     -0.3253
     12  O6         7.8110   69.9760   -7.1540 O.3   800  FRU800     -0.2176
@<TRIPOS>BOND
     1    12     6    1
     2     6     5    1
     3    10     4    1
     4     5     4    1
     5     5    11    1
     6     4     3    1
     7    11     2    1
     8     3     2    1
     9     3     9    1
    10     2     8    1
    11     2     1    1
    12     7     1    1
