@<TRIPOS>MOLECULE
2adm_SAM_A_1.pdb
 27 29 0 0 0
SMALL
GASTEIGER

@<TRIPOS>ATOM
      1  N         39.0800   42.5200   19.7040 N.3   500  SAM500     -0.1208
      2  CA        38.4810   42.9130   18.4320 C.3   500  SAM500      0.1952
      3  C         36.9490   43.0680   18.5340 C.2   500  SAM500      0.3819
      4  O         36.3800   42.6690   19.5780 O.co2 500  SAM500     -0.2441
      5  OXT       36.3320   43.5840   17.5720 O.co2 500  SAM500     -0.2441
      6  CB        38.8460   41.9040   17.3300 C.3   500  SAM500      0.0414
      7  CG        38.5560   40.4340   17.6720 C.3   500  SAM500      0.0503
      8  SD        38.7270   39.3440   16.2340 S.3   500  SAM500     -0.1761
      9  CE        37.4570   38.1920   16.5220 C.3   500  SAM500      0.0590
     10  C5'       40.2890   38.4770   16.3970 C.3   500  SAM500      0.0806
     11  C4'       41.4890   39.3710   16.1120 C.3   500  SAM500      0.1622
     12  O4'       42.6970   38.7740   16.6040 O.3   500  SAM500     -0.3153
     13  C3'       41.6430   39.6030   14.6270 C.3   500  SAM500      0.2168
     14  O3'       41.5100   41.0000   14.3390 O.3   500  SAM500     -0.2175
     15  C2'       43.0260   39.1070   14.2590 C.3   500  SAM500      0.2569
     16  O2'       43.8480   40.2070   13.8320 O.3   500  SAM500     -0.2130
     17  C1'       43.5990   38.4850   15.5280 C.3   500  SAM500      0.3185
     18  N9        43.7770   37.0120   15.3910 N.pl3 500  SAM500     -0.1439
     19  C8        43.2180   36.1530   14.4990 C.3   500  SAM500      0.3377
     20  N7        43.5570   34.9080   14.5870 N.2   500  SAM500     -0.2095
     21  C5        44.4540   34.9150   15.6670 C.2   500  SAM500      0.2526
     22  C6        45.2590   33.9090   16.2470 C.2   500  SAM500      0.4393
     23  N6        45.2300   32.6330   15.8450 N.pl3 500  SAM500      0.2180
     24  N1        46.1010   34.2780   17.2420 N.2   500  SAM500      0.0021
     25  C2        46.1300   35.5540   17.6310 C.3   500  SAM500      0.5254
     26  N3        45.4330   36.5910   17.1720 N.2   500  SAM500     -0.0055
     27  C4        44.5940   36.1950   16.1740 C.2   500  SAM500      0.3518
@<TRIPOS>BOND
     1    16    15    1
     2    15    13    1
     3    15    17    1
     4    14    13    1
     5    19    20    1
     6    19    18    1
     7    20    21    2
     8    13    11    1
     9    18    17    1
    10    18    27    1
    11    17    12    1
    12    21    27    1
    13    21    22    1
    14    23    22    1
    15    11    10    1
    16    11    12    1
    17    27    26    2
    18     8    10    1
    19     8     9    1
    20     8     7    1
    21    22    24    2
    22    26    25    1
    23    24    25    1
    24     6     7    1
    25     6     2    1
    26     5     3   ar
    27     2     3    1
    28     2     1    1
    29     3     4   ar
