@<TRIPOS>MOLECULE
2adu_R20_A_1.pdb
 12 13 0 0 0
SMALL
GASTEIGER

@<TRIPOS>ATOM
      1  C1        19.6180   30.7460   16.2430 C.ar  906  R20906      0.0207
      2  C2        19.8350   29.2910   16.2940 C.ar  906  R20906      0.1254
      3  C3        18.2940   31.2890   16.3020 C.ar  906  R20906     -0.0027
      4  C4        20.7140   31.6560   16.0970 C.ar  906  R20906      0.0016
      5  C5        20.9750   28.4970   16.1830 C.ar  906  R20906      0.1447
      6  C7        18.0690   32.7080   16.2610 C.ar  906  R20906     -0.0218
      7  C8        20.4880   33.0660   16.0570 C.ar  906  R20906     -0.0003
      8  C11       19.1640   33.5860   16.1210 C.ar  906  R20906     -0.0043
      9  C12       16.6720   33.2570   16.3340 C.3   906  R20906      0.0310
     10  N6        18.8350   28.3540   16.5010 N.ar  906  R20906     -0.1270
     11  N9        20.6520   27.1750   16.3120 N.ar  906  R20906     -0.1254
     12  N10       19.3320   27.0920   16.5070 N.ar  906  R20906     -0.0420
@<TRIPOS>BOND
     1     7     4   ar
     2     7     8   ar
     3     4     1   ar
     4     8     6   ar
     5     5     2   ar
     6     5    11   ar
     7     1     2    1
     8     1     3   ar
     9     6     3   ar
    10     6     9    1
    11     2    10   ar
    12    11    12   ar
    13    10    12   ar
