@<TRIPOS>MOLECULE
2ae2_PTO_A_1.pdb
 10 11 0 0 0
SMALL
GASTEIGER

@<TRIPOS>ATOM
      1  C1         4.9750   34.6610  147.0740 C.3   262  PTO262      0.0601
      2  C2         6.3540   33.9970  147.1850 C.3   262  PTO262      0.0489
      3  C3         6.3590   32.6770  147.9720 C.3   262  PTO262      0.1547
      4  C4         5.4180   32.5980  149.1830 C.3   262  PTO262      0.0489
      5  C5         4.0950   33.3540  148.9830 C.3   262  PTO262      0.0601
      6  C6         3.4550   32.8330  147.6900 C.3   262  PTO262      0.0174
      7  C7         3.9820   33.6230  146.5440 C.3   262  PTO262      0.0174
      8  N8         4.4640   34.7490  148.4990 N.3   262  PTO262     -0.2739
      9  C9         3.3250   35.6960  148.5640 C.3   262  PTO262      0.0896
     10  O3         7.6800   32.2480  148.2550 O.3   262  PTO262     -0.2231
@<TRIPOS>BOND
     1     7     1    1
     2     7     6    1
     3     1     2    1
     4     1     8    1
     5     2     3    1
     6     6     5    1
     7     3    10    1
     8     3     4    1
     9     8     9    1
    10     8     5    1
    11     5     4    1
