@<TRIPOS>MOLECULE
2ae2_NAP_A_1.pdb
 48 52 0 0 0
SMALL
GASTEIGER

@<TRIPOS>ATOM
      1  PA         1.0180   24.2810  149.8200 P.3   261  NAP261      0.2189
      2  O1A        0.7310   24.8110  151.1660 O.3   261  NAP261     -0.4371
      3  O2A       -0.0090   24.3960  148.7730 O.2   261  NAP261     -0.5170
      4  O5B        1.5760   22.8140  149.9030 O.3   261  NAP261     -0.3112
      5  C5B        2.5980   22.4610  150.8540 C.3   261  NAP261      0.1813
      6  C4B        2.5940   20.9470  150.9510 C.3   261  NAP261      0.1820
      7  O4B        3.6220   20.5600  151.8850 O.3   261  NAP261     -0.3136
      8  C3B        1.3090   20.3760  151.5100 C.3   261  NAP261      0.2157
      9  O3B        1.0460   19.0190  151.0780 O.3   261  NAP261     -0.2175
     10  C2B        1.5730   20.3650  153.0160 C.3   261  NAP261      0.2314
     11  O2B        0.7200   19.3830  153.6500 O.3   261  NAP261     -0.2630
     12  C1B        3.0170   19.9150  153.0080 C.3   261  NAP261      0.3158
     13  N9A        3.6120   20.2190  154.3280 N.pl3 261  NAP261     -0.1439
     14  C8A        3.7650   21.4430  154.9030 C.3   261  NAP261      0.3377
     15  N7A        4.3300   21.3420  156.1030 N.2   261  NAP261     -0.2095
     16  C5A        4.5190   20.0350  156.2480 C.2   261  NAP261      0.2526
     17  C6A        5.0950   19.4000  157.3710 C.2   261  NAP261      0.4393
     18  N6A        5.5150   20.0880  158.4390 N.pl3 261  NAP261      0.2180
     19  N1A        5.1910   18.0330  157.2960 N.2   261  NAP261      0.0021
     20  C2A        4.7660   17.3200  156.2200 C.3   261  NAP261      0.5254
     21  N3A        4.2160   17.9470  155.1590 N.2   261  NAP261     -0.0055
     22  C4A        4.0840   19.3030  155.1510 C.2   261  NAP261      0.3518
     23  O3         2.3180   25.0310  149.3030 O.3   261  NAP261     -0.2703
     24  PN         2.9580   25.3300  147.8870 P.3   261  NAP261      0.2189
     25  O1N        2.5030   26.6560  147.4510 O.3   261  NAP261     -0.4371
     26  O2N        2.7120   24.1580  147.0290 O.2   261  NAP261     -0.5170
     27  O5D        4.5080   25.4320  148.2280 O.3   261  NAP261     -0.3112
     28  C5D        5.3640   24.3060  148.2140 C.3   261  NAP261      0.1813
     29  C4D        6.8160   24.7510  148.2020 C.3   261  NAP261      0.1799
     30  O4D        6.9550   25.7540  147.1730 O.3   261  NAP261     -0.3327
     31  C3D        7.2670   25.4270  149.4900 C.3   261  NAP261      0.2158
     32  O3D        8.6310   25.1310  149.8380 O.3   261  NAP261     -0.2175
     33  C2D        7.1380   26.9300  149.1930 C.3   261  NAP261      0.2309
     34  O2D        8.0830   27.6300  149.9970 O.3   261  NAP261     -0.2158
     35  C1D        7.5680   26.9290  147.7290 C.3   261  NAP261      0.2263
     36  N1N        7.0720   28.0930  146.9770 N.pl3 261  NAP261     -0.2787
     37  C2N        5.6880   28.2620  146.6060 C.3   261  NAP261      0.1244
     38  C3N        5.3080   29.4100  145.8690 C.2   261  NAP261      0.0544
     39  C7N        3.8770   29.7170  145.3960 C.2   261  NAP261      0.2818
     40  O7N        3.5860   30.7390  144.7800 O.2   261  NAP261     -0.2670
     41  N7N        2.9190   28.8370  145.6500 N.am  261  NAP261     -0.0839
     42  C4N        6.3270   30.3410  145.5340 C.2   261  NAP261      0.0033
     43  C5N        7.6860   30.1830  145.8960 C.2   261  NAP261      0.0157
     44  C6N        8.0690   29.0460  146.6250 C.2   261  NAP261      0.0633
     45  P2B        0.1830   19.5610  155.1490 P.3   261  NAP261      0.5328
     46  O1X        1.0770   18.8110  156.0350 O.3   261  NAP261     -0.1145
     47  O2X       -1.2330   18.8560  155.1480 O.2   261  NAP261     -0.2224
     48  O3X       -0.0310   20.9860  155.3970 O.3   261  NAP261     -0.1145
@<TRIPOS>BOND
     1    40    39    2
     2    39    41   am
     3    39    38    1
     4    42    38    2
     5    42    43    1
     6    38    37    1
     7    43    44    2
     8    37    36    1
     9    44    36    1
    10    36    35    1
    11    26    24    2
    12    30    35    1
    13    30    29    1
    14    25    24    1
    15    35    33    1
    16    24    27    1
    17    24    23    1
    18    29    28    1
    19    29    31    1
    20    28    27    1
    21     3     1    2
    22    33    31    1
    23    33    34    1
    24    23     1    1
    25    31    32    1
    26     1     4    1
    27     1     2    1
    28     4     5    1
    29     5     6    1
    30     6     8    1
    31     6     7    1
    32     9     8    1
    33     8    10    1
    34     7    12    1
    35    12    10    1
    36    12    13    1
    37    10    11    1
    38    11    45    1
    39    13    14    1
    40    13    22    1
    41    14    15    1
    42    47    45    2
    43    45    48    1
    44    45    46    1
    45    22    21    2
    46    22    16    1
    47    21    20    1
    48    15    16    2
    49    20    19    1
    50    16    17    1
    51    19    17    2
    52    17    18    1
