@<TRIPOS>MOLECULE
2ae7_NAG_A_1.pdb
 14 14 0 0 0
SMALL
GASTEIGER

@<TRIPOS>ATOM
      1  C1        25.7110   43.1980   47.1380 C.3   405  NAG405      0.1665
      2  C2        27.1040   43.6160   47.6570 C.3   405  NAG405      0.1576
      3  C3        27.2530   45.1220   47.4180 C.3   405  NAG405      0.2069
      4  C4        27.1340   45.3940   45.8980 C.3   405  NAG405      0.2134
      5  C5        25.7330   44.9310   45.4150 C.3   405  NAG405      0.1809
      6  C6        25.5720   45.1550   43.8990 C.3   405  NAG405      0.2141
      7  C7        27.8750   42.2810   49.6140 C.2   405  NAG405      0.2420
      8  C8        27.8250   42.1600   51.1540 C.3   405  NAG405      0.0964
      9  N2        27.2010   43.3090   49.1190 N.am  405  NAG405     -0.2019
     10  O3        28.5360   45.5080   47.8920 O.3   405  NAG405     -0.2184
     11  O4        27.2550   46.7870   45.6360 O.3   405  NAG405     -0.2176
     12  O5        25.6020   43.5110   45.7010 O.3   405  NAG405     -0.3489
     13  O6        26.5880   44.4580   43.1600 O.3   405  NAG405     -0.2176
     14  O7        28.5000   41.4610   48.9220 O.2   405  NAG405     -0.2733
@<TRIPOS>BOND
     1    13     6    1
     2     6     5    1
     3     5    12    1
     4     5     4    1
     5    11     4    1
     6    12     1    1
     7     4     3    1
     8     1     2    1
     9     3     2    1
    10     3    10    1
    11     2     9    1
    12    14     7    2
    13     9     7   am
    14     7     8    1
