@<TRIPOS>MOLECULE
2ae7_MAN_A_1.pdb
 12 12 0 0 0
SMALL
GASTEIGER

@<TRIPOS>ATOM
      1  C1        23.1920   41.5280   48.0700 C.3   406  MAN406      0.3024
      2  C2        24.2590   41.2640   46.9290 C.3   406  MAN406      0.2434
      3  C3        24.4290   39.7240   46.7200 C.3   406  MAN406      0.2199
      4  C4        24.9070   39.0940   48.0530 C.3   406  MAN406      0.2144
      5  C5        23.7770   39.3640   49.1230 C.3   406  MAN406      0.1836
      6  C6        24.1200   38.8030   50.4930 C.3   406  MAN406      0.2142
      7  O1        21.8550   41.0730   47.7200 O.3   406  MAN406     -0.1869
      8  O2        25.5570   41.7830   47.3590 O.3   406  MAN406     -0.2148
      9  O3        25.4030   39.5080   45.6960 O.3   406  MAN406     -0.2174
     10  O4        25.0850   37.6830   47.8690 O.3   406  MAN406     -0.2176
     11  O5        23.5660   40.8050   49.2980 O.3   406  MAN406     -0.3236
     12  O6        23.0160   39.1150   51.3720 O.3   406  MAN406     -0.2176
@<TRIPOS>BOND
     1     9     3    1
     2     3     2    1
     3     3     4    1
     4     2     8    1
     5     2     1    1
     6     7     1    1
     7    10     4    1
     8     4     5    1
     9     1    11    1
    10     5    11    1
    11     5     6    1
    12     6    12    1
