@<TRIPOS>MOLECULE
2ae7_UDH_A_1.pdb
 32 33 0 0 0
SMALL
GASTEIGER

@<TRIPOS>ATOM
      1  N1        37.8750   51.2630   41.0710 N.am  399  UDH399     -0.1766
      2  C2        38.9890   51.7900   40.3850 C.1   399  UDH399      0.2845
      3  N3        39.9850   50.8660   40.0920 N.2   399  UDH399     -0.2452
      4  C4        39.9830   49.4960   40.4100 C.1   399  UDH399      0.2182
      5  C5        38.8100   49.0300   41.1070 C.2   399  UDH399      0.1242
      6  C6        37.8340   49.8760   41.4060 C.2   399  UDH399      0.0929
      7  O2        39.0080   52.9870   40.1040 O.2   399  UDH399     -0.1918
      8  O4        40.9260   48.8030   40.0990 O.2   399  UDH399     -0.2085
      9  C1B       36.7720   52.2430   41.4190 C.3   399  UDH399      0.2401
     10  C2B       35.9510   52.8480   40.3290 C.3   399  UDH399      0.2319
     11  O2'       35.4830   54.1710   40.6380 O.3   399  UDH399     -0.2157
     12  C3B       34.8730   51.8130   40.2280 C.3   399  UDH399      0.2158
     13  C4B       34.5130   51.5580   41.6820 C.3   399  UDH399      0.1799
     14  O4'       35.8560   51.4880   42.2210 O.3   399  UDH399     -0.3320
     15  O3'       33.7440   52.2150   39.4640 O.3   399  UDH399     -0.2175
     16  C5B       33.7270   50.2840   41.8000 C.3   399  UDH399      0.1813
     17  O5'       34.4350   49.1010   41.4370 O.3   399  UDH399     -0.3112
     18  PA        33.9990   48.2450   40.1600 P.3   399  UDH399      0.2189
     19  O1A       33.6190   49.1550   39.0600 O.2   399  UDH399     -0.5170
     20  O2A       34.9540   47.1940   39.7560 O.3   399  UDH399     -0.4371
     21  O3A       32.6610   47.4920   40.7750 O.3   399  UDH399     -0.2703
     22  PB        31.5310   46.8110   39.9420 P.3   399  UDH399      0.2188
     23  O1B       30.6480   46.2020   41.1210 O.3   399  UDH399     -0.4371
     24  O2B       32.2320   45.7010   39.2050 O.3   399  UDH399     -0.3139
     25  O3B       31.0550   47.7260   38.8590 O.2   399  UDH399     -0.5170
     26  C1'       33.0000   44.6500   39.8480 C.3   399  UDH399      0.1491
     27  C2'       33.7860   44.0110   38.6890 C.3   399  UDH399      0.0325
     28  C3'       32.7920   42.9980   38.1030 C.3   399  UDH399      0.0026
     29  C4'       33.0910   43.0110   36.6020 C.3   399  UDH399      0.0016
     30  C5'       32.7800   41.5680   36.1730 C.3   399  UDH399      0.0205
     31  C6'       32.6170   41.6670   34.6550 C.3   399  UDH399      0.1093
     32  N6'       31.7720   40.5930   34.3490 N.3   399  UDH399     -0.1314
@<TRIPOS>BOND
     1    32    31    1
     2    31    30    1
     3    30    29    1
     4    29    28    1
     5    28    27    1
     6    27    26    1
     7    25    22    2
     8    19    18    2
     9    24    26    1
    10    24    22    1
    11    15    12    1
    12    20    18    1
    13    22    21    1
    14    22    23    1
    15     3     2    2
    16     3     4    2
    17     8     4    2
    18     7     2    2
    19    18    21    1
    20    18    17    1
    21    12    10    1
    22    12    13    1
    23    10    11    1
    24    10     9    1
    25     2     1   am
    26     4     5    1
    27     1     6    1
    28     1     9    1
    29     5     6    2
    30     9    14    1
    31    17    16    1
    32    13    16    1
    33    13    14    1
