@<TRIPOS>MOLECULE
2aeb_ABH_A_1.pdb
 28 27 0 0 0
SMALL
GASTEIGER

@<TRIPOS>ATOM
      1  N         65.4420    9.9290   31.1110 N.4   551  ABH551      0.0000
      2  CA        65.5320   10.1090   29.6360 C.3   551  ABH551      0.0000
      3  C         66.9810    9.7210   29.2130 C.2   551  ABH551      0.0000
      4  O         67.3720    9.7130   28.0850 O.co2 551  ABH551      0.0000
      5  OT        67.7960    9.3450   30.1980 O.co2 551  ABH551      0.0000
      6  CB        65.2720   11.5760   29.2400 C.3   551  ABH551      0.0000
      7  CG        66.2610   12.6640   29.5090 C.3   551  ABH551      0.0000
      8  CD        65.8950   14.0800   29.1140 C.3   551  ABH551      0.0000
      9  CE        66.9970   15.0470   29.5290 C.3   551  ABH551      0.0000
     10  B         66.6680   16.5410   29.8410 B     551  ABH551      0.0000
     11  O2        67.8370   17.3760   30.0880 O.3   551  ABH551      0.0000
     12  O1        65.8800   16.7080   31.0390 O.3   551  ABH551      0.0000
     13  O3        65.9040   17.2330   28.7920 O.3   551  ABH551      0.0000
     14  HN1       64.6280   10.1590   31.3890 H     551  ABH551      0.0000
     15  HN2       66.0490   10.4440   31.5100 H     551  ABH551      0.0000
     16  HCA       64.8860    9.5230   29.1890 H     551  ABH551      0.0000
     17 HCB1       65.1030   11.5820   28.2850 H     551  ABH551      0.0000
     18 HCB2       64.4430   11.8390   29.6700 H     551  ABH551      0.0000
     19 HCG1       67.0850   12.4330   29.0530 H     551  ABH551      0.0000
     20 HCG2       66.4510   12.6620   30.4600 H     551  ABH551      0.0000
     21 HCD1       65.0620   14.3320   29.5430 H     551  ABH551      0.0000
     22 HCD2       65.7660   14.1270   28.1540 H     551  ABH551      0.0000
     23 HCE1       67.6630   15.0420   28.8240 H     551  ABH551      0.0000
     24 HCE2       67.4210   14.6760   30.3190 H     551  ABH551      0.0000
     25  HO2       68.4800   16.9300   30.2300 H     551  ABH551      0.0000
     26  HO1       66.1200   16.2100   31.6300 H     551  ABH551      0.0000
     27  HO3       66.0500   16.8900   28.0200 H     551  ABH551      0.0000
     28  H0A       65.5950    9.0770   31.3160 H     551  ABH551      0.0000
@<TRIPOS>BOND
     1    27    13    1
     2     4     3   ar
     3    22     8    1
     4    17     6    1
     5    13    10    1
     6    23     9    1
     7    19     7    1
     8     8     7    1
     9     8     9    1
    10     8    21    1
    11    16     2    1
    12     3     2    1
    13     3     5   ar
    14     6     7    1
    15     6     2    1
    16     6    18    1
    17     7    20    1
    18     9    10    1
    19     9    24    1
    20     2     1    1
    21    10    11    1
    22    10    12    1
    23    11    25    1
    24    12    26    1
    25     1    28    1
    26     1    14    1
    27     1    15    1
