@<TRIPOS>MOLECULE
2aec_UDH_A_1.pdb
 32 33 0 0 0
SMALL
GASTEIGER

@<TRIPOS>ATOM
      1  N1        37.9180   51.2370   40.9960 N.am  399  UDH399     -0.1766
      2  C2        39.0480   51.7780   40.3410 C.1   399  UDH399      0.2845
      3  N3        40.0430   50.8620   40.0490 N.2   399  UDH399     -0.2452
      4  C4        40.0440   49.4930   40.3270 C.1   399  UDH399      0.2182
      5  C5        38.8610   49.0040   40.9860 C.2   399  UDH399      0.1242
      6  C6        37.8710   49.8430   41.2930 C.2   399  UDH399      0.0929
      7  O2        39.0830   52.9810   40.0830 O.2   399  UDH399     -0.1918
      8  O4        41.0010   48.8220   40.0120 O.2   399  UDH399     -0.2085
      9  C1B       36.8170   52.2130   41.3480 C.3   399  UDH399      0.2401
     10  C2B       35.9990   52.8400   40.2590 C.3   399  UDH399      0.2319
     11  O2'       35.5170   54.1670   40.5900 O.3   399  UDH399     -0.2157
     12  C3B       34.9340   51.8030   40.1390 C.3   399  UDH399      0.2158
     13  C4B       34.5600   51.5290   41.5900 C.3   399  UDH399      0.1799
     14  O4'       35.9040   51.4480   42.1400 O.3   399  UDH399     -0.3320
     15  O3'       33.8130   52.1990   39.3590 O.3   399  UDH399     -0.2175
     16  C5B       33.7640   50.2540   41.6760 C.3   399  UDH399      0.1813
     17  O5'       34.4740   49.0620   41.3470 O.3   399  UDH399     -0.3112
     18  PA        34.0810   48.1680   40.0840 P.3   399  UDH399      0.2189
     19  O1A       33.6650   49.0530   38.9600 O.2   399  UDH399     -0.5170
     20  O2A       35.1010   47.1660   39.6980 O.3   399  UDH399     -0.4371
     21  O3A       32.7630   47.3490   40.7010 O.3   399  UDH399     -0.2703
     22  PB        31.6060   46.6720   39.8720 P.3   399  UDH399      0.2188
     23  O1B       30.7280   46.0800   41.0450 O.3   399  UDH399     -0.4371
     24  O2B       32.2710   45.5510   39.1210 O.3   399  UDH399     -0.3139
     25  O3B       31.1350   47.6060   38.8050 O.2   399  UDH399     -0.5170
     26  C1'       33.0180   44.4750   39.7620 C.3   399  UDH399      0.1491
     27  C2'       33.7980   43.8110   38.6070 C.3   399  UDH399      0.0325
     28  C3'       32.7950   42.8030   38.0200 C.3   399  UDH399      0.0026
     29  C4'       33.0180   42.8960   36.5070 C.3   399  UDH399      0.0016
     30  C5'       32.4850   41.5540   35.9860 C.3   399  UDH399      0.0205
     31  C6'       32.1240   41.8460   34.5250 C.3   399  UDH399      0.1093
     32  N6'       31.7860   40.5840   34.0120 N.3   399  UDH399     -0.1314
@<TRIPOS>BOND
     1    32    31    1
     2    31    30    1
     3    30    29    1
     4    29    28    1
     5    28    27    1
     6    27    26    1
     7    25    22    2
     8    19    18    2
     9    24    26    1
    10    24    22    1
    11    15    12    1
    12    20    18    1
    13    22    21    1
    14    22    23    1
    15     8     4    2
    16     3     4    2
    17     3     2    2
    18     7     2    2
    19    18    21    1
    20    18    17    1
    21    12    10    1
    22    12    13    1
    23    10    11    1
    24    10     9    1
    25     4     5    1
    26     2     1   am
    27     5     6    2
    28     1     6    1
    29     1     9    1
    30    17    16    1
    31     9    14    1
    32    13    16    1
    33    13    14    1
