@<TRIPOS>MOLECULE
2aec_MAN_A_1.pdb
 11 11 0 0 0
SMALL
GASTEIGER

@<TRIPOS>ATOM
      1  C1        23.3850   41.6830   48.5390 C.3   406  MAN406      0.1777
      2  C2        24.0940   41.3790   47.2100 C.3   406  MAN406      0.2141
      3  C3        24.2090   39.8430   46.8710 C.3   406  MAN406      0.2173
      4  C4        24.9480   39.1120   48.0020 C.3   406  MAN406      0.2142
      5  C5        24.1020   39.3130   49.3230 C.3   406  MAN406      0.1810
      6  C6        24.6730   38.6680   50.5890 C.3   406  MAN406      0.2141
      7  O2        25.4660   41.7530   47.1500 O.3   406  MAN406     -0.2176
      8  O3        24.8970   39.7160   45.6010 O.3   406  MAN406     -0.2175
      9  O4        25.0690   37.7120   47.7160 O.3   406  MAN406     -0.2176
     10  O5        23.9530   40.7830   49.6060 O.3   406  MAN406     -0.3481
     11  O6        24.3800   39.4290   51.7960 O.3   406  MAN406     -0.2176
@<TRIPOS>BOND
     1     8     3    1
     2     3     2    1
     3     3     4    1
     4     7     2    1
     5     2     1    1
     6     9     4    1
     7     4     5    1
     8     1    10    1
     9     5    10    1
    10     5     6    1
    11     6    11    1
