@<TRIPOS>MOLECULE
2aec_NAG_A_1.pdb
 14 14 0 0 0
SMALL
GASTEIGER

@<TRIPOS>ATOM
      1  C1        25.7150   43.1410   47.0370 C.3   405  NAG405      0.1665
      2  C2        27.1000   43.5410   47.5980 C.3   405  NAG405      0.1576
      3  C3        27.2670   45.0760   47.3960 C.3   405  NAG405      0.2069
      4  C4        27.1820   45.3450   45.8460 C.3   405  NAG405      0.2134
      5  C5        25.8360   44.9300   45.3170 C.3   405  NAG405      0.1809
      6  C6        25.6510   45.1090   43.8090 C.3   405  NAG405      0.2141
      7  C7        27.8560   42.1760   49.5580 C.2   405  NAG405      0.2420
      8  C8        27.7650   41.9970   51.0650 C.3   405  NAG405      0.0964
      9  N2        27.1560   43.1890   49.0650 N.am  405  NAG405     -0.2019
     10  O3        28.5460   45.4450   47.8840 O.3   405  NAG405     -0.2184
     11  O4        27.3330   46.7450   45.5610 O.3   405  NAG405     -0.2176
     12  O5        25.5970   43.4860   45.6050 O.3   405  NAG405     -0.3489
     13  O6        26.6790   44.4110   43.0820 O.3   405  NAG405     -0.2176
     14  O7        28.5410   41.4060   48.8740 O.2   405  NAG405     -0.2733
@<TRIPOS>BOND
     1    13     6    1
     2     6     5    1
     3     5    12    1
     4     5     4    1
     5    11     4    1
     6    12     1    1
     7     4     3    1
     8     1     2    1
     9     3     2    1
    10     3    10    1
    11     2     9    1
    12    14     7    2
    13     9     7   am
    14     7     8    1
