@<TRIPOS>MOLECULE
2aei_03R_H_1.pdb
 39 42 0 0 0
SMALL
GASTEIGER

@<TRIPOS>ATOM
      1  C1        31.1030    7.3540    7.1980 C.2   500  03R500      0.2993
      2  N2        30.6150    7.4150    8.4910 N.2   500  03R500     -0.3305
      3  C3        32.3180    8.0170    6.9030 C.3   500  03R500      0.2884
      4  O4        30.5370    6.6820    6.1530 O.3   500  03R500     -0.4280
      5  C5        31.2940    8.1120    9.4690 C.2   500  03R500      0.3141
      6  C6        33.0170    8.7220    7.8920 C.2   500  03R500      0.1187
      7  F7        32.7690    7.9620    5.6870 F     500  03R500     -0.2195
      8  C8        29.3380    6.0330    6.1020 C.ar  500  03R500      0.1543
      9  C9        32.4940    8.7450    9.1580 C.2   500  03R500      0.2199
     10  O10       30.9660    8.3450   10.7460 O.3   500  03R500     -0.4257
     11  N11       34.1740    9.3640    7.5720 N.pl3 500  03R500     -0.2380
     12  C12       28.0330    6.5320    6.5030 C.ar  500  03R500      0.1143
     13  C13       29.4680    4.7020    5.6420 C.ar  500  03R500      0.0378
     14  F14       33.0910    9.3930   10.1100 F     500  03R500     -0.1969
     15  C15       29.9970    7.9580   11.5720 C.ar  500  03R500      0.1485
     16  C16       34.5550   10.7410    7.8440 C.3   500  03R500      0.0927
     17  C17       26.9310    5.6400    6.4530 C.ar  500  03R500      0.0097
     18  C18       27.7730    7.8590    6.8620 C.2   500  03R500      0.3907
     19  C19       28.3530    3.8510    5.5900 C.ar  500  03R500      0.0031
     20  C20       30.3060    7.4020   12.8360 C.ar  500  03R500      0.0456
     21  C21       28.6570    8.1980   11.2400 C.ar  500  03R500      0.0376
     22  C22       35.7970   10.8260    8.7390 C.3   500  03R500      0.0262
     23  C23       33.4210   11.6160    8.4500 C.3   500  03R500      0.0233
     24  C24       27.0870    4.3160    6.0110 C.ar  500  03R500      0.0004
     25  O25       26.8420    8.1470    7.6380 O.co2 500  03R500     -0.2404
     26  O26       28.5070    8.8810    6.3850 O.co2 500  03R500     -0.2404
     27  C27       29.2820    7.0790   13.7620 C.ar  500  03R500      0.1005
     28  C28       27.6500    7.8910   12.1190 C.ar  500  03R500      0.0034
     29  C29       36.7450    9.6040    8.8150 C.3   500  03R500      0.0281
     30  C30       27.9590    7.3420   13.3690 C.ar  500  03R500      0.0082
     31  C31       29.5460    6.5410   15.0410 C.2   500  03R500      0.4767
     32  C32       36.6190    8.7820   10.0360 C.ar  500  03R500     -0.0221
     33  N33       29.1370    7.1670   16.1610 N.pl3 500  03R500      0.2047
     34  N34       30.2120    5.3850   15.2490 N.pl3 500  03R500      0.2047
     35  C35       35.6290    7.7720   10.1260 C.ar  500  03R500     -0.0043
     36  C36       37.4850    8.9910   11.1430 C.ar  500  03R500     -0.0043
     37  C37       35.5030    6.9900   11.2860 C.ar  500  03R500     -0.0003
     38  C38       37.3600    8.2070   12.3080 C.ar  500  03R500     -0.0003
     39  C39       36.3690    7.2070   12.3810 C.ar  500  03R500     -0.0000
@<TRIPOS>BOND
     1    19    13   ar
     2    19    24   ar
     3    13     8   ar
     4     7     3    1
     5    24    17   ar
     6     8     4    1
     7     8    12   ar
     8     4     1    1
     9    26    18   ar
    10    17    12   ar
    11    12    18    1
    12    18    25   ar
    13     3     1    1
    14     3     6    1
    15     1     2    2
    16    11    16    1
    17    11     6    1
    18    16    23    1
    19    16    22    1
    20     6     9    2
    21     2     5    2
    22    22    29    1
    23    29    32    1
    24     9     5    1
    25     9    14    1
    26     5    10    1
    27    32    35   ar
    28    32    36   ar
    29    35    37   ar
    30    10    15    1
    31    36    38   ar
    32    21    15   ar
    33    21    28   ar
    34    37    39   ar
    35    15    20   ar
    36    28    30   ar
    37    38    39   ar
    38    20    27   ar
    39    30    27   ar
    40    27    31    1
    41    31    34    2
    42    31    33    1
