@<TRIPOS>MOLECULE
2ael_SAZ_B_1.pdb
 15 15 0 0 0
SMALL
GASTEIGER

@<TRIPOS>ATOM
      1  C01       38.1100   72.2130   35.1580 C.3   704  SAZ704      0.0622
      2  C02       38.6790   70.7410   35.2550 C.3   704  SAZ704      0.0206
      3  C03       36.6010   72.1120   34.7780 C.3   704  SAZ704      0.0413
      4  C05       38.0410   70.0760   36.5180 C.3   704  SAZ704      0.0231
      5  C07       35.8650   71.2050   35.7960 C.2   704  SAZ704     -0.0332
      6  C08       38.4460   74.8150   37.2320 C.2   704  SAZ704     -0.0331
      7  C09       38.4460   75.1940   35.7700 C.3   704  SAZ704      0.0427
      8  C10       39.4210   74.3550   34.8810 C.3   704  SAZ704      0.0768
      9  C13       37.4230   74.4450   38.0420 C.2   704  SAZ704     -0.0478
     10  C16       35.9560   74.3140   37.6820 C.3   704  SAZ704      0.0260
     11  C17       37.7010   74.1060   39.4730 C.3   704  SAZ704      0.0260
     12  C25       36.5090   70.2840   36.5910 C.2   704  SAZ704     -0.0481
     13  C26       35.7680   69.4360   37.5720 C.3   704  SAZ704      0.0260
     14  N35       38.8470   73.1630   34.1990 N.3   704  SAZ704     -0.2721
     15  C36       39.9710   72.5760   33.4730 C.3   704  SAZ704      0.0896
@<TRIPOS>BOND
     1    15    14    1
     2    14     8    1
     3    14     1    1
     4     3     1    1
     5     3     5    1
     6     8     7    1
     7     1     2    1
     8     2     4    1
     9     7     6    1
    10     5    12    2
    11     4    12    1
    12    12    13    1
    13     6     9    2
    14    10     9    1
    15     9    11    1
