@<TRIPOS>MOLECULE
2aer_FUC_L_1.pdb
 10 10 0 0 0
SMALL
GASTEIGER

@<TRIPOS>ATOM
      1  C1        21.2060   30.7560   64.2070 C.3   2003  FUC2003     0.1776
      2  C2        20.5760   32.1600   64.5600 C.3   2003  FUC2003     0.2141
      3  C3        20.9560   33.2180   63.5100 C.3   2003  FUC2003     0.2172
      4  C4        20.4920   32.7060   62.1220 C.3   2003  FUC2003     0.2116
      5  C5        21.2340   31.3490   61.8530 C.3   2003  FUC2003     0.1483
      6  C6        20.8670   30.7920   60.4840 C.3   2003  FUC2003     0.0349
      7  O2        20.9980   32.5740   65.8780 O.3   2003  FUC2003    -0.2176
      8  O3        20.3320   34.4930   63.8480 O.3   2003  FUC2003    -0.2175
      9  O4        19.0640   32.4460   62.1310 O.3   2003  FUC2003    -0.2177
     10  O5        20.8790   30.3370   62.8690 O.3   2003  FUC2003    -0.3508
@<TRIPOS>BOND
     1     6     5    1
     2     5     4    1
     3     5    10    1
     4     4     9    1
     5     4     3    1
     6    10     1    1
     7     3     8    1
     8     3     2    1
     9     1     2    1
    10     2     7    1
