@<TRIPOS>MOLECULE
2aer_GLC_L_1.pdb
 11 11 0 0 0
SMALL
GASTEIGER

@<TRIPOS>ATOM
      1  C1        38.6530   33.5750   63.3690 C.3   2001  GLC2001     0.1777
      2  C2        38.5820   32.1110   62.8950 C.3   2001  GLC2001     0.2141
      3  C3        39.3780   32.0190   61.5690 C.3   2001  GLC2001     0.2173
      4  C4        38.7410   32.9640   60.5240 C.3   2001  GLC2001     0.2142
      5  C5        38.7470   34.4030   61.0930 C.3   2001  GLC2001     0.1810
      6  C6        37.9810   35.3870   60.1920 C.3   2001  GLC2001     0.2141
      7  O2        39.1420   31.2560   63.8990 O.3   2001  GLC2001    -0.2176
      8  O3        39.3740   30.6910   61.0560 O.3   2001  GLC2001    -0.2175
      9  O4        39.4220   32.9400   59.2630 O.3   2001  GLC2001    -0.2176
     10  O5        38.1070   34.4270   62.3680 O.3   2001  GLC2001    -0.3481
     11  O6        37.6200   36.6640   60.8260 O.3   2001  GLC2001    -0.2176
@<TRIPOS>BOND
     1     9     4    1
     2     6    11    1
     3     6     5    1
     4     4     5    1
     5     4     3    1
     6     8     3    1
     7     5    10    1
     8     3     2    1
     9    10     1    1
    10     2     1    1
    11     2     7    1
