@<TRIPOS>MOLECULE
2aes_BMA_A_1.pdb
 12 12 0 0 0
SMALL
GASTEIGER

@<TRIPOS>ATOM
      1  C1        22.6700   35.8240   51.2840 C.3   407  BMA407      0.3024
      2  C2        22.5640   36.9240   50.1870 C.3   407  BMA407      0.2434
      3  C3        23.7470   37.9430   50.3430 C.3   407  BMA407      0.2199
      4  C4        23.6830   38.5820   51.8010 C.3   407  BMA407      0.2144
      5  C5        23.8420   37.3930   52.8810 C.3   407  BMA407      0.1836
      6  C6        23.7730   37.8610   54.3900 C.3   407  BMA407      0.2142
      7  O1        21.5920   34.9050   51.1930 O.3   407  BMA407     -0.1869
      8  O2        21.3270   37.6260   50.3250 O.3   407  BMA407     -0.2148
      9  O3        23.5980   38.9250   49.2950 O.3   407  BMA407     -0.2174
     10  O4        24.7490   39.5360   51.9660 O.3   407  BMA407     -0.2176
     11  O5        22.7450   36.4130   52.6580 O.3   407  BMA407     -0.3236
     12  O6        24.7710   38.7900   54.7470 O.3   407  BMA407     -0.2176
@<TRIPOS>BOND
     1     9     3    1
     2     2     8    1
     3     2     3    1
     4     2     1    1
     5     3     4    1
     6     7     1    1
     7     1    11    1
     8     4    10    1
     9     4     5    1
    10    11     5    1
    11     5     6    1
    12     6    12    1
