@<TRIPOS>MOLECULE
2aes_MAN_A_1.pdb
 11 11 0 0 0
SMALL
GASTEIGER

@<TRIPOS>ATOM
      1  C1        24.7800   39.4450   48.6820 C.3   406  MAN406      0.1777
      2  C2        24.4670   40.4840   47.5610 C.3   406  MAN406      0.2141
      3  C3        23.6550   39.8260   46.3460 C.3   406  MAN406      0.2173
      4  C4        24.4830   38.6690   45.7370 C.3   406  MAN406      0.2142
      5  C5        24.7470   37.5760   46.8470 C.3   406  MAN406      0.1810
      6  C6        25.5690   36.3920   46.3730 C.3   406  MAN406      0.2141
      7  O2        25.6320   41.0110   46.9860 O.3   406  MAN406     -0.2176
      8  O3        23.4080   40.8270   45.3100 O.3   406  MAN406     -0.2175
      9  O4        23.7850   38.0420   44.6310 O.3   406  MAN406     -0.2176
     10  O5        25.4610   38.2310   48.0280 O.3   406  MAN406     -0.3481
     11  O6        26.9550   36.7200   46.2770 O.3   406  MAN406     -0.2176
@<TRIPOS>BOND
     1     9     4    1
     2     8     3    1
     3     4     3    1
     4     4     5    1
     5    11     6    1
     6     3     2    1
     7     6     5    1
     8     5    10    1
     9     7     2    1
    10     2     1    1
    11    10     1    1
