@<TRIPOS>MOLECULE
2aes_NAG_A_1.pdb
 14 14 0 0 0
SMALL
GASTEIGER

@<TRIPOS>ATOM
      1  C1        25.7890   42.4180   46.8960 C.3   405  NAG405      0.1665
      2  C2        27.1500   42.9050   47.4490 C.3   405  NAG405      0.1576
      3  C3        27.2370   44.4510   47.2600 C.3   405  NAG405      0.2069
      4  C4        27.1340   44.7050   45.6960 C.3   405  NAG405      0.2134
      5  C5        25.7820   44.2080   45.1770 C.3   405  NAG405      0.1809
      6  C6        25.5510   44.3580   43.6640 C.3   405  NAG405      0.2141
      7  C7        27.9220   41.5260   49.3960 C.2   405  NAG405      0.2420
      8  C8        27.8230   41.3710   50.9210 C.3   405  NAG405      0.0964
      9  N2        27.2260   42.5420   48.9040 N.am  405  NAG405     -0.2019
     10  O3        28.4970   44.8840   47.7540 O.3   405  NAG405     -0.2184
     11  O4        27.2250   46.1130   45.3990 O.3   405  NAG405     -0.2176
     12  O5        25.6270   42.7570   45.4790 O.3   405  NAG405     -0.3489
     13  O6        26.5880   43.6970   42.9050 O.3   405  NAG405     -0.2176
     14  O7        28.6000   40.7450   48.7150 O.2   405  NAG405     -0.2733
@<TRIPOS>BOND
     1    13     6    1
     2     6     5    1
     3     5    12    1
     4     5     4    1
     5    11     4    1
     6    12     1    1
     7     4     3    1
     8     1     2    1
     9     3     2    1
    10     3    10    1
    11     2     9    1
    12    14     7    2
    13     9     7   am
    14     7     8    1
