@<TRIPOS>MOLECULE
2aes_UDH_A_1.pdb
 32 33 0 0 0
SMALL
GASTEIGER

@<TRIPOS>ATOM
      1  N1        37.8180   50.6220   40.7970 N.am  399  UDH399     -0.1766
      2  C2        38.9420   51.1620   40.1320 C.1   399  UDH399      0.2845
      3  N3        39.9420   50.2440   39.8320 N.2   399  UDH399     -0.2452
      4  C4        39.9400   48.8610   40.1180 C.1   399  UDH399      0.2182
      5  C5        38.7610   48.3820   40.7890 C.2   399  UDH399      0.1242
      6  C6        37.7730   49.2270   41.0990 C.2   399  UDH399      0.0929
      7  O2        38.9700   52.3650   39.8770 O.2   399  UDH399     -0.1918
      8  O4        40.8920   48.1750   39.8020 O.2   399  UDH399     -0.2085
      9  C1B       36.7180   51.6000   41.1560 C.3   399  UDH399      0.2401
     10  C2B       35.8950   52.2230   40.0760 C.3   399  UDH399      0.2319
     11  O2'       35.4420   53.5540   40.4160 O.3   399  UDH399     -0.2157
     12  C3B       34.8110   51.2030   39.9770 C.3   399  UDH399      0.2158
     13  C4B       34.4620   50.9200   41.4350 C.3   399  UDH399      0.1799
     14  O4'       35.8150   50.8450   41.9650 O.3   399  UDH399     -0.3320
     15  O3'       33.6850   51.6170   39.2220 O.3   399  UDH399     -0.2175
     16  C5B       33.6940   49.6310   41.5230 C.3   399  UDH399      0.1813
     17  O5'       34.4260   48.4630   41.1390 O.3   399  UDH399     -0.3112
     18  PA        34.0050   47.5710   39.8910 P.3   399  UDH399      0.2189
     19  O1A       33.6210   48.4530   38.7540 O.2   399  UDH399     -0.5170
     20  O2A       34.9910   46.5240   39.5050 O.3   399  UDH399     -0.4371
     21  O3A       32.6590   46.8120   40.5140 O.3   399  UDH399     -0.2703
     22  PB        31.5100   46.1050   39.7130 P.3   399  UDH399      0.2188
     23  O1B       30.6760   45.5020   40.9250 O.3   399  UDH399     -0.4371
     24  O2B       32.2010   45.0030   38.9570 O.3   399  UDH399     -0.3139
     25  O3B       30.9800   46.9870   38.6510 O.2   399  UDH399     -0.5170
     26  C1'       32.8320   43.8540   39.5940 C.3   399  UDH399      0.1491
     27  C2'       33.6260   43.1800   38.4630 C.3   399  UDH399      0.0325
     28  C3'       32.6280   42.1640   37.8930 C.3   399  UDH399      0.0026
     29  C4'       32.8690   42.2210   36.3820 C.3   399  UDH399      0.0016
     30  C5'       31.8140   41.2610   35.8170 C.3   399  UDH399      0.0205
     31  C6'       32.5480   40.5560   34.6740 C.3   399  UDH399      0.1093
     32  N6'       31.6970   40.7460   33.5750 N.3   399  UDH399     -0.1314
@<TRIPOS>BOND
     1    32    31    1
     2    31    30    1
     3    30    29    1
     4    29    28    1
     5    28    27    1
     6    27    26    1
     7    25    22    2
     8    19    18    2
     9    24    26    1
    10    24    22    1
    11    15    12    1
    12    20    18    1
    13    22    21    1
    14    22    23    1
    15     8     4    2
    16     3     4    2
    17     3     2    2
    18     7     2    2
    19    18    21    1
    20    18    17    1
    21    12    10    1
    22    12    13    1
    23    10    11    1
    24    10     9    1
    25     4     5    1
    26     2     1   am
    27     5     6    2
    28     1     6    1
    29     1     9    1
    30    17    16    1
    31     9    14    1
    32    13    16    1
    33    13    14    1
