@<TRIPOS>MOLECULE
2aex_CIT_A_1.pdb
 13 12 0 0 0
SMALL
GASTEIGER

@<TRIPOS>ATOM
      1  C1        14.1360   52.7560   25.4280 C.2   500  CIT500      0.3680
      2  O1        12.8890   52.8550   25.2610 O.co2 500  CIT500     -0.2455
      3  O2        14.5940   51.8120   26.1150 O.co2 500  CIT500     -0.2455
      4  C2        15.0860   53.7700   24.8320 C.3   500  CIT500      0.1560
      5  C3        14.7920   55.1430   25.4160 C.3   500  CIT500      0.2402
      6  O7        13.4210   55.5720   25.1190 O.3   500  CIT500     -0.2129
      7  C4        15.0410   55.1260   26.9170 C.3   500  CIT500      0.1560
      8  C5        14.7860   56.4480   27.5950 C.2   500  CIT500      0.3680
      9  O3        14.6160   57.5170   26.9660 O.co2 500  CIT500     -0.2455
     10  O4        14.7830   56.4390   28.8320 O.co2 500  CIT500     -0.2455
     11  C6        15.7790   56.0660   24.7560 C.2   500  CIT500      0.3927
     12  O5        15.3900   56.8830   23.8930 O.co2 500  CIT500     -0.2429
     13  O6        16.9950   55.9720   25.0760 O.co2 500  CIT500     -0.2429
@<TRIPOS>BOND
     1    12    11   ar
     2    11    13   ar
     3    11     5    1
     4     4     5    1
     5     4     1    1
     6     6     5    1
     7     2     1   ar
     8     5     7    1
     9     1     3   ar
    10     7     8    1
    11     9     8   ar
    12     8    10   ar
