@<TRIPOS>MOLECULE
2aey_NAG_A_1.pdb
 14 14 0 0 0
SMALL
GASTEIGER

@<TRIPOS>ATOM
      1  C1        39.0240   57.6990   16.6260 C.3   650  NAG650      0.1665
      2  C2        39.3840   58.4290   15.3390 C.3   650  NAG650      0.1576
      3  C3        40.6390   59.2870   15.4840 C.3   650  NAG650      0.2069
      4  C4        40.5700   60.0600   16.8030 C.3   650  NAG650      0.2134
      5  C5        40.5450   59.0770   17.9640 C.3   650  NAG650      0.1809
      6  C6        39.6520   59.5340   19.0870 C.3   650  NAG650      0.2141
      7  C7        39.2220   57.7730   13.0550 C.2   650  NAG650      0.2420
      8  C8        40.3370   57.9120   12.0210 C.3   650  NAG650      0.0964
      9  N2        39.5840   57.4590   14.2900 N.am  650  NAG650     -0.2019
     10  O3        40.7120   60.1850   14.3900 O.3   650  NAG650     -0.2184
     11  O4        41.7000   60.9560   16.9710 O.3   650  NAG650     -0.2176
     12  O5        40.1250   57.7380   17.5530 O.3   650  NAG650     -0.3489
     13  O6        40.0680   60.8070   19.5620 O.3   650  NAG650     -0.2176
     14  O7        38.0430   57.9820   12.7390 O.2   650  NAG650     -0.2733
@<TRIPOS>BOND
     1     8     7    1
     2    14     7    2
     3     7     9   am
     4     9     2    1
     5    10     3    1
     6     2     3    1
     7     2     1    1
     8     3     4    1
     9     1    12    1
    10     4    11    1
    11     4     5    1
    12    12     5    1
    13     5     6    1
    14     6    13    1
