@<TRIPOS>MOLECULE
2aey_DQQ_A_1.pdb
 11 11 0 0 0
SMALL
GASTEIGER

@<TRIPOS>ATOM
      1  N1         7.1880   69.1610   -3.8010 N.3   801  DQQ801     -0.2102
      2  C1         6.5870   68.6820   -2.5310 C.3   801  DQQ801      0.1386
      3  C2         5.2380   68.0900   -2.9210 C.3   801  DQQ801      0.2020
      4  C3         4.8870   68.9370   -4.1110 C.3   801  DQQ801      0.2020
      5  C4         6.2160   68.8840   -4.8730 C.3   801  DQQ801      0.1386
      6  C5         7.4650   67.6810   -1.8100 C.3   801  DQQ801      0.2020
      7  C6         6.3420   69.9300   -5.9470 C.3   801  DQQ801      0.2020
      8  O1         4.2830   68.2520   -1.8930 O.3   801  DQQ801     -0.2188
      9  O2         3.8010   68.3970   -4.8550 O.3   801  DQQ801     -0.2188
     10  O3         8.7900   68.1670   -1.6180 O.3   801  DQQ801     -0.2188
     11  O4         7.5990   69.8150   -6.5940 O.3   801  DQQ801     -0.2188
@<TRIPOS>BOND
     1    11     7    1
     2     7     5    1
     3     5     4    1
     4     5     1    1
     5     9     4    1
     6     4     3    1
     7     1     2    1
     8     3     2    1
     9     3     8    1
    10     2     6    1
    11     6    10    1
