@<TRIPOS>MOLECULE
2aez_DQR_A_1.pdb
 34 36 0 0 0
SMALL
GASTEIGER

@<TRIPOS>ATOM
      1  C1         9.0700   73.6060   -3.5590 C.3   801  DQR801      0.2713
      2  C10        6.5830   71.7190   -3.6820 C.3   801  DQR801      0.2034
      3  C11        8.0330   68.6460   -2.1000 C.3   801  DQR801      0.2406
      4  C2        10.3730   73.0380   -2.9690 C.3   801  DQR801      0.2406
      5  C20        6.6920   73.1220   -3.0810 C.3   801  DQR801      0.2483
      6  C21        7.1380   69.2810   -3.1540 C.3   801  DQR801      0.2499
      7  C3        10.9900   73.9920   -1.9530 C.3   801  DQR801      0.2198
      8  C30        5.7150   73.1820   -1.9130 C.3   801  DQR801      0.2380
      9  C31        5.7840   68.5280   -3.3560 C.3   801  DQR801      0.2381
     10  C4        11.2180   75.3660   -2.5810 C.3   801  DQR801      0.2144
     11  C40        4.8640   74.3970   -2.2430 C.3   801  DQR801      0.2167
     12  C41        5.4410   68.7950   -4.7990 C.3   801  DQR801      0.2167
     13  C5         9.8530   75.9080   -3.0580 C.3   801  DQR801      0.1835
     14  C50        5.0080   74.5930   -3.7680 C.3   801  DQR801      0.1835
     15  C51        6.8160   68.8660   -5.5000 C.3   801  DQR801      0.1835
     16  C6         9.9610   77.2690   -3.7090 C.3   801  DQR801      0.2142
     17  C60        5.0420   76.0350   -4.1990 C.3   801  DQR801      0.2142
     18  C61        6.9080   69.9270   -6.5860 C.3   801  DQR801      0.2142
     19  O1         8.0020   73.5100   -2.6160 O.3   801  DQR801     -0.3034
     20  O10        6.9520   70.6790   -2.7210 O.3   801  DQR801     -0.3249
     21  O11        8.3040   67.2790   -2.3610 O.3   801  DQR801     -0.2149
     22  O2        10.1370   71.7290   -2.4610 O.3   801  DQR801     -0.2149
     23  O20        6.2450   73.9560   -4.1280 O.3   801  DQR801     -0.3273
     24  O21        7.7780   69.1680   -4.4290 O.3   801  DQR801     -0.3273
     25  O3        12.2090   73.3910   -1.4890 O.3   801  DQR801     -0.2174
     26  O30        6.3820   73.3640   -0.6640 O.3   801  DQR801     -0.2150
     27  O31        4.7310   68.9720   -2.5160 O.3   801  DQR801     -0.2150
     28  O4        11.8060   76.2630   -1.6300 O.3   801  DQR801     -0.2176
     29  O40        3.5130   74.2110   -1.8180 O.3   801  DQR801     -0.2175
     30  O41        4.5630   67.8040   -5.3160 O.3   801  DQR801     -0.2175
     31  O5         9.2780   74.9570   -4.0430 O.3   801  DQR801     -0.3256
     32  O60        5.1910   76.0710   -5.6160 O.3   801  DQR801     -0.2176
     33  O61        8.2110   69.9230   -7.1590 O.3   801  DQR801     -0.2176
     34  O6         8.3710   77.7190   -4.1520 O.3   801  DQR801     -0.2176
@<TRIPOS>BOND
     1    33    18    1
     2    18    15    1
     3    32    17    1
     4    15    12    1
     5    15    24    1
     6    30    12    1
     7    12     9    1
     8    24     6    1
     9    17    14    1
    10    34    16    1
    11    23    14    1
    12    23     5    1
    13    31     1    1
    14    31    13    1
    15    14    11    1
    16    16    13    1
    17     2     5    1
    18     2    20    1
    19     1     4    1
    20     1    19    1
    21     9     6    1
    22     9    27    1
    23     6    20    1
    24     6     3    1
    25     5    19    1
    26     5     8    1
    27    13    10    1
    28     4    22    1
    29     4     7    1
    30    10     7    1
    31    10    28    1
    32    21     3    1
    33    11     8    1
    34    11    29    1
    35     7    25    1
    36     8    26    1
