@<TRIPOS>MOLECULE
2aez_NAG_A_1.pdb
 14 14 0 0 0
SMALL
GASTEIGER

@<TRIPOS>ATOM
      1  C1        39.2590   57.1520   16.6200 C.3   650  NAG650      0.1665
      2  C2        39.2490   58.0910   15.4190 C.3   650  NAG650      0.1576
      3  C3        40.3740   59.1190   15.5650 C.3   650  NAG650      0.2069
      4  C4        40.1890   59.8750   16.8800 C.3   650  NAG650      0.2134
      5  C5        40.1390   58.8720   18.0370 C.3   650  NAG650      0.1809
      6  C6        39.8670   59.5250   19.3830 C.3   650  NAG650      0.2141
      7  C7        38.7610   57.7160   13.1000 C.2   650  NAG650      0.2420
      8  C8        39.5870   58.4180   12.0320 C.3   650  NAG650      0.0964
      9  N2        39.4000   57.3280   14.1980 N.am  650  NAG650     -0.2019
     10  O3        40.3730   60.0230   14.4640 O.3   650  NAG650     -0.2184
     11  O4        41.2730   60.8110   17.0820 O.3   650  NAG650     -0.2176
     12  O5        39.0930   57.9020   17.8240 O.3   650  NAG650     -0.3489
     13  O6        39.6510   60.9230   19.2510 O.3   650  NAG650     -0.2176
     14  O7        37.5540   57.5440   12.9380 O.2   650  NAG650     -0.2733
@<TRIPOS>BOND
     1     8     7    1
     2    14     7    2
     3     7     9   am
     4     9     2    1
     5    10     3    1
     6     2     3    1
     7     2     1    1
     8     3     4    1
     9     1    12    1
    10     4    11    1
    11     4     5    1
    12    12     5    1
    13     5     6    1
    14    13     6    1
