@<TRIPOS>MOLECULE
2af3_COA_C_1.pdb
 48 50 0 0 0
SMALL
GASTEIGER

@<TRIPOS>ATOM
      1  N1A       26.8110   42.0370   -7.7550 N.2   501  COA501      0.0021
      2  C2A       26.9300   42.6160   -9.0020 C.3   501  COA501      0.5254
      3  N3A       25.8350   43.2340   -9.5750 N.2   501  COA501     -0.0055
      4  C4A       24.6480   43.2580   -8.9210 C.2   501  COA501      0.3518
      5  C5A       24.5050   42.6780   -7.6720 C.2   501  COA501      0.2526
      6  C6A       25.6010   42.0590   -7.0870 C.2   501  COA501      0.4393
      7  N6A       25.5010   41.5940   -5.8460 N.pl3 501  COA501      0.2180
      8  N7A       23.2260   42.8490   -7.2600 N.2   501  COA501     -0.2095
      9  C8A       22.5590   43.5270   -8.2020 C.3   501  COA501      0.3377
     10  N9A       23.4300   43.7910   -9.2340 N.pl3 501  COA501     -0.1439
     11  C1B       23.1080   44.5090  -10.4790 C.3   501  COA501      0.3185
     12  C2B       21.5890   44.6100  -10.6100 C.3   501  COA501      0.2543
     13  O2B       21.0900   43.6540  -11.5330 O.3   501  COA501     -0.2131
     14  C3B       21.3180   46.0570  -10.9950 C.3   501  COA501      0.1928
     15  O3B       20.8890   46.2510  -12.3440 O.3   501  COA501     -0.2673
     16  P3B       21.3100   45.3790  -13.6710 P.3   501  COA501      0.5327
     17  O7A       20.2180   44.3490  -13.9740 O.3   501  COA501     -0.1145
     18  O8A       22.6150   44.6220  -13.4470 O.3   501  COA501     -0.1145
     19  O9A       21.4340   46.3400  -14.8540 O.2   501  COA501     -0.2224
     20  C4B       22.6420   46.7700  -10.7260 C.3   501  COA501      0.1795
     21  O4B       23.6450   45.8120  -10.4420 O.3   501  COA501     -0.3136
     22  C5B       22.5620   47.7720   -9.5780 C.3   501  COA501      0.1812
     23  O5B       23.7670   48.5210   -9.5880 O.3   501  COA501     -0.3112
     24  P1A       23.8390   49.9800  -10.2650 P.3   501  COA501      0.2189
     25  O1A       23.0360   51.0100   -9.5030 O.3   501  COA501     -0.4371
     26  O2A       25.2710   50.3760  -10.5170 O.2   501  COA501     -0.5170
     27  O3A       23.0710   49.6920  -11.6650 O.3   501  COA501     -0.2703
     28  P2A       23.3780   50.5250  -13.0210 P.3   501  COA501      0.2188
     29  O4A       22.3400   50.0910  -14.0330 O.2   501  COA501     -0.5170
     30  O5A       23.2430   51.9940  -12.7540 O.3   501  COA501     -0.4371
     31  O6A       24.8500   50.0540  -13.4910 O.3   501  COA501     -0.3138
     32  CBP       27.1750   50.4680  -14.0730 C.3   501  COA501      0.0645
     33  CCP       25.7170   50.9320  -14.1650 C.3   501  COA501      0.1519
     34  CDP       27.2980   48.9870  -14.4760 C.3   501  COA501      0.0056
     35  CEP       27.9940   51.3150  -15.0600 C.3   501  COA501      0.0056
     36  CAP       27.6140   50.6570  -12.6030 C.3   501  COA501      0.2312
     37  OAP       27.5770   49.4660  -11.8360 O.3   501  COA501     -0.2131
     38  C9P       28.8200   51.5390  -12.3510 C.2   501  COA501      0.2719
     39  O9P       28.6310   52.9300  -12.1780 O.2   501  COA501     -0.2706
     40  N8P       30.0240   50.9660  -12.3100 N.am  501  COA501     -0.2028
     41  C7P       31.1250   51.5030  -13.0980 C.3   501  COA501      0.1248
     42  C6P       32.1740   50.4570  -13.4890 C.3   501  COA501      0.1102
     43  C5P       32.4820   49.5730  -12.3020 C.2   501  COA501      0.2432
     44  O5P       32.2340   49.9560  -11.1430 O.2   501  COA501     -0.2733
     45  N4P       32.9980   48.3800  -12.5830 N.am  501  COA501     -0.2044
     46  C3P       32.1560   47.1940  -12.5700 C.3   501  COA501      0.1276
     47  C2P       32.9050   45.9530  -13.0430 C.3   501  COA501      0.0920
     48  S1P       32.0110   45.0510  -14.3270 S.3   501  COA501     -0.0802
@<TRIPOS>BOND
     1    35    32    1
     2    19    16    2
     3    34    32    1
     4    48    47    1
     5    33    32    1
     6    33    31    1
     7    32    36    1
     8    29    28    2
     9    17    16    1
    10    16    18    1
    11    16    15    1
    12    31    28    1
    13    42    41    1
    14    42    43    1
    15    41    40    1
    16    47    46    1
    17    28    30    1
    18    28    27    1
    19    36    38    1
    20    36    37    1
    21    45    46    1
    22    45    43   am
    23    38    40   am
    24    38    39    2
    25    15    14    1
    26    43    44    2
    27    27    24    1
    28    13    12    1
    29    14    20    1
    30    14    12    1
    31    20    21    1
    32    20    22    1
    33    12    11    1
    34    26    24    2
    35    11    21    1
    36    11    10    1
    37    24    23    1
    38    24    25    1
    39    23    22    1
    40     3     2    1
    41     3     4    2
    42    10     4    1
    43    10     9    1
    44     2     1    1
    45     4     5    1
    46     9     8    1
    47     1     6    2
    48     5     8    2
    49     5     6    1
    50     6     7    1
