@<TRIPOS>MOLECULE
2af4_COA_C_1.pdb
 48 50 0 0 0
SMALL
GASTEIGER

@<TRIPOS>ATOM
      1  N1A       27.8350   43.6990   -8.3420 N.2   501  COA501      0.0021
      2  C2A       27.8460   44.2780   -9.6160 C.3   501  COA501      0.5254
      3  N3A       26.6560   44.8010  -10.0930 N.2   501  COA501     -0.0055
      4  C4A       25.5260   44.7430   -9.3300 C.2   501  COA501      0.3518
      5  C5A       25.5370   44.1910   -8.0570 C.2   501  COA501      0.2526
      6  C6A       26.6970   43.6660   -7.5570 C.2   501  COA501      0.4393
      7  N6A       26.6350   43.1550   -6.3160 N.pl3 501  COA501      0.2180
      8  N7A       24.3060   44.2750   -7.4920 N.2   501  COA501     -0.2095
      9  C8A       23.5110   44.8660   -8.3750 C.3   501  COA501      0.3377
     10  N9A       24.2440   45.1690   -9.5230 N.pl3 501  COA501     -0.1439
     11  C1B       23.7580   45.9140  -10.7050 C.3   501  COA501      0.3185
     12  C2B       22.2280   45.9640  -10.6650 C.3   501  COA501      0.2543
     13  O2B       21.6930   45.0680  -11.6180 O.3   501  COA501     -0.2131
     14  C3B       21.8250   47.3770  -10.9300 C.3   501  COA501      0.1928
     15  O3B       21.2540   47.3820  -12.2460 O.3   501  COA501     -0.2673
     16  P3B       21.8720   46.6590  -13.6180 P.3   501  COA501      0.5327
     17  O7A       21.6850   45.1280  -13.7400 O.3   501  COA501     -0.1145
     18  O8A       23.3850   46.9490  -13.6340 O.3   501  COA501     -0.1145
     19  O9A       21.1810   47.2470  -14.8720 O.2   501  COA501     -0.2224
     20  C4B       23.1380   48.1550  -10.7000 C.3   501  COA501      0.1795
     21  O4B       24.2300   47.2540  -10.7410 O.3   501  COA501     -0.3136
     22  C5B       23.2650   48.9580   -9.3740 C.3   501  COA501      0.1812
     23  O5B       24.3090   49.9280   -9.5520 O.3   501  COA501     -0.3112
     24  P1A       24.0470   51.4970   -9.9990 P.3   501  COA501      0.2189
     25  O1A       23.0100   52.1350   -9.1230 O.3   501  COA501     -0.4371
     26  O2A       25.4350   52.0730  -10.2020 O.2   501  COA501     -0.5170
     27  O3A       23.2270   51.3440  -11.3830 O.3   501  COA501     -0.2703
     28  P2A       23.2440   52.3140  -12.6690 P.3   501  COA501      0.2188
     29  O4A       21.9800   51.9080  -13.4390 O.2   501  COA501     -0.5170
     30  O5A       23.5640   53.7660  -12.7600 O.3   501  COA501     -0.4371
     31  O6A       24.5720   51.7590  -13.3070 O.3   501  COA501     -0.3138
     32  CBP       26.9430   52.0500  -13.7740 C.3   501  COA501      0.0645
     33  CCP       25.5230   52.6100  -13.8430 C.3   501  COA501      0.1519
     34  CDP       26.8610   50.5780  -14.0830 C.3   501  COA501      0.0056
     35  CEP       27.7390   52.6900  -14.9180 C.3   501  COA501      0.0056
     36  CAP       27.5000   52.3830  -12.3590 C.3   501  COA501      0.2312
     37  OAP       27.6660   51.2680  -11.5050 O.3   501  COA501     -0.2131
     38  C9P       28.8070   53.0830  -12.2800 C.2   501  COA501      0.2719
     39  O9P       29.0140   54.2930  -12.9330 O.2   501  COA501     -0.2706
     40  N8P       29.7280   52.5010  -11.5070 N.am  501  COA501     -0.2028
     41  C7P       30.9910   53.1630  -11.2770 C.3   501  COA501      0.1248
     42  C6P       31.8480   53.1020  -12.5230 C.3   501  COA501      0.1102
     43  C5P       32.0360   51.6450  -12.7330 C.2   501  COA501      0.2432
     44  O5P       32.7780   51.0340  -11.9350 O.2   501  COA501     -0.2733
     45  N4P       31.3670   51.0780  -13.7440 N.am  501  COA501     -0.2044
     46  C3P       31.6540   49.6950  -14.0710 C.3   501  COA501      0.1276
     47  C2P       33.1530   49.5230  -14.3610 C.3   501  COA501      0.0920
     48  S1P       33.4490   48.2770  -15.6220 S.3   501  COA501     -0.0802
@<TRIPOS>BOND
     1    48    47    1
     2    35    32    1
     3    19    16    2
     4    47    46    1
     5    34    32    1
     6    46    45    1
     7    33    32    1
     8    33    31    1
     9    32    36    1
    10    45    43   am
    11    17    16    1
    12    18    16    1
    13    16    15    1
    14    29    28    2
    15    31    28    1
    16    39    38    2
    17    30    28    1
    18    43    42    1
    19    43    44    2
    20    28    27    1
    21    42    41    1
    22    36    38    1
    23    36    37    1
    24    38    40   am
    25    15    14    1
    26    13    12    1
    27    40    41    1
    28    27    24    1
    29    14    20    1
    30    14    12    1
    31    21    11    1
    32    21    20    1
    33    11    12    1
    34    11    10    1
    35    20    22    1
    36    26    24    2
    37     3     2    1
    38     3     4    2
    39    24    23    1
    40    24    25    1
    41     2     1    1
    42    23    22    1
    43    10     4    1
    44    10     9    1
    45     4     5    1
    46     9     8    1
    47     1     6    2
    48     5     6    1
    49     5     8    2
    50     6     7    1
