@<TRIPOS>MOLECULE
2af6_BRU_A_1.pdb
 21 22 0 0 0
SMALL
GASTEIGER

@<TRIPOS>ATOM
      1  N1        -9.7250   35.3340  -63.6080 N.am  4603  BRU4603    -0.1786
      2  C2       -10.0560   34.9310  -64.9310 C.1   4603  BRU4603     0.2845
      3  N3       -10.5290   35.8240  -65.8010 N.2   4603  BRU4603    -0.2447
      4  C4       -10.7200   37.1130  -65.4810 C.1   4603  BRU4603     0.2238
      5  C5       -10.4090   37.5520  -64.1070 C.2   4603  BRU4603     0.1452
      6  C6        -9.9120   36.6100  -63.2180 C.2   4603  BRU4603     0.0988
      7  O2        -9.9100   33.7430  -65.3220 O.2   4603  BRU4603    -0.1918
      8  O4       -11.1680   37.9270  -66.3310 O.2   4603  BRU4603    -0.2080
      9 BR        -10.7220   39.3490  -63.5890 Br    4603  BRU4603    -0.0340
     10  C1'       -9.1870   34.3740  -62.6450 C.3   4603  BRU4603     0.2090
     11  C2'       -7.8550   33.8750  -63.2010 C.3   4603  BRU4603     0.0874
     12  C3'       -6.9200   33.8960  -62.0120 C.3   4603  BRU4603     0.1857
     13  C4'       -7.4900   34.9470  -61.0760 C.3   4603  BRU4603     0.1774
     14  O3'       -7.0040   32.5990  -61.4260 O.3   4603  BRU4603    -0.2203
     15  O4'       -8.8820   35.0260  -61.4020 O.3   4603  BRU4603    -0.3339
     16  C5'       -6.8210   36.3130  -61.2730 C.3   4603  BRU4603     0.1858
     17  O5'       -6.8640   36.6370  -62.6690 O.3   4603  BRU4603    -0.2675
     18  P         -6.3210   37.9950  -63.3420 P.3   4603  BRU4603     0.5327
     19  OP1       -6.0720   37.7070  -64.7940 O.2   4603  BRU4603    -0.2224
     20  OP2       -7.2930   39.1250  -63.0470 O.3   4603  BRU4603    -0.1145
     21  OP3       -5.0230   38.2840  -62.7000 O.3   4603  BRU4603    -0.1145
@<TRIPOS>BOND
     1     8     4    2
     2     3     4    2
     3     3     2    2
     4     4     5    1
     5     7     2    2
     6     2     1   am
     7    19    18    2
     8     5     9    1
     9     5     6    2
    10     1     6    1
    11     1    10    1
    12    18    20    1
    13    18    21    1
    14    18    17    1
    15    11    10    1
    16    11    12    1
    17    17    16    1
    18    10    15    1
    19    12    14    1
    20    12    13    1
    21    15    13    1
    22    16    13    1
