@<TRIPOS>MOLECULE
2afh_CLF_B_1.pdb
 15 36 0 0 0
SMALL
GASTEIGER

@<TRIPOS>ATOM
      1 FE1        54.2910   36.6990   24.4060 Fe    2498  CLF2498     0.0000
      2 FE2        56.2200   35.7880   23.0700 Fe    2498  CLF2498     0.0000
      3 FE3        53.8110   34.4450   22.9860 Fe    2498  CLF2498     0.0000
      4 FE4        55.3320   34.3610   25.1380 Fe    2498  CLF2498     0.0000
      5  S1        56.1300   36.2700   25.6920 S.3   2498  CLF2498     0.0000
      6  S2A       54.2400   36.5350   22.1600 S.3   2498  CLF2498     0.0000
      7  S4A       55.8900   33.5260   23.1160 S.3   2498  CLF2498     0.0000
      8  S3A       53.1470   34.8520   25.1150 S.3   2498  CLF2498     0.0000
      9 FE5        56.0510   35.6880   27.7150 Fe    2498  CLF2498     0.0000
     10 FE6        57.8580   37.5310   27.1690 Fe    2498  CLF2498     0.0000
     11 FE7        56.1560   37.8240   29.3660 Fe    2498  CLF2498     0.0000
     12 FE8        55.4270   38.0670   26.8060 Fe    2498  CLF2498     0.0000
     13  S2B       57.7760   36.2220   29.0480 S.3   2498  CLF2498     0.0000
     14  S3B       56.8310   39.4320   27.8620 S.3   2498  CLF2498     0.0000
     15  S4B       54.2950   36.9320   28.4170 S.3   2498  CLF2498     0.0000
@<TRIPOS>BOND
     1     6     3    1
     2     6     2    1
     3     6     1    1
     4     3     2    1
     5     3     7    1
     6     3     1    1
     7     3     8    1
     8     3     4    1
     9     2     7    1
    10     2     1    1
    11     2     4    1
    12     2     5    1
    13     7     4    1
    14     1     8    1
    15     1     4    1
    16     1     5    1
    17     8     4    1
    18     4     5    1
    19     5    12    1
    20     5    10    1
    21     5     9    1
    22    12    10    1
    23    12     9    1
    24    12    14    1
    25    12    15    1
    26    12    11    1
    27    10     9    1
    28    10    14    1
    29    10    13    1
    30    10    11    1
    31     9    15    1
    32     9    13    1
    33     9    11    1
    34    14    11    1
    35    15    11    1
    36    13    11    1
