@<TRIPOS>MOLECULE
2afh_CFN_A_1.pdb
 18 33 0 0 0
SMALL
GASTEIGER

@<TRIPOS>ATOM
      1  S3A       37.6900   27.5770   17.7690 S.3   2496  CFN2496     0.0000
      2 FE4        39.2700   26.0140   17.5670 Fe    2496  CFN2496     0.0000
      3  S1A       40.7680   26.2250   15.8740 S.3   2496  CFN2496     0.0000
      4  S4A       38.6720   23.8250   17.6910 S.3   2496  CFN2496     0.0000
      5 FE3        40.3630   24.2330   19.1480 Fe    2496  CFN2496     0.0000
      6  S2A       42.2770   23.7240   18.0570 S.3   2496  CFN2496     0.0000
      7 FE7        40.1580   25.8750   21.1150 Fe    2496  CFN2496     0.0000
      8  S4B       38.3590   27.1120   21.5860 S.3   2496  CFN2496     0.0000
      9 MO1        40.2590   28.4920   21.9380 Mo    2496  CFN2496     0.0000
     10  S1B       40.5380   29.4310   19.7480 S.3   2496  CFN2496     0.0000
     11 FE6        41.6880   27.5220   19.8110 Fe    2496  CFN2496     0.0000
     12 FE2        41.8190   25.9420   17.8460 Fe    2496  CFN2496     0.0000
     13 FE1        40.6220   24.0000   16.5090 Fe    2496  CFN2496     0.0000
     14 FE5        39.1530   27.6680   19.5110 Fe    2496  CFN2496     0.0000
     15  S2B       43.4700   27.3710   18.4830 S.3   2496  CFN2496     0.0000
     16  S3B       42.0090   26.9110   21.9620 S.3   2496  CFN2496     0.0000
     17  S5A       40.0480   23.5990   21.3360 S.3   2496  CFN2496     0.0000
     18  NX        40.4070   26.2260   19.1610 N.4   2496  CFN2496     0.0000
@<TRIPOS>BOND
     1     3    13    1
     2     3     2    1
     3     3    12    1
     4    13     4    1
     5    13     6    1
     6     2     4    1
     7     2     1    1
     8     2    12    1
     9     2    18    1
    10     2    14    1
    11     4     5    1
    12     1    14    1
    13    12     6    1
    14    12    15    1
    15    12    18    1
    16    12    11    1
    17     6     5    1
    18    15    11    1
    19     5     7    1
    20     5    17    1
    21    18    14    1
    22    18    11    1
    23    14    10    1
    24    14    11    1
    25    14     8    1
    26    10    11    1
    27    10     9    1
    28    11    16    1
    29     7    17    1
    30     7     8    1
    31     7    16    1
    32     8     9    1
    33     9    16    1
