@<TRIPOS>MOLECULE
2afi_CLF_B_1.pdb
 15 36 0 0 0
SMALL
GASTEIGER

@<TRIPOS>ATOM
      1 FE1         4.3310   32.4660  -13.5010 Fe    1498  CLF1498     0.0000
      2 FE2         3.0700   34.7270  -13.6280 Fe    1498  CLF1498     0.0000
      3 FE3         5.0080   34.2760  -11.7990 Fe    1498  CLF1498     0.0000
      4 FE4         2.6340   33.3490  -11.6320 Fe    1498  CLF1498     0.0000
      5  S1         2.1710   32.3910  -13.4450 S.3   1498  CLF1498     0.0000
      6  S2A        5.3020   34.4020  -14.0050 S.3   1498  CLF1498     0.0000
      7  S4A        3.1550   35.4530  -11.4550 S.3   1498  CLF1498     0.0000
      8  S3A        4.5350   32.1990  -11.3010 S.3   1498  CLF1498     0.0000
      9 FE5         0.4660   31.2420  -12.9610 Fe    1498  CLF1498     0.0000
     10 FE6         0.3170   32.5540  -15.1710 Fe    1498  CLF1498     0.0000
     11 FE7        -0.1650   29.9270  -15.1430 Fe    1498  CLF1498     0.0000
     12 FE8         2.2190   30.9630  -15.0240 Fe    1498  CLF1498     0.0000
     13  S2B       -1.4110   31.4880  -14.1410 S.3   1498  CLF1498     0.0000
     14  S3B        0.8800   31.0710  -16.7630 S.3   1498  CLF1498     0.0000
     15  S4B        1.4070   29.3240  -13.7110 S.3   1498  CLF1498     0.0000
@<TRIPOS>BOND
     1    14    10    1
     2    14    11    1
     3    14    12    1
     4    10    11    1
     5    10    12    1
     6    10    13    1
     7    10     5    1
     8    10     9    1
     9    11    12    1
    10    11    13    1
    11    11    15    1
    12    11     9    1
    13    12    15    1
    14    12     5    1
    15    12     9    1
    16    13     9    1
    17     6     2    1
    18     6     1    1
    19     6     3    1
    20    15     9    1
    21     2     1    1
    22     2     5    1
    23     2     3    1
    24     2     4    1
    25     2     7    1
    26     1     5    1
    27     1     3    1
    28     1     4    1
    29     1     8    1
    30     5     9    1
    31     5     4    1
    32     3     4    1
    33     3     7    1
    34     3     8    1
    35     4     7    1
    36     4     8    1
