@<TRIPOS>MOLECULE
2afi_CFN_A_1.pdb
 18 34 0 0 0
SMALL
GASTEIGER

@<TRIPOS>ATOM
      1  S3A       19.0200   30.0950   -0.6540 S.3   496  CFN496      0.0000
      2 FE4        17.6480   31.5100    0.4440 Fe    496  CFN496      0.0000
      3  S1A       17.5960   33.6790   -0.1820 S.3   496  CFN496      0.0000
      4  S4A       17.6750   31.5150    2.6960 S.3   496  CFN496      0.0000
      5 FE3        15.5970   31.2810    1.8670 Fe    496  CFN496      0.0000
      6  S2A       14.6870   33.3310    1.9070 S.3   496  CFN496      0.0000
      7 FE7        14.8070   29.3750    0.4730 Fe    496  CFN496      0.0000
      8  S4B       16.0540   27.6520   -0.0830 S.3   496  CFN496      0.0000
      9 MO1        14.7360   28.1410   -1.9180 Mo    496  CFN496      0.0000
     10  S1B       16.0660   29.7920   -2.9960 S.3   496  CFN496      0.0000
     11 FE6        14.7810   30.8740   -1.4940 Fe    496  CFN496      0.0000
     12 FE2        15.5490   32.7760   -0.0860 Fe    496  CFN496      0.0000
     13 FE1        16.9200   33.5380    2.0050 Fe    496  CFN496      0.0000
     14 FE5        16.8570   29.5740   -0.9290 Fe    496  CFN496      0.0000
     15  S2B       14.2240   33.0020   -1.8840 S.3   496  CFN496      0.0000
     16  S3B       13.1320   29.5100   -0.9730 S.3   496  CFN496      0.0000
     17  S5A       14.3590   29.5980    2.6280 S.3   496  CFN496      0.0000
     18  NX        15.8790   30.8920    0.0300 N.4   496  CFN496      0.0000
@<TRIPOS>BOND
     1    10     9    1
     2    10    11    1
     3    10    14    1
     4     9    16    1
     5     9    14    1
     6     9     8    1
     7    15    11    1
     8    15    12    1
     9    11    16    1
    10    11    12    1
    11    11    18    1
    12    11     7    1
    13    16     7    1
    14    14     1    1
    15    14     8    1
    16    14    18    1
    17    14     2    1
    18     1     2    1
    19     3    12    1
    20     3     2    1
    21     3    13    1
    22    12     5    1
    23    12     6    1
    24     8     7    1
    25    18     7    1
    26    18     5    1
    27     2     4    1
    28     7     5    1
    29     7    17    1
    30     5     6    1
    31     5    17    1
    32     5     4    1
    33     6    13    1
    34    13     4    1
