@<TRIPOS>MOLECULE
2afi_ADP_E_1.pdb
 27 29 0 0 0
SMALL
GASTEIGER

@<TRIPOS>ATOM
      1  PB        -0.8880   69.4490  -26.1880 P.3   1292  ADP1292     0.5373
      2  O1B       -1.5500   70.3920  -25.2380 O.3   1292  ADP1292    -0.1143
      3  O2B       -1.7280   68.2450  -26.5220 O.2   1292  ADP1292    -0.2221
      4  O3B        0.6140   69.1130  -25.8380 O.3   1292  ADP1292    -0.1143
      5  PA         0.1670   71.3880  -28.1080 P.3   1292  ADP1292     0.2231
      6  O1A        0.8160   70.8390  -29.3490 O.2   1292  ADP1292    -0.5169
      7  O2A        1.1430   71.7660  -27.0680 O.3   1292  ADP1292    -0.4370
      8  O3A       -0.8570   70.3040  -27.5640 O.3   1292  ADP1292    -0.2261
      9  O5'       -0.7210   72.6090  -28.6080 O.3   1292  ADP1292    -0.3111
     10  C5'       -1.5810   72.4530  -29.7730 C.3   1292  ADP1292     0.1813
     11  C4'       -1.2490   73.2860  -31.0440 C.3   1292  ADP1292     0.1821
     12  O4'       -1.6150   74.6880  -30.9240 O.3   1292  ADP1292    -0.3135
     13  C3'        0.2180   73.3040  -31.5600 C.3   1292  ADP1292     0.2184
     14  O3'        0.2150   72.8520  -32.9410 O.3   1292  ADP1292    -0.2174
     15  C2'        0.7120   74.7490  -31.3650 C.3   1292  ADP1292     0.2570
     16  O2'        1.4440   75.2500  -32.4860 O.3   1292  ADP1292    -0.2130
     17  C1'       -0.5400   75.5900  -31.1420 C.3   1292  ADP1292     0.3186
     18  N9        -0.4230   76.4950  -29.9660 N.pl3 1292  ADP1292    -0.1439
     19  C8        -0.4220   76.1330  -28.6740 C.3   1292  ADP1292     0.3377
     20  N7        -0.3080   77.1620  -27.8430 N.2   1292  ADP1292    -0.2095
     21  C5        -0.2320   78.2280  -28.6470 C.2   1292  ADP1292     0.2526
     22  C6        -0.0990   79.6310  -28.3510 C.2   1292  ADP1292     0.4393
     23  N6        -0.0250   80.1700  -27.1710 N.pl3 1292  ADP1292     0.2180
     24  N1        -0.0560   80.4320  -29.4940 N.2   1292  ADP1292     0.0021
     25  C2        -0.1360   79.9340  -30.7900 C.3   1292  ADP1292     0.5254
     26  N3        -0.2560   78.6590  -31.0520 N.2   1292  ADP1292    -0.0055
     27  C4        -0.3010   77.8470  -29.9760 C.2   1292  ADP1292     0.3518
@<TRIPOS>BOND
     1    14    13    1
     2    16    15    1
     3    13    15    1
     4    13    11    1
     5    15    17    1
     6    17    12    1
     7    17    18    1
     8    26    25    1
     9    26    27    2
    10    11    12    1
    11    11    10    1
    12    25    24    1
    13    27    18    1
    14    27    21    1
    15    18    19    1
    16    10     9    1
    17    24    22    2
    18     6     5    2
    19    19    20    1
    20    21    22    1
    21    21    20    2
    22     9     5    1
    23    22    23    1
    24     5     8    1
    25     5     7    1
    26     8     1    1
    27     3     1    2
    28     1     4    1
    29     1     2    1
