@<TRIPOS>MOLECULE
2afk_CLF_B_1.pdb
 15 36 0 0 0
SMALL
GASTEIGER

@<TRIPOS>ATOM
      1 FE1       -25.3570  -30.6550   31.1150 Fe    1498  CLF1498     0.0000
      2 FE2       -27.4370  -31.0430   29.8620 Fe    1498  CLF1498     0.0000
      3 FE3       -25.0880  -31.8160   28.7360 Fe    1498  CLF1498     0.0000
      4 FE4       -26.0480  -29.3920   28.6900 Fe    1498  CLF1498     0.0000
      5  S1       -26.4800  -28.7460   30.6580 S.3   1498  CLF1498     0.0000
      6  S2A      -26.0520  -32.6880   30.6350 S.3   1498  CLF1498     0.0000
      7  S4A      -26.9040  -31.0870   27.6240 S.3   1498  CLF1498     0.0000
      8  S3A      -23.9980  -30.0810   29.4200 S.3   1498  CLF1498     0.0000
      9 FE5       -26.4320  -26.7590   30.1270 Fe    1498  CLF1498     0.0000
     10 FE6       -28.2710  -27.2570   31.7640 Fe    1498  CLF1498     0.0000
     11 FE7       -26.3370  -25.4620   32.4060 Fe    1498  CLF1498     0.0000
     12 FE8       -26.1610  -28.1160   32.5520 Fe    1498  CLF1498     0.0000
     13  S2B      -27.8890  -25.2270   30.7570 S.3   1498  CLF1498     0.0000
     14  S3B      -27.4060  -26.8770   33.8410 S.3   1498  CLF1498     0.0000
     15  S4B      -24.6680  -26.6940   31.5370 S.3   1498  CLF1498     0.0000
@<TRIPOS>BOND
     1     7     4    1
     2     7     3    1
     3     7     2    1
     4     4     3    1
     5     4     8    1
     6     4     2    1
     7     4     5    1
     8     4     1    1
     9     3     8    1
    10     3     2    1
    11     3     6    1
    12     3     1    1
    13     8     1    1
    14     2     6    1
    15     2     5    1
    16     2     1    1
    17     9     5    1
    18     9    13    1
    19     9    15    1
    20     9    10    1
    21     9    11    1
    22     9    12    1
    23     6     1    1
    24     5     1    1
    25     5    10    1
    26     5    12    1
    27    13    10    1
    28    13    11    1
    29    15    11    1
    30    15    12    1
    31    10    11    1
    32    10    12    1
    33    10    14    1
    34    11    12    1
    35    11    14    1
    36    12    14    1
