@<TRIPOS>MOLECULE
2afk_CFN_A_1.pdb
 18 33 0 0 0
SMALL
GASTEIGER

@<TRIPOS>ATOM
      1  S3A       -9.5600  -39.7140   23.2540 S.3   496  CFN496      0.0000
      2 FE4       -10.9940  -39.6000   21.4700 Fe    496  CFN496      0.0000
      3  S1A      -12.7280  -41.0430   21.3460 S.3   496  CFN496      0.0000
      4  S4A      -10.0850  -39.5580   19.3570 S.3   496  CFN496      0.0000
      5 FE3       -11.4960  -37.8410   19.7050 Fe    496  CFN496      0.0000
      6  S2A      -13.4840  -38.4980   18.8940 S.3   496  CFN496      0.0000
      7 FE7       -11.1480  -36.0060   21.5150 Fe    496  CFN496      0.0000
      8  S4B       -9.4440  -35.9160   22.9590 S.3   496  CFN496      0.0000
      9 MO1       -11.3640  -35.3300   24.1980 Mo    496  CFN496      0.0000
     10  S1B      -12.1030  -37.4460   24.8680 S.3   496  CFN496      0.0000
     11 FE6       -12.9730  -37.0360   22.8470 Fe    496  CFN496      0.0000
     12 FE2       -13.2980  -38.8680   21.1000 Fe    496  CFN496      0.0000
     13 FE1       -12.2040  -40.3690   19.2440 Fe    496  CFN496      0.0000
     14 FE5       -10.6650  -37.7860   23.2050 Fe    496  CFN496      0.0000
     15  S2B      -14.9370  -37.9700   22.3630 S.3   496  CFN496      0.0000
     16  S3B      -12.8440  -34.8490   22.4630 S.3   496  CFN496      0.0000
     17  S5A      -10.7320  -35.6630   19.3080 S.3   496  CFN496      0.0000
     18  NX       -11.7510  -37.8580   21.6210 N.4   496  CFN496      0.0000
@<TRIPOS>BOND
     1     6    13    1
     2     6     5    1
     3     6    12    1
     4    13     4    1
     5    13     3    1
     6    17     5    1
     7    17     7    1
     8     4     5    1
     9     4     2    1
    10     5    12    1
    11    12     3    1
    12    12     2    1
    13    12    18    1
    14    12    15    1
    15     3     2    1
    16     2    18    1
    17     2     1    1
    18     7    16    1
    19     7    11    1
    20     7     8    1
    21     7    14    1
    22    18    11    1
    23    18    14    1
    24    15    11    1
    25    16    11    1
    26    16     9    1
    27    11    14    1
    28    11    10    1
    29     8    14    1
    30     8     9    1
    31    14     1    1
    32    14    10    1
    33     9    10    1
