@<TRIPOS>MOLECULE
2afk_ACP_E_1.pdb
 31 33 0 0 0
SMALL
GASTEIGER

@<TRIPOS>ATOM
      1  PG       -57.7860  -42.4230   33.6020 P.3   1292  ACP1292     0.1295
      2  O1G      -58.2020  -41.1560   32.9030 O.3   1292  ACP1292    -0.3567
      3  O2G      -56.7810  -43.2190   32.6680 O.2   1292  ACP1292    -0.4595
      4  O3G      -57.1560  -42.1030   34.9100 O.3   1292  ACP1292    -0.3567
      5  PB       -60.1080  -44.0540   32.4280 P.3   1292  ACP1292     0.3815
      6  O1B      -59.1600  -44.8970   31.6250 O.2   1292  ACP1292    -0.2547
      7  O2B      -60.7720  -42.9040   31.6580 O.3   1292  ACP1292    -0.1391
      8  C3B      -59.1850  -43.5090   33.8560 C.3   1292  ACP1292     0.1768
      9  PA       -61.3210  -46.4970   33.2260 P.3   1292  ACP1292     0.2209
     10  O1A      -60.2530  -46.8680   34.1450 O.3   1292  ACP1292    -0.4371
     11  O2A      -61.2180  -47.1950   31.9730 O.2   1292  ACP1292    -0.5170
     12  O3A      -61.2360  -44.9450   32.9850 O.3   1292  ACP1292    -0.2483
     13  O5'      -62.7840  -46.6440   33.8720 O.3   1292  ACP1292    -0.3111
     14  C5'      -63.0150  -46.2840   35.2500 C.3   1292  ACP1292     0.1813
     15  C4'      -64.0450  -47.2320   35.8680 C.3   1292  ACP1292     0.1821
     16  O4'      -65.3260  -47.1770   35.1340 O.3   1292  ACP1292    -0.3135
     17  C3'      -63.6120  -48.7260   35.9030 C.3   1292  ACP1292     0.2184
     18  O3'      -63.7240  -49.2910   37.2160 O.3   1292  ACP1292    -0.2174
     19  C2'      -64.5140  -49.4410   34.8810 C.3   1292  ACP1292     0.2570
     20  O2'      -64.7770  -50.7630   35.3690 O.3   1292  ACP1292    -0.2130
     21  C1'      -65.7560  -48.5350   34.8210 C.3   1292  ACP1292     0.3186
     22  N9       -66.5650  -48.6250   33.5150 N.pl3 1292  ACP1292    -0.1439
     23  C8       -66.0630  -48.3640   32.3070 C.3   1292  ACP1292     0.3377
     24  N7       -66.9710  -48.5250   31.3950 N.2   1292  ACP1292    -0.2095
     25  C5       -68.1200  -48.9390   31.9530 C.2   1292  ACP1292     0.2526
     26  C6       -69.3760  -49.2210   31.5770 C.2   1292  ACP1292     0.4393
     27  N6       -69.7240  -49.1950   30.2470 N.pl3 1292  ACP1292     0.2180
     28  N1       -70.3480  -49.5990   32.5040 N.2   1292  ACP1292     0.0021
     29  C2       -69.9990  -49.6050   33.7670 C.3   1292  ACP1292     0.5254
     30  N3       -68.8180  -49.3340   34.1540 N.2   1292  ACP1292    -0.0055
     31  C4       -67.7950  -48.9340   33.3030 C.2   1292  ACP1292     0.3518
@<TRIPOS>BOND
     1    27    26    1
     2    24    25    2
     3    24    23    1
     4    26    25    1
     5    26    28    2
     6     6     5    2
     7     7     5    1
     8    25    31    1
     9    11     9    2
    10    23    22    1
    11     5    12    1
    12     5     8    1
    13    28    29    1
    14     3     1    2
    15     2     1    1
    16    12     9    1
    17     9    13    1
    18     9    10    1
    19    31    22    1
    20    31    30    2
    21    22    21    1
    22     1     8    1
    23     1     4    1
    24    29    30    1
    25    13    14    1
    26    21    19    1
    27    21    16    1
    28    19    20    1
    29    19    17    1
    30    16    15    1
    31    14    15    1
    32    15    17    1
    33    17    18    1
