@<TRIPOS>MOLECULE
2afu_BGT_A_1.pdb
 14 13 0 0 0
SMALL
GASTEIGER

@<TRIPOS>ATOM
      1  CB       -15.7790    2.7260   21.0920 C.3   381  BGT381      0.0401
      2  CG       -14.3250    2.2430   21.1580 C.3   381  BGT381      0.0906
      3  CD       -13.2910    3.3460   21.2940 C.2   381  BGT381      0.2608
      4  OE1      -13.4770    4.4550   20.8050 O.2   381  BGT381     -0.2717
      5  NE2      -12.1970    3.0500   21.9810 N.am  381  BGT381     -0.0878
      6  CT       -14.3490    3.8810   25.3390 C.3   381  BGT381      0.1363
      7  C1       -13.3590    4.9000   24.7210 C.3   381  BGT381      0.0437
      8  C2       -15.2970    4.5790   26.3390 C.3   381  BGT381      0.0437
      9  C3       -13.5680    2.7970   26.1050 C.3   381  BGT381      0.0437
     10  C        -15.8750    3.7170   23.4260 C.2   381  BGT381      0.3343
     11  O        -16.1570    4.9350   23.2920 O.2   381  BGT381     -0.2485
     12  OXT      -15.0910    3.1410   24.2890 O.3   381  BGT381     -0.4548
     13  N        -17.9420    3.2290   22.1910 N.3   381  BGT381     -0.1210
     14  CA       -16.5480    2.7680   22.4290 C.3   381  BGT381      0.1905
@<TRIPOS>BOND
     1     4     3    2
     2     1     2    1
     3     1    14    1
     4     2     3    1
     5     3     5   am
     6    13    14    1
     7    14    10    1
     8    11    10    2
     9    10    12    1
    10    12     6    1
    11     7     6    1
    12     6     9    1
    13     6     8    1
