@<TRIPOS>MOLECULE
2afw_AHN_A_1.pdb
 11 11 0 0 0
SMALL
GASTEIGER

@<TRIPOS>ATOM
      1  C        -10.6340    3.7040   22.2280 C.2   1501  AHN1501     0.2419
      2  O         -9.4450    3.2680   22.3360 O.2   1501  AHN1501    -0.2733
      3  CT       -10.9250    5.0500   21.5860 C.3   1501  AHN1501     0.0964
      4  N        -11.7100    3.0280   22.6420 N.am  1501  AHN1501    -0.2050
      5  CA       -13.0590    3.5540   22.5200 C.3   1501  AHN1501     0.1211
      6  CB       -13.9840    2.5390   21.8030 C.3   1501  AHN1501     0.0668
      7  CG       -15.4400    2.8980   21.8790 C.2   1501  AHN1501     0.0648
      8  CD2      -16.0610    4.0820   22.0860 C.3   1501  AHN1501     0.1683
      9  ND1      -16.4430    1.9670   21.7190 N.2   1501  AHN1501    -0.2310
     10  CE1      -17.6210    2.5610   21.8050 C.2   1501  AHN1501     0.1939
     11  NE2      -17.4180    3.8480   22.0270 N.2   1501  AHN1501    -0.2440
@<TRIPOS>BOND
     1     3     1    1
     2     9    10    1
     3     9     7    2
     4     6     7    1
     5     6     5    1
     6    10    11    2
     7     7     8    1
     8    11     8    1
     9     1     2    2
    10     1     4   am
    11     5     4    1
