@<TRIPOS>MOLECULE
2afx_1BN_A_1.pdb
 12 13 0 0 0
SMALL
GASTEIGER

@<TRIPOS>ATOM
      1  C1       -15.9250    2.1880   21.7000 C.ar  1501  1BN1501     0.0983
      2  C2       -17.1600    2.7060   21.4980 C.ar  1501  1BN1501     0.1193
      3  N1       -15.2190    3.1340   22.4080 N.ar  1501  1BN1501    -0.3036
      4  C3       -15.9980    4.1790   22.6340 C.ar  1501  1BN1501     0.1789
      5  N2       -17.1850    3.9410   22.0900 N.ar  1501  1BN1501    -0.2223
      6  C4       -13.9380    2.8800   23.0590 C.3   1501  1BN1501     0.1343
      7  C5       -12.8690    3.8840   22.8220 C.ar  1501  1BN1501     0.0004
      8  C6       -12.7360    4.5070   21.5830 C.ar  1501  1BN1501    -0.0024
      9  C7       -12.0340    4.2740   23.8620 C.ar  1501  1BN1501    -0.0024
     10  C8       -11.7860    5.5210   21.3840 C.ar  1501  1BN1501    -0.0003
     11  C9       -11.0850    5.2840   23.6760 C.ar  1501  1BN1501    -0.0003
     12  C10      -10.9680    5.9080   22.4270 C.ar  1501  1BN1501    -0.0000
@<TRIPOS>BOND
     1    10     8   ar
     2    10    12   ar
     3     2     1   ar
     4     2     5   ar
     5     8     7   ar
     6     1     3   ar
     7     5     4   ar
     8     3     4   ar
     9     3     6    1
    10    12    11   ar
    11     7     6    1
    12     7     9   ar
    13    11     9   ar
