@<TRIPOS>MOLECULE
2ag0_TPP_A_1.pdb
 26 27 0 0 0
SMALL
GASTEIGER

@<TRIPOS>ATOM
      1  N1'       44.3160  -21.9110    6.4490 N.2   602  TPP602     -0.1861
      2  C2'       45.0860  -22.2500    7.5190 C.1   602  TPP602      0.0663
      3  CM2       46.5800  -22.0600    7.4700 C.3   602  TPP602      0.1291
      4  N3'       44.5340  -22.7670    8.6430 N.2   602  TPP602     -0.3368
      5  C4'       43.1990  -22.9520    8.7400 C.2   602  TPP602      0.2292
      6  N4'       42.7030  -23.4660    9.8870 N.pl3 602  TPP602     -0.0925
      7  C5'       42.3240  -22.5900    7.5770 C.2   602  TPP602      0.0654
      8  C6'       42.9710  -22.0630    6.4540 C.2   602  TPP602      0.1115
      9  C7'       40.8060  -22.7740    7.5840 C.3   602  TPP602      0.1240
     10  N3        40.4020  -24.1910    7.4720 N.pl3 602  TPP602     -0.2934
     11  C2        39.7620  -24.7730    8.6550 C.3   602  TPP602      0.1549
     12  S1        39.7380  -26.4840    8.2280 S.3   602  TPP602     -0.0908
     13  C5        40.4150  -26.3290    6.7220 C.2   602  TPP602      0.0383
     14  C4        40.5640  -25.0250    6.4100 C.2   602  TPP602      0.0543
     15  CM4       40.8310  -24.5730    5.1880 C.2   602  TPP602      0.0163
     16  C6        40.7900  -27.3650    5.9220 C.2   602  TPP602      0.0135
     17  C7        40.6700  -28.8500    6.2350 C.3   602  TPP602      0.1759
     18  O7        41.0260  -29.6290    5.0770 O.3   602  TPP602     -0.3089
     19  PA        41.8540  -31.0360    5.0540 P.3   602  TPP602      0.2233
     20  O1A       41.6570  -31.7270    3.7210 O.2   602  TPP602     -0.5169
     21  O2A       43.3040  -30.8100    5.4350 O.3   602  TPP602     -0.4370
     22  O3A       41.1170  -31.8510    6.2220 O.3   602  TPP602     -0.2261
     23  PB        39.5870  -32.3850    6.1900 P.3   602  TPP602      0.5373
     24  O1B       39.7480  -33.7600    6.8060 O.3   602  TPP602     -0.1143
     25  O2B       38.7830  -31.4370    7.0670 O.3   602  TPP602     -0.1143
     26  O3B       39.1630  -32.4370    4.7240 O.2   602  TPP602     -0.2221
@<TRIPOS>BOND
     1    20    19    2
     2    26    23    2
     3    19    18    1
     4    19    21    1
     5    19    22    1
     6    18    17    1
     7    15    14    2
     8    16    17    1
     9    16    13    2
    10    23    22    1
    11    23    24    1
    12    23    25    1
    13    14    13    1
    14    14    10    1
    15     1     8    1
    16     1     2    2
    17     8     7    2
    18    13    12    1
    19     3     2    1
    20    10     9    1
    21    10    11    1
    22     2     4    2
    23     7     9    1
    24     7     5    1
    25    12    11    1
    26     4     5    2
    27     5     6    1
