@<TRIPOS>MOLECULE
2ag1_TPP_A_1.pdb
 26 27 0 0 0
SMALL
GASTEIGER

@<TRIPOS>ATOM
      1  N1'        2.6510   47.7750   59.0010 N.2   602  TPP602     -0.1861
      2  C2'        2.9260   48.4620   57.8740 C.1   602  TPP602      0.0663
      3  CM2        3.7700   49.7010   58.0000 C.3   602  TPP602      0.1291
      4  N3'        2.4550   48.0600   56.6640 N.2   602  TPP602     -0.3368
      5  C4'        1.7030   46.9340   56.5590 C.2   602  TPP602      0.2292
      6  N4'        1.2090   46.4680   55.3810 N.pl3 602  TPP602     -0.0925
      7  C5'        1.4010   46.1650   57.7870 C.2   602  TPP602      0.0654
      8  C6'        1.9190   46.6570   58.9790 C.2   602  TPP602      0.1115
      9  C7'        0.5210   44.9220   57.7110 C.3   602  TPP602      0.1237
     10  N3        -0.9050   45.3340   57.8370 N.pl3 602  TPP602     -0.2970
     11  C2        -1.8480   44.9450   56.7670 C.3   602  TPP602      0.1543
     12  S1        -3.1740   46.0950   57.0820 S.3   602  TPP602     -0.0951
     13  C5        -2.6710   46.5570   58.5750 C.2   602  TPP602      0.0164
     14  C4        -1.4580   46.0730   58.8500 C.2   602  TPP602      0.0279
     15  CM4       -0.8910   46.2730   60.0350 C.3   602  TPP602      0.0473
     16  C6        -3.3780   47.2820   59.4590 C.3   602  TPP602      0.0661
     17  C7        -4.7510   47.8800   59.2730 C.3   602  TPP602      0.1544
     18  O7        -4.6370   49.1540   59.9050 O.3   602  TPP602     -0.3134
     19  PA        -5.8800   50.1050   60.2700 P.3   602  TPP602      0.2230
     20  O1A       -6.3470   49.7320   61.6440 O.3   602  TPP602     -0.4370
     21  O2A       -5.4860   51.5540   60.0780 O.2   602  TPP602     -0.5169
     22  O3A       -6.7770   49.5090   59.0730 O.3   602  TPP602     -0.2261
     23  PB        -8.2230   48.8400   59.2170 P.3   602  TPP602      0.5373
     24  O1B       -9.0580   50.0630   58.9070 O.3   602  TPP602     -0.1143
     25  O2B       -8.2000   47.6440   58.2610 O.2   602  TPP602     -0.2221
     26  O3B       -8.3910   48.4070   60.6670 O.3   602  TPP602     -0.1143
@<TRIPOS>BOND
     1     6     5    1
     2     5     4    2
     3     5     7    1
     4     4     2    2
     5    11    12    1
     6    11    10    1
     7    12    13    1
     8     9     7    1
     9     9    10    1
    10     7     8    2
    11    10    14    1
    12     2     3    1
    13     2     1    2
    14    25    23    2
    15    13    14    2
    16    13    16    1
    17    14    15    1
    18    24    23    1
    19     8     1    1
    20    22    23    1
    21    22    19    1
    22    23    26    1
    23    17    16    1
    24    17    18    1
    25    18    19    1
    26    21    19    2
    27    19    20    1
