@<TRIPOS>MOLECULE
2ag5_NAD_A_1.pdb
 44 48 0 0 0
SMALL
GASTEIGER

@<TRIPOS>ATOM
      1  PA        25.2190  -10.4540   13.6680 P.3   2001  NAD2001     0.2189
      2  O1A       26.3490  -11.4370   13.3220 O.2   2001  NAD2001    -0.5170
      3  O2A       23.8170  -10.9650   13.9360 O.3   2001  NAD2001    -0.4371
      4  O5B       25.0820   -9.3410   12.5010 O.3   2001  NAD2001    -0.3112
      5  C5B       26.2470   -9.0240   11.7420 C.3   2001  NAD2001     0.1813
      6  C4B       25.9650   -7.7780   10.9460 C.3   2001  NAD2001     0.1821
      7  O4B       27.1700   -7.3730   10.2910 O.3   2001  NAD2001    -0.3135
      8  C3B       24.8770   -7.9710    9.8860 C.3   2001  NAD2001     0.2184
      9  O3B       23.9920   -6.8500    9.9210 O.3   2001  NAD2001    -0.2174
     10  C2B       25.6470   -7.9040    8.5910 C.3   2001  NAD2001     0.2570
     11  O2B       24.9030   -7.3650    7.5110 O.3   2001  NAD2001    -0.2130
     12  C1B       26.8560   -7.0340    8.9580 C.3   2001  NAD2001     0.3186
     13  N9A       27.9900   -7.2940    8.0750 N.pl3 2001  NAD2001    -0.1439
     14  C8A       28.4160   -8.5370    7.6280 C.3   2001  NAD2001     0.3377
     15  N7A       29.4660   -8.3260    6.8390 N.2   2001  NAD2001    -0.2095
     16  C5A       29.7590   -6.9990    6.7960 C.2   2001  NAD2001     0.2526
     17  C6A       30.7170   -6.2430    6.1070 C.2   2001  NAD2001     0.4393
     18  N6A       31.6640   -6.7220    5.2740 N.pl3 2001  NAD2001     0.2180
     19  N1A       30.6800   -4.8910    6.2930 N.2   2001  NAD2001     0.0021
     20  C2A       29.7670   -4.2700    7.1100 C.3   2001  NAD2001     0.5254
     21  N3A       28.8030   -4.9830    7.7680 N.2   2001  NAD2001    -0.0055
     22  C4A       28.8190   -6.3340    7.6030 C.2   2001  NAD2001     0.3518
     23  O3        25.6280   -9.5040   14.8940 O.3   2001  NAD2001    -0.2703
     24  PN        26.2210   -9.9480   16.3120 P.3   2001  NAD2001     0.2189
     25  O1N       26.1300  -11.4420   16.4850 O.2   2001  NAD2001    -0.5170
     26  O2N       25.7250   -8.9540   17.3010 O.3   2001  NAD2001    -0.4371
     27  O5D       27.8060   -9.7500   16.0550 O.3   2001  NAD2001    -0.3112
     28  C5D       28.4120   -8.4460   16.0960 C.3   2001  NAD2001     0.1813
     29  C4D       29.8060   -8.5220   16.6840 C.3   2001  NAD2001     0.1799
     30  O4D       29.6950   -8.9980   17.9910 O.3   2001  NAD2001    -0.3327
     31  C3D       30.7680   -9.4280   15.9400 C.3   2001  NAD2001     0.2158
     32  O3D       32.0820   -8.8530   15.8890 O.3   2001  NAD2001    -0.2175
     33  C2D       30.7780  -10.6730   16.7870 C.3   2001  NAD2001     0.2309
     34  O2D       31.9890  -11.3750   16.6210 O.3   2001  NAD2001    -0.2158
     35  C1D       30.6250  -10.0600   18.1640 C.3   2001  NAD2001     0.2263
     36  N1N       30.2340  -11.0080   19.1890 N.pl3 2001  NAD2001    -0.2787
     37  C2N       28.9970  -11.6560   19.1450 C.3   2001  NAD2001     0.1244
     38  C3N       28.6360  -12.5900   20.1420 C.2   2001  NAD2001     0.0544
     39  C7N       27.3190  -13.3590   20.0630 C.2   2001  NAD2001     0.2818
     40  O7N       26.3290  -12.8880   19.1970 O.2   2001  NAD2001    -0.2670
     41  N7N       27.0970  -14.4800   20.7650 N.am  2001  NAD2001    -0.0839
     42  C4N       29.5460  -12.8530   21.1900 C.2   2001  NAD2001     0.0033
     43  C5N       30.7690  -12.1860   21.2200 C.2   2001  NAD2001     0.0157
     44  C6N       31.1120  -11.2490   20.2480 C.2   2001  NAD2001     0.0633
@<TRIPOS>BOND
     1    18    17    1
     2    17    19    2
     3    17    16    1
     4    19    20    1
     5    16    15    2
     6    16    22    1
     7    15    14    1
     8    20    21    1
     9    11    10    1
    10    22    21    2
    11    22    13    1
    12    14    13    1
    13    13    12    1
    14    10    12    1
    15    10     8    1
    16    12     7    1
    17     8     9    1
    18     8     6    1
    19     7     6    1
    20     6     5    1
    21     5     4    1
    22     4     1    1
    23     2     1    2
    24     1     3    1
    25     1    23    1
    26    23    24    1
    27    32    31    1
    28    31    29    1
    29    31    33    1
    30    27    28    1
    31    27    24    1
    32    28    29    1
    33    24    25    2
    34    24    26    1
    35    34    33    1
    36    29    30    1
    37    33    35    1
    38    30    35    1
    39    35    36    1
    40    37    36    1
    41    37    38    1
    42    36    44    1
    43    40    39    2
    44    39    38    1
    45    39    41   am
    46    38    42    2
    47    44    43    2
    48    42    43    1
