@<TRIPOS>MOLECULE
2ag6_4BF_A_1.pdb
 13 13 0 0 0
SMALL
GASTEIGER

@<TRIPOS>ATOM
      1  CD1       75.2340   41.7080   -4.3490 C.ar  315  4BF315     -0.0037
      2  CE1       75.2010   42.7220   -5.2640 C.ar  315  4BF315      0.0064
      3  CZ        74.1780   42.7010   -6.1920 C.ar  315  4BF315      0.0345
      4 BR         74.1500   44.0250   -7.4630 Br    315  4BF315     -0.0490
      5  CE2       73.2260   41.7280   -6.2600 C.ar  315  4BF315      0.0064
      6  CD2       73.2650   40.7200   -5.3020 C.ar  315  4BF315     -0.0037
      7  CG        74.2670   40.7220   -4.3620 C.ar  315  4BF315     -0.0204
      8  CB        74.3160   39.6290   -3.3230 C.3   315  4BF315      0.0535
      9  CA        75.6790   39.0450   -3.0780 C.3   315  4BF315      0.1878
     10  N         76.1980   38.4570   -4.3330 N.3   315  4BF315     -0.1242
     11  C         75.5090   37.9220   -2.0960 C.3   315  4BF315      0.4432
     12  OXT       74.9750   38.4290   -0.8830 O.2   315  4BF315     -0.2654
     13  O         76.4080   37.1160   -1.9210 O.2   315  4BF315     -0.2654
@<TRIPOS>BOND
     1     4     3    1
     2     5     3   ar
     3     5     6   ar
     4     3     2   ar
     5     6     7   ar
     6     2     1   ar
     7     7     1   ar
     8     7     8    1
     9    10     9    1
    10     8     9    1
    11     9    11    1
    12    11    13    1
    13    11    12    1
