@<TRIPOS>MOLECULE
2ag8_NAP_A_1.pdb
 48 52 0 0 0
SMALL
GASTEIGER

@<TRIPOS>ATOM
      1  PA        18.5440   23.2050   15.5490 P.3   311  NAP311      0.2189
      2  O1A       17.5240   22.5970   14.6450 O.2   311  NAP311     -0.5170
      3  O2A       19.2650   22.1340   16.3120 O.3   311  NAP311     -0.4371
      4  O5B       17.7530   24.2660   16.5080 O.3   311  NAP311     -0.3112
      5  C5B       16.5540   24.9180   16.1180 C.3   311  NAP311      0.1813
      6  C4B       15.4330   24.5940   17.1090 C.3   311  NAP311      0.1820
      7  O4B       14.3520   25.5130   17.0720 O.3   311  NAP311     -0.3136
      8  C3B       14.7910   23.2330   16.8600 C.3   311  NAP311      0.2157
      9  O3B       15.4060   22.2590   17.6750 O.3   311  NAP311     -0.2175
     10  C2B       13.3100   23.4210   17.1750 C.3   311  NAP311      0.2314
     11  O2B       12.8700   22.5680   18.2030 O.3   311  NAP311     -0.2630
     12  C1B       13.2290   24.8600   17.6520 C.3   311  NAP311      0.3158
     13  N9A       11.9450   25.5280   17.3450 N.pl3 311  NAP311     -0.1439
     14  C8A       11.4130   25.7730   16.1070 C.3   311  NAP311      0.3377
     15  N7A       10.2370   26.4170   16.2500 N.2   311  NAP311     -0.2095
     16  C5A       10.0060   26.5880   17.5690 C.2   311  NAP311      0.2526
     17  C6A        8.9590   27.2090   18.2480 C.2   311  NAP311      0.4393
     18  N6A        8.4560   28.2860   17.6380 N.pl3 311  NAP311      0.2180
     19  N1A        8.9790   27.2250   19.6390 N.2   311  NAP311      0.0021
     20  C2A       10.0500   26.6810   20.3200 C.3   311  NAP311      0.5254
     21  N3A       11.0930   26.0880   19.6270 N.2   311  NAP311     -0.0055
     22  C4A       11.0720   26.0390   18.2720 C.2   311  NAP311      0.3518
     23  O3        19.6160   24.1190   14.7130 O.3   311  NAP311     -0.2703
     24  PN        21.0250   24.8110   15.2080 P.3   311  NAP311      0.2189
     25  O1N       22.1540   24.1000   14.5560 O.2   311  NAP311     -0.5170
     26  O2N       21.1100   25.0850   16.6680 O.3   311  NAP311     -0.4371
     27  O5D       20.8520   26.2770   14.5820 O.3   311  NAP311     -0.3112
     28  C5D       19.7190   27.0580   14.9190 C.3   311  NAP311      0.1813
     29  C4D       20.0400   28.5170   14.6250 C.3   311  NAP311      0.1799
     30  O4D       21.4310   28.7470   14.8190 O.3   311  NAP311     -0.3327
     31  C3D       19.7060   28.8880   13.1700 C.3   311  NAP311      0.2158
     32  O3D       18.8430   30.0010   13.1560 O.3   311  NAP311     -0.2175
     33  C2D       21.0470   29.1840   12.5000 C.3   311  NAP311      0.2309
     34  O2D       20.9690   30.1980   11.5180 O.3   311  NAP311     -0.2158
     35  C1D       21.8520   29.5730   13.7430 C.3   311  NAP311      0.2263
     36  N1N       23.3200   29.7410   13.6330 N.pl3 311  NAP311     -0.2787
     37  C2N       24.2820   28.7410   13.5990 C.3   311  NAP311      0.1244
     38  C3N       25.6460   29.1160   13.5080 C.2   311  NAP311      0.0544
     39  C7N       26.6840   28.3500   12.7120 C.2   311  NAP311      0.2818
     40  O7N       27.7050   29.1270   12.0780 O.2   311  NAP311     -0.2670
     41  N7N       26.6530   27.0080   12.6240 N.am  311  NAP311     -0.0839
     42  C4N       25.9490   30.4710   13.4940 C.2   311  NAP311      0.0033
     43  C5N       24.9700   31.4450   13.5160 C.2   311  NAP311      0.0157
     44  C6N       23.6640   31.0510   13.5940 C.2   311  NAP311      0.0633
     45  P2B       11.8110   21.3790   17.9390 P.3   311  NAP311      0.5328
     46  O1X       12.5690   20.0690   17.7750 O.3   311  NAP311     -0.1145
     47  O2X       11.0060   21.7600   16.7180 O.2   311  NAP311     -0.2224
     48  O3X       10.8880   21.2900   19.1340 O.3   311  NAP311     -0.1145
@<TRIPOS>BOND
     1    34    33    1
     2    40    39    2
     3    33    31    1
     4    33    35    1
     5    41    39   am
     6    39    38    1
     7    32    31    1
     8    31    29    1
     9    42    38    2
    10    42    43    1
    11    38    37    1
    12    43    44    2
    13    44    36    1
    14    37    36    1
    15    36    35    1
    16    35    30    1
    17    25    24    2
    18    27    28    1
    19    27    24    1
    20    29    30    1
    21    29    28    1
    22     2     1    2
    23    23    24    1
    24    23     1    1
    25    24    26    1
    26     1     3    1
    27     1     4    1
    28    14    15    1
    29    14    13    1
    30     5     4    1
    31     5     6    1
    32    15    16    2
    33    47    45    2
    34     8     6    1
    35     8    10    1
    36     8     9    1
    37     7     6    1
    38     7    12    1
    39    10    12    1
    40    10    11    1
    41    13    12    1
    42    13    22    1
    43    16    17    1
    44    16    22    1
    45    18    17    1
    46    46    45    1
    47    45    11    1
    48    45    48    1
    49    17    19    2
    50    22    21    2
    51    21    20    1
    52    19    20    1
