@<TRIPOS>MOLECULE
2agd_NAG_A_1.pdb
 14 14 0 0 0
SMALL
GASTEIGER

@<TRIPOS>ATOM
      1  C1        25.8130   43.0330   46.9670 C.3   405  NAG405      0.1665
      2  C2        27.1680   43.5150   47.5140 C.3   405  NAG405      0.1576
      3  C3        27.2540   45.0390   47.3460 C.3   405  NAG405      0.2069
      4  C4        27.1430   45.3610   45.8250 C.3   405  NAG405      0.2134
      5  C5        25.7930   44.8770   45.2860 C.3   405  NAG405      0.1809
      6  C6        25.6200   45.1270   43.7780 C.3   405  NAG405      0.2141
      7  C7        27.9210   42.1040   49.4590 C.2   405  NAG405      0.2420
      8  C8        27.8400   41.9200   50.9780 C.3   405  NAG405      0.0964
      9  N2        27.2440   43.1440   48.9730 N.am  405  NAG405     -0.2019
     10  O3        28.5240   45.4700   47.8440 O.3   405  NAG405     -0.2184
     11  O4        27.2290   46.7850   45.6240 O.3   405  NAG405     -0.2176
     12  O5        25.6980   43.4050   45.5210 O.3   405  NAG405     -0.3489
     13  O6        26.6550   44.4990   42.9990 O.3   405  NAG405     -0.2176
     14  O7        28.5650   41.3280   48.7500 O.2   405  NAG405     -0.2733
@<TRIPOS>BOND
     1    13     6    1
     2     6     5    1
     3     5    12    1
     4     5     4    1
     5    12     1    1
     6    11     4    1
     7     4     3    1
     8     1     2    1
     9     3     2    1
    10     3    10    1
    11     2     9    1
    12    14     7    2
    13     9     7   am
    14     7     8    1
