@<TRIPOS>MOLECULE
2agd_UDH_A_1.pdb
 32 33 0 0 0
SMALL
GASTEIGER

@<TRIPOS>ATOM
      1  N1        37.7700   51.0970   40.9520 N.am  399  UDH399     -0.1766
      2  C2        38.8640   51.6390   40.2360 C.1   399  UDH399      0.2845
      3  N3        39.8660   50.7250   39.9160 N.2   399  UDH399     -0.2452
      4  C4        39.8910   49.3530   40.2320 C.1   399  UDH399      0.2182
      5  C5        38.7400   48.8740   40.9580 C.2   399  UDH399      0.1242
      6  C6        37.7530   49.7110   41.2860 C.2   399  UDH399      0.0929
      7  O2        38.8630   52.8410   39.9550 O.2   399  UDH399     -0.1918
      8  O4        40.8400   48.6690   39.8920 O.2   399  UDH399     -0.2085
      9  C1B       36.6760   52.0690   41.3220 C.3   399  UDH399      0.2401
     10  C2B       35.8540   52.7020   40.2380 C.3   399  UDH399      0.2319
     11  O2'       35.4120   54.0440   40.5680 O.3   399  UDH399     -0.2157
     12  C3B       34.7610   51.6940   40.1410 C.3   399  UDH399      0.2158
     13  C4B       34.4180   51.4120   41.6010 C.3   399  UDH399      0.1799
     14  O4'       35.7750   51.3220   42.1290 O.3   399  UDH399     -0.3320
     15  O3'       33.6330   52.1320   39.3950 O.3   399  UDH399     -0.2175
     16  C5B       33.6340   50.1410   41.7010 C.3   399  UDH399      0.1813
     17  O5'       34.3430   48.9670   41.3430 O.3   399  UDH399     -0.3112
     18  PA        33.9320   48.0700   40.0860 P.3   399  UDH399      0.2189
     19  O1A       33.5270   48.9500   38.9550 O.2   399  UDH399     -0.5170
     20  O2A       34.9530   47.0610   39.7000 O.3   399  UDH399     -0.4371
     21  O3A       32.6050   47.2620   40.6930 O.3   399  UDH399     -0.2703
     22  PB        31.4600   46.5650   39.8680 P.3   399  UDH399      0.2188
     23  O1B       30.6210   45.9190   41.0520 O.3   399  UDH399     -0.4371
     24  O2B       32.1500   45.4750   39.0890 O.3   399  UDH399     -0.3139
     25  O3B       30.9360   47.4750   38.8270 O.2   399  UDH399     -0.5170
     26  C1'       32.7190   44.2770   39.6940 C.3   399  UDH399      0.1491
     27  C2'       33.5600   43.6440   38.5640 C.3   399  UDH399      0.0325
     28  C3'       32.5990   42.6300   37.9250 C.3   399  UDH399      0.0026
     29  C4'       32.7690   42.8560   36.4210 C.3   399  UDH399      0.0016
     30  C5'       31.6690   41.9880   35.7940 C.3   399  UDH399      0.0205
     31  C6'       32.2690   41.5690   34.4450 C.3   399  UDH399      0.1093
     32  N6'       31.4530   40.5030   34.0290 N.3   399  UDH399     -0.1314
@<TRIPOS>BOND
     1    32    31    1
     2    31    30    1
     3    30    29    1
     4    29    28    1
     5    28    27    1
     6    27    26    1
     7    25    22    2
     8    19    18    2
     9    24    26    1
    10    24    22    1
    11    15    12    1
    12    20    18    1
    13    22    21    1
    14    22    23    1
    15     8     4    2
    16     3     4    2
    17     3     2    2
    18     7     2    2
    19    18    21    1
    20    18    17    1
    21    12    10    1
    22    12    13    1
    23     4     5    1
    24     2     1   am
    25    10    11    1
    26    10     9    1
    27     1     6    1
    28     1     9    1
    29     5     6    2
    30     9    14    1
    31    17    16    1
    32    13    16    1
    33    13    14    1
