@<TRIPOS>MOLECULE
2age_III_A_1.pdb
 30 30 0 0 0
SMALL
GASTEIGER

@<TRIPOS>ATOM
      1  C4         7.0740   74.5490   11.0530 C.2     1  SIN1        0.3205
      2  O3         7.3500   73.4000   11.3760 O.2     1  SIN1       -0.2633
      3  N          7.9910   75.4270   10.6750 N.am    2  ALA2       -0.1901
      4  CA         9.3570   74.9790   10.4090 C.3     2  ALA2        0.1733
      5  C          9.9970   74.5380   11.7140 C.2     2  ALA2        0.2616
      6  O          9.8770   75.2070   12.7510 O.2     2  ALA2       -0.2715
      7  CB        10.1810   76.0760    9.7530 C.3     2  ALA2        0.0334
      8  N         10.6700   73.4110   11.6970 N.am    3  ALA3       -0.1964
      9  CA        11.3020   72.8460   12.8790 C.3     3  ALA3        0.1713
     10  C         12.5310   72.0480   12.4400 C.2     3  ALA3        0.2458
     11  O         12.5430   71.4050   11.3730 O.2     3  ALA3       -0.2730
     12  CB        10.3280   71.9320   13.6050 C.3     3  ALA3        0.0333
     13  N         13.5520   72.0320   13.2780 N.am    4  PRO4       -0.2716
     14  CA        14.7060   71.1740   13.0070 C.3     4  PRO4        0.1536
     15  C         14.3060   69.7030   12.9970 C.2     4  PRO4        0.2598
     16  O         13.3810   69.2940   13.7320 O.2     4  PRO4       -0.2715
     17  CB        15.6690   71.5220   14.1650 C.3     4  PRO4        0.0310
     18  CG        15.1960   72.7990   14.7130 C.3     4  PRO4        0.0237
     19  CD        13.7170   72.8020   14.5220 C.3     4  PRO4        0.0939
     20  N         14.9900   68.9070   12.2090 N.am    5  ARG5       -0.1978
     21  CA        14.7550   67.4620   12.0990 C.3     5  ARG5        0.1597
     22  C         15.9310   66.6450   12.6040 C.2     5  ARG5        0.2287
     23  O         15.7540   65.5480   13.1390 O.2     5  ARG5       -0.2864
     24  CB        14.5030   67.0870   10.6650 C.3     5  ARG5        0.0334
     25  CG        13.1640   67.5670   10.1680 C.3     5  ARG5        0.0492
     26  CD        13.0120   67.2650    8.7370 C.3     5  ARG5        0.2205
     27  NE        11.7050   67.6670    8.2480 N.pl3   5  ARG5       -0.0865
     28  CZ        11.2810   67.4410    7.0300 C.cat   5  ARG5        0.5346
     29  NH1       12.0580   66.8550    6.1460 N.pl3   5  ARG5        0.1354
     30  NH2       10.0980   67.8590    6.6460 N.pl3   5  ARG5        0.1354
@<TRIPOS>BOND
     1    29    28    1
     2    30    28    1
     3    28    27    2
     4    27    26    1
     5    26    25    1
     6     7     4    1
     7    25    24    1
     8     4     3    1
     9     4     5    1
    10    24    21    1
    11     3     1   am
    12     1     2    2
    13    11    10    2
    14     8     5   am
    15     8     9    1
    16     5     6    2
    17    21    20    1
    18    21    22    1
    19    20    15   am
    20    10     9    1
    21    10    13   am
    22    22    23    2
    23     9    12    1
    24    15    14    1
    25    15    16    2
    26    14    13    1
    27    14    17    1
    28    13    19    1
    29    17    18    1
    30    19    18    1
