@<TRIPOS>MOLECULE
2agg_III_A_1.pdb
 28 28 0 0 0
SMALL
GASTEIGER

@<TRIPOS>ATOM
      1  C4         7.1650   74.0780   10.8490 C.2     1  SIN1        0.3205
      2  O3         7.2990   72.9240   11.1940 O.2     1  SIN1       -0.2633
      3  N          7.7520   75.1880   10.4210 N.am    2  ALA2       -0.1901
      4  CA         9.1790   74.8310   10.2210 C.3     2  ALA2        0.1733
      5  C          9.8310   74.4110   11.5270 C.2     2  ALA2        0.2616
      6  O          9.7170   75.0990   12.5290 O.2     2  ALA2       -0.2715
      7  CB         9.9290   75.9780    9.6490 C.3     2  ALA2        0.0334
      8  N         10.5210   73.2890   11.4960 N.am    3  ALA3       -0.1964
      9  CA        11.1890   72.8010   12.6750 C.3     3  ALA3        0.1713
     10  C         12.3900   71.9390   12.2640 C.2     3  ALA3        0.2458
     11  O         12.3630   71.2450   11.2470 O.2     3  ALA3       -0.2730
     12  CB        10.2660   71.9620   13.4540 C.3     3  ALA3        0.0333
     13  N         13.4220   71.9040   13.1120 N.am    4  PRO4       -0.2716
     14  CA        14.5560   70.9930   12.8580 C.3     4  PRO4        0.1536
     15  C         14.1430   69.5240   12.8800 C.2     4  PRO4        0.2598
     16  O         13.2090   69.1540   13.6110 O.2     4  PRO4       -0.2715
     17  CB        15.5150   71.2920   13.9940 C.3     4  PRO4        0.0310
     18  CG        15.0970   72.6190   14.4720 C.3     4  PRO4        0.0237
     19  CD        13.5870   72.7120   14.3420 C.3     4  PRO4        0.0939
     20  N         14.8440   68.6650   12.1370 N.am    5  LYS5       -0.1978
     21  CA        14.5740   67.2480   12.1140 C.3     5  LYS5        0.1596
     22  C         15.7250   66.4170   12.6760 C.2     5  LYS5        0.2287
     23  O         15.5160   65.2850   13.0810 O.2     5  LYS5       -0.2864
     24  CB        14.4020   66.8020   10.6870 C.3     5  LYS5        0.0298
     25  CG        13.1460   67.3210   10.0910 C.3     5  LYS5        0.0038
     26  CD        13.1150   66.7520    8.7320 C.3     5  LYS5        0.0206
     27  CE        11.9770   67.1680    7.9710 C.3     5  LYS5        0.1093
     28  NZ        12.1470   66.7740    6.5210 N.3     5  LYS5       -0.1314
@<TRIPOS>BOND
     1    28    27    1
     2    27    26    1
     3    26    25    1
     4     7     4    1
     5    25    24    1
     6     4     3    1
     7     4     5    1
     8     3     1   am
     9    24    21    1
    10     1     2    2
    11    11    10    2
    12     8     5   am
    13     8     9    1
    14     5     6    2
    15    21    20    1
    16    21    22    1
    17    20    15   am
    18    10     9    1
    19    10    13   am
    20     9    12    1
    21    22    23    2
    22    14    15    1
    23    14    13    1
    24    14    17    1
    25    15    16    2
    26    13    19    1
    27    17    18    1
    28    19    18    1
