@<TRIPOS>MOLECULE
2agi_III_A_1.pdb
 30 29 0 0 0
SMALL
GASTEIGER

@<TRIPOS>ATOM
      1  C         10.0090   72.2490   14.0730 C.2     0  ACE0        0.2423
      2  O          9.7110   71.1210   13.6270 O.2     0  ACE0       -0.2733
      3  CH3        9.5370   72.6660   15.4180 C.3     0  ACE0        0.0964
      4  N         10.7700   72.9730   13.2990 N.am    1  LEU1       -0.1978
      5  CA        11.1830   72.9400   11.9320 C.3     1  LEU1        0.1727
      6  C         12.1050   71.8680   12.2100 C.2     1  LEU1        0.2616
      7  O         12.5120   71.0830   11.2420 O.2     1  LEU1       -0.2715
      8  CB        11.7010   74.2160   11.3500 C.3     1  LEU1        0.0311
      9  CG        10.5300   75.1480   11.1860 C.3     1  LEU1        0.0022
     10  CD1       11.1360   76.4230   10.6580 C.3     1  LEU1        0.0001
     11  CD2        9.4470   74.6060   10.2510 C.3     1  LEU1        0.0001
     12  N         13.1190   71.8930   13.0980 N.am    2  LEU2       -0.1963
     13  CA        14.3810   71.1330   13.1410 C.3     2  LEU2        0.1728
     14  C         14.1380   69.6460   13.1600 C.2     2  LEU2        0.2612
     15  O         13.2710   69.1600   13.8960 O.2     2  LEU2       -0.2715
     16  CB        15.2180   71.4990   14.3790 C.3     2  LEU2        0.0311
     17  CG        15.9480   72.8220   14.3810 C.3     2  LEU2        0.0022
     18  CD1       16.6330   73.0500   15.7040 C.3     2  LEU2        0.0001
     19  CD2       16.9300   72.9600   13.2210 C.3     2  LEU2        0.0001
     20  N         14.9260   68.9190   12.3780 N.am    3  AR73       -0.2031
     21  CA        14.8540   67.4560   12.3450 C.3     3  AR73        0.1283
     22  C         16.0490   66.8060   13.0150 C.3     3  AR73        0.2036
     23  O         16.2400   67.3860   14.2760 O.3     3  AR73       -0.2185
     24  CB        14.6620   66.9820   10.9100 C.3     3  AR73        0.0281
     25  CG        13.2820   67.3380   10.3770 C.3     3  AR73        0.0488
     26  CD        13.1760   67.0430    8.8730 C.3     3  AR73        0.2205
     27  NE        11.8440   67.4140    8.4070 N.pl3   3  AR73       -0.0865
     28  CZ        11.4170   67.1800    7.1820 C.cat   3  AR73        0.5346
     29  NH1       10.2060   67.5320    6.8030 N.pl3   3  AR73        0.1354
     30  NH2       12.2310   66.6400    6.2900 N.pl3   3  AR73        0.1354
@<TRIPOS>BOND
     1    30    28    1
     2    29    28    1
     3    28    27    2
     4    27    26    1
     5    26    25    1
     6    11     9    1
     7    25    24    1
     8    10     9    1
     9    24    21    1
    10     9     8    1
    11     7     6    2
    12     8     5    1
    13     5     6    1
    14     5     4    1
    15     6    12   am
    16    21    20    1
    17    21    22    1
    18    20    14   am
    19    22    23    1
    20    12    13    1
    21    13    14    1
    22    13    16    1
    23    14    15    2
    24    19    17    1
    25     4     1   am
    26     2     1    2
    27     1     3    1
    28    16    17    1
    29    17    18    1
