@<TRIPOS>MOLECULE
2agk_CIT_A_1.pdb
 13 12 0 0 0
SMALL
GASTEIGER

@<TRIPOS>ATOM
      1  C1        11.6890   29.4160    6.6690 C.2   1002  CIT1002     0.3680
      2  O1        12.5020   29.1990    5.7430 O.co2 1002  CIT1002    -0.2455
      3  O2        10.4970   29.0850    6.5060 O.co2 1002  CIT1002    -0.2455
      4  C2        12.1100   30.0500    7.9760 C.3   1002  CIT1002     0.1560
      5  C3        13.3590   30.9220    7.8460 C.3   1002  CIT1002     0.2402
      6  O7        14.4120   30.2130    7.1370 O.3   1002  CIT1002    -0.2129
      7  C4        13.8800   31.4080    9.2020 C.3   1002  CIT1002     0.1560
      8  C5        14.3360   30.3010   10.1270 C.2   1002  CIT1002     0.3680
      9  O3        14.0600   29.0950    9.9040 O.co2 1002  CIT1002    -0.2455
     10  O4        15.0140   30.6060   11.1350 O.co2 1002  CIT1002    -0.2455
     11  C6        12.9540   32.1750    7.0880 C.2   1002  CIT1002     0.3927
     12  O5        13.6630   32.5720    6.1530 O.co2 1002  CIT1002    -0.2429
     13  O6        11.9180   32.8110    7.4050 O.co2 1002  CIT1002    -0.2429
@<TRIPOS>BOND
     1     2     1   ar
     2    12    11   ar
     3     3     1   ar
     4     1     4    1
     5    11    13   ar
     6    11     5    1
     7     6     5    1
     8     5     4    1
     9     5     7    1
    10     7     8    1
    11     9     8   ar
    12     8    10   ar
