@<TRIPOS>MOLECULE
2agp_DGT_A_1.pdb
 31 33 0 0 0
SMALL
GASTEIGER

@<TRIPOS>ATOM
      1  PG       -46.6250  -10.5600   32.0840 P.3   401  DGT401      0.5373
      2  O1G      -46.7590  -11.0010   30.7220 O.2   401  DGT401     -0.2221
      3  O2G      -47.1110   -9.2450   32.5320 O.3   401  DGT401     -0.1143
      4  O3G      -45.1220  -10.8010   32.6150 O.3   401  DGT401     -0.1143
      5  O3B      -47.6090  -11.6150   32.7070 O.3   401  DGT401     -0.2258
      6  PB       -48.5430  -12.7080   32.0510 P.3   401  DGT401      0.2277
      7  O1B      -48.3380  -12.6720   30.6630 O.2   401  DGT401     -0.5168
      8  O2B      -49.8030  -12.5780   32.7670 O.3   401  DGT401     -0.4368
      9  O3A      -47.6050  -13.8280   32.6580 O.3   401  DGT401     -0.2700
     10  PA       -47.7450  -14.4770   34.1310 P.3   401  DGT401      0.2189
     11  O1A      -46.5130  -15.3450   33.9910 O.2   401  DGT401     -0.5170
     12  O2A      -49.1370  -15.0140   34.1510 O.3   401  DGT401     -0.4371
     13  O5'      -47.6390  -13.2300   35.1630 O.3   401  DGT401     -0.3112
     14  C5'      -46.6190  -12.3770   35.3010 C.3   401  DGT401      0.1812
     15  C4'      -46.3030  -11.5910   36.5270 C.3   401  DGT401      0.1772
     16  O4'      -45.1540  -12.2220   37.1320 O.3   401  DGT401     -0.3347
     17  C3'      -45.7980  -10.3110   35.8460 C.3   401  DGT401      0.1857
     18  O3'      -46.4030   -9.2730   36.5300 O.3   401  DGT401     -0.2203
     19  C2'      -44.2690  -10.4360   35.8900 C.3   401  DGT401      0.0865
     20  C1'      -43.9350  -11.5600   36.8680 C.3   401  DGT401      0.1981
     21  N9       -43.0810  -12.6340   36.3430 N.pl3 401  DGT401     -0.2374
     22  C8       -43.2770  -13.6490   35.3710 C.3   401  DGT401      0.2245
     23  N7       -42.2540  -14.4350   35.1960 N.2   401  DGT401     -0.2322
     24  C5       -41.3270  -13.9070   36.1040 C.2   401  DGT401      0.2182
     25  C6       -39.9700  -14.2900   36.4530 C.1   401  DGT401      0.2372
     26  O6       -39.4180  -15.2420   35.9260 O.2   401  DGT401     -0.2069
     27  N1       -39.2810  -13.4830   37.4810 N.2   401  DGT401     -0.2485
     28  C2       -39.8830  -12.3750   38.1250 C.1   401  DGT401      0.2531
     29  N2       -39.2200  -11.6860   39.0600 N.pl3 401  DGT401     -0.0226
     30  N3       -41.1640  -12.0140   37.7980 N.2   401  DGT401     -0.3074
     31  C4       -41.8100  -12.7980   36.8130 C.2   401  DGT401      0.2299
@<TRIPOS>BOND
     1     7     6    2
     2     2     1    2
     3     6     9    1
     4     6     5    1
     5     6     8    1
     6     1     3    1
     7     1     4    1
     8     1     5    1
     9     9    10    1
    10    11    10    2
    11    10    12    1
    12    10    13    1
    13    13    14    1
    14    23    22    1
    15    23    24    2
    16    14    15    1
    17    22    21    1
    18    17    19    1
    19    17    15    1
    20    17    18    1
    21    19    20    1
    22    26    25    2
    23    24    25    1
    24    24    31    1
    25    21    31    1
    26    21    20    1
    27    25    27    2
    28    15    16    1
    29    31    30    2
    30    20    16    1
    31    27    28    2
    32    30    28    2
    33    28    29    1
