@<TRIPOS>MOLECULE
2agq_DTP_A_1.pdb
 30 32 0 0 0
SMALL
GASTEIGER

@<TRIPOS>ATOM
      1  PG        25.9000   11.0310    4.5630 P.3   1814  DTP1814     0.5373
      2  O1G       27.0850   11.4830    5.4530 O.3   1814  DTP1814    -0.1143
      3  O2G       25.4090   12.2550    3.7430 O.2   1814  DTP1814    -0.2221
      4  O3G       26.3520    9.7770    3.7490 O.3   1814  DTP1814    -0.1143
      5  PB        23.9070   10.1580    6.5790 P.3   1814  DTP1814     0.2277
      6  O1B       22.7570    9.2950    5.9950 O.2   1814  DTP1814    -0.5168
      7  O2B       24.8000    9.2630    7.5010 O.3   1814  DTP1814    -0.4368
      8  O3B       25.1140   10.7970    5.8670 O.3   1814  DTP1814    -0.2258
      9  PA        24.1950   12.3060    8.4560 P.3   1814  DTP1814     0.2189
     10  O1A       25.5800   12.0510    8.4050 O.3   1814  DTP1814    -0.4371
     11  O2A       24.0270   13.7880    8.2430 O.2   1814  DTP1814    -0.5170
     12  O3A       23.2620   11.4010    7.3540 O.3   1814  DTP1814    -0.2700
     13  O5'       23.5060   11.8870    9.4960 O.3   1814  DTP1814    -0.3112
     14  C5'       23.7460   10.6260   10.2850 C.3   1814  DTP1814     0.1813
     15  C4'       22.5080    9.8090   10.6630 C.3   1814  DTP1814     0.1795
     16  O4'       21.5900   10.4260   11.5970 O.3   1814  DTP1814    -0.3155
     17  C3'       21.6580    9.3590    9.4220 C.3   1814  DTP1814     0.1883
     18  O3'       21.8480    8.0120    9.0880 O.3   1814  DTP1814    -0.2202
     19  C2'       20.2500    9.7340    9.7450 C.3   1814  DTP1814     0.1151
     20  C1'       20.2840   10.4250   11.1190 C.3   1814  DTP1814     0.2873
     21  N9        19.6180   11.7540   10.8050 N.pl3 1814  DTP1814    -0.1460
     22  C8        20.1960   12.8580   10.1520 C.3   1814  DTP1814     0.3377
     23  N7        19.3710   13.8500    9.9880 N.2   1814  DTP1814    -0.2095
     24  C5        18.1960   13.4180   10.5730 C.2   1814  DTP1814     0.2526
     25  C6        16.8860   14.0120   10.6910 C.2   1814  DTP1814     0.4393
     26  N6        16.6110   15.2470   10.2470 N.pl3 1814  DTP1814     0.2180
     27  N1        15.9050   13.2660   11.3470 N.2   1814  DTP1814     0.0021
     28  C2        16.1570   11.9960   11.8120 C.3   1814  DTP1814     0.5254
     29  N3        17.3300   11.3370   11.7360 N.2   1814  DTP1814    -0.0055
     30  C4        18.3030   12.1130   11.0680 C.2   1814  DTP1814     0.3518
@<TRIPOS>BOND
     1     3     1    2
     2     4     1    1
     3     1     2    1
     4     1     8    1
     5     8     5    1
     6     6     5    2
     7     5    12    1
     8     5     7    1
     9    12     9    1
    10    11     9    2
    11    10     9    1
    12     9    13    1
    13    18    17    1
    14    17    19    1
    15    17    15    1
    16    13    14    1
    17    19    20    1
    18    23    22    1
    19    23    24    2
    20    22    21    1
    21    26    25    1
    22    14    15    1
    23    24    25    1
    24    24    30    1
    25    15    16    1
    26    25    27    2
    27    21    30    1
    28    21    20    1
    29    30    29    2
    30    20    16    1
    31    27    28    1
    32    29    28    1
