@<TRIPOS>MOLECULE
2ags_FKD_A_1.pdb
 18 18 0 0 0
SMALL
GASTEIGER

@<TRIPOS>ATOM
      1  O1B       27.8000   -3.4540    9.8000 O.co2 700  FKD700     -0.2429
      2  C1        27.1550   -3.9790    8.8400 C.2   700  FKD700      0.3942
      3  O1A       27.2920   -5.1800    8.5050 O.co2 700  FKD700     -0.2429
      4  C2        26.2450   -3.1680    7.9300 C.3   700  FKD700      0.2534
      5  C3        25.6760   -2.0230    8.7690 C.3   700  FKD700      0.2317
      6  F1        25.3490   -2.3370   10.0450 F     700  FKD700     -0.2312
      7  C4        24.4340   -1.4610    8.0940 C.3   700  FKD700      0.2199
      8  O4        23.9720   -0.3210    8.7960 O.3   700  FKD700     -0.2173
      9  O6        25.2110   -4.1490    7.7270 O.3   700  FKD700     -0.3401
     10  C6        24.0070   -3.6850    7.1300 C.3   700  FKD700      0.1816
     11  C5        23.3760   -2.5390    7.9410 C.3   700  FKD700      0.2145
     12  O5        22.2230   -2.0210    7.2940 O.3   700  FKD700     -0.2176
     13  C7        23.0600   -4.8980    7.1340 C.3   700  FKD700      0.2142
     14  O7        22.8400   -5.3660    8.4750 O.3   700  FKD700     -0.2176
     15  C8        23.6630   -6.0350    6.3250 C.3   700  FKD700      0.2174
     16  O8        23.8140   -5.5910    4.9870 O.3   700  FKD700     -0.2175
     17  C9        22.7240   -7.2600    6.3510 C.3   700  FKD700      0.2175
     18  O9        21.4730   -6.8920    5.8070 O.3   700  FKD700     -0.2175
@<TRIPOS>BOND
     1    16    15    1
     2    18    17    1
     3    15    17    1
     4    15    13    1
     5    10    13    1
     6    10     9    1
     7    10    11    1
     8    13    14    1
     9    12    11    1
    10     9     4    1
    11     4     5    1
    12     4     2    1
    13    11     7    1
    14     7     5    1
    15     7     8    1
    16     3     2   ar
    17     5     6    1
    18     2     1   ar
