@<TRIPOS>MOLECULE
2agt_FID_A_1.pdb
 20 22 0 0 0
SMALL
GASTEIGER

@<TRIPOS>ATOM
      1  C2I       15.7350   -6.1760   19.2210 C.1   320  FID320      0.3075
      2  N4        14.9510   -5.7300   18.1710 N.2   320  FID320     -0.2446
      3  C5        15.4040   -6.1850   16.9930 C.1   320  FID320      0.2166
      4  C7I       16.6130   -7.0900   17.2880 C.3   320  FID320      0.2260
      5  C12       16.1990   -8.5290   16.9490 C.ar  320  FID320      0.0506
      6  C13       15.3460   -9.2400   17.7640 C.ar  320  FID320      0.0313
      7  C14       14.9360  -10.4930   17.3850 C.ar  320  FID320      0.1401
      8  F17       14.0990  -11.1740   18.2150 F     320  FID320     -0.2042
      9  C15       15.3230  -11.0790   16.2290 C.ar  320  FID320      0.0327
     10  C16       16.1770  -10.3640   15.4160 C.ar  320  FID320      0.0390
     11  C11       16.6130   -9.0890   15.7600 C.ar  320  FID320      0.1380
     12  O10       17.5050   -8.4820   14.9050 O.3   320  FID320     -0.4699
     13  C9        17.7700   -7.0990   15.0640 C.3   320  FID320      0.2477
     14  C19       19.0510   -6.7260   14.3580 C.2   320  FID320      0.3010
     15  N21       19.7020   -7.7680   13.7930 N.am  320  FID320     -0.0846
     16  O20       19.4270   -5.5570   14.3610 O.2   320  FID320     -0.2677
     17  C8I       17.8700   -6.6860   16.5260 C.3   320  FID320      0.0980
     18  N1I       16.7600   -6.8880   18.7200 N.2   320  FID320     -0.1582
     19  O6I       14.9520   -5.9750   15.8850 O.2   320  FID320     -0.2111
     20  O3I       15.5400   -5.9250   20.4080 O.2   320  FID320     -0.1881
@<TRIPOS>BOND
     1    15    14   am
     2    14    16    2
     3    14    13    1
     4    12    13    1
     5    12    11    1
     6    13    17    1
     7    10    11   ar
     8    10     9   ar
     9    11     5   ar
    10    19     3    2
    11     9     7   ar
    12    17     4    1
    13     5     4    1
    14     5     6   ar
    15     3     4    1
    16     3     2    2
    17     4    18    1
    18     7     6   ar
    19     7     8    1
    20     2     1    2
    21    18     1    2
    22     1    20    2
