@<TRIPOS>MOLECULE
2agt_NAP_A_1.pdb
 48 52 0 0 0
SMALL
GASTEIGER

@<TRIPOS>ATOM
      1  PA        22.4220   -4.7520   26.7380 P.3   318  NAP318      0.2189
      2  O1A       23.3480   -3.7160   26.2330 O.2   318  NAP318     -0.5170
      3  O2A       21.3390   -4.4030   27.6760 O.3   318  NAP318     -0.4371
      4  O5B       23.3430   -5.9270   27.2720 O.3   318  NAP318     -0.3112
      5  C5B       22.7380   -7.1290   27.7980 C.3   318  NAP318      0.1813
      6  C4B       23.8850   -8.0490   28.1780 C.3   318  NAP318      0.1820
      7  O4B       24.6460   -7.4100   29.2550 O.3   318  NAP318     -0.3136
      8  C3B       23.4760   -9.4180   28.6660 C.3   318  NAP318      0.2157
      9  O3B       24.4040  -10.3900   28.1640 O.3   318  NAP318     -0.2175
     10  C2B       23.5990   -9.2900   30.2000 C.3   318  NAP318      0.2314
     11  O2B       23.9240  -10.5420   30.8220 O.3   318  NAP318     -0.2630
     12  C1B       24.7590   -8.3460   30.3250 C.3   318  NAP318      0.3158
     13  N9A       24.7680   -7.5860   31.5660 N.pl3 318  NAP318     -0.1439
     14  C8A       23.6870   -6.9350   32.1310 C.3   318  NAP318      0.3377
     15  N7A       24.0040   -6.3040   33.2390 N.2   318  NAP318     -0.2095
     16  C5A       25.3380   -6.5660   33.4160 C.2   318  NAP318      0.2526
     17  C6A       26.2010   -6.1890   34.4530 C.2   318  NAP318      0.4393
     18  N6A       25.8450   -5.4960   35.5190 N.pl3 318  NAP318      0.2180
     19  N1A       27.4780   -6.6600   34.3460 N.2   318  NAP318      0.0021
     20  C2A       27.8570   -7.4000   33.2810 C.3   318  NAP318      0.5254
     21  N3A       27.0940   -7.7800   32.2530 N.2   318  NAP318     -0.0055
     22  C4A       25.8130   -7.3410   32.3860 C.2   318  NAP318      0.3518
     23  O3        21.7960   -5.4830   25.4340 O.3   318  NAP318     -0.2703
     24  PN        20.4220   -5.5870   24.6460 P.3   318  NAP318      0.2189
     25  O1N       19.6190   -6.6940   25.2160 O.3   318  NAP318     -0.4371
     26  O2N       20.7620   -5.6280   23.2010 O.2   318  NAP318     -0.5170
     27  O5D       19.6900   -4.1900   24.8670 O.3   318  NAP318     -0.3112
     28  C5D       18.8080   -3.9290   25.9830 C.3   318  NAP318      0.1813
     29  C4D       17.3700   -4.0340   25.5570 C.3   318  NAP318      0.1799
     30  O4D       17.0600   -3.0170   24.5910 O.3   318  NAP318     -0.3327
     31  C3D       16.9440   -5.3150   24.8820 C.3   318  NAP318      0.2158
     32  O3D       16.8830   -6.4250   25.7560 O.3   318  NAP318     -0.2175
     33  C2D       15.6090   -4.8860   24.2850 C.3   318  NAP318      0.2309
     34  O2D       14.6610   -4.8270   25.3210 O.3   318  NAP318     -0.2158
     35  C1D       15.9790   -3.4820   23.7620 C.3   318  NAP318      0.2263
     36  N1N       16.4400   -3.4650   22.3510 N.pl3 318  NAP318     -0.2787
     37  C2N       15.6090   -2.9430   21.4130 C.3   318  NAP318      0.1244
     38  C3N       15.9820   -2.9170   20.0680 C.2   318  NAP318      0.0544
     39  C7N       15.1050   -2.2830   19.0450 C.2   318  NAP318      0.2818
     40  O7N       15.3000   -2.5330   17.8500 O.2   318  NAP318     -0.2670
     41  N7N       14.1860   -1.4360   19.4770 N.am  318  NAP318     -0.0839
     42  C4N       17.2090   -3.4670   19.6870 C.2   318  NAP318      0.0033
     43  C5N       18.0630   -3.9720   20.6650 C.2   318  NAP318      0.0157
     44  C6N       17.7140   -3.9290   21.9940 C.2   318  NAP318      0.0633
     45  P2B       22.8840  -11.4290   31.6440 P.3   318  NAP318      0.5328
     46  O1X       21.5030  -11.2120   31.0610 O.2   318  NAP318     -0.2224
     47  O2X       23.4630  -12.8050   31.4480 O.3   318  NAP318     -0.1145
     48  O3X       22.9750  -10.9600   33.0780 O.3   318  NAP318     -0.1145
@<TRIPOS>BOND
     1    40    39    2
     2    39    41   am
     3    39    38    1
     4    42    38    2
     5    42    43    1
     6    38    37    1
     7    43    44    2
     8    37    36    1
     9    44    36    1
    10    36    35    1
    11    26    24    2
    12    35    33    1
    13    35    30    1
    14    33    31    1
    15    33    34    1
    16    30    29    1
    17    24    27    1
    18    24    25    1
    19    24    23    1
    20    27    28    1
    21    31    29    1
    22    31    32    1
    23    23     1    1
    24    29    28    1
    25     2     1    2
    26     1     4    1
    27     1     3    1
    28     4     5    1
    29     5     6    1
    30     9     8    1
    31     6     8    1
    32     6     7    1
    33     8    10    1
    34     7    12    1
    35    10    12    1
    36    10    11    1
    37    12    13    1
    38    11    45    1
    39    46    45    2
    40    47    45    1
    41    13    14    1
    42    13    22    1
    43    45    48    1
    44    14    15    1
    45    21    22    2
    46    21    20    1
    47    22    16    1
    48    15    16    2
    49    20    19    1
    50    16    17    1
    51    19    17    2
    52    17    18    1
