@<TRIPOS>MOLECULE
2agv_BHQ_A_1.pdb
 16 16 0 0 0
SMALL
GASTEIGER

@<TRIPOS>ATOM
      1  O1         7.4130  -13.7920   11.6700 O.3   1004  BHQ1004    -0.2869
      2  O2         1.9460  -13.3450   10.6600 O.3   1004  BHQ1004    -0.2869
      3  C1         6.0640  -13.6700   11.3900 C.ar  1004  BHQ1004     0.1916
      4  C2         5.6440  -13.0110   10.1660 C.ar  1004  BHQ1004     0.0193
      5  C3         4.2280  -12.9480   10.0000 C.ar  1004  BHQ1004     0.0406
      6  C4         3.2990  -13.4680   10.9300 C.ar  1004  BHQ1004     0.1916
      7  C5         3.7210  -14.1210   12.1430 C.ar  1004  BHQ1004     0.0193
      8  C6         5.1470  -14.1880   12.3170 C.ar  1004  BHQ1004     0.0406
      9  C7         6.6240  -12.4090    9.0950 C.3   1004  BHQ1004     0.0221
     10  C8         7.5070  -11.3110    9.7240 C.3   1004  BHQ1004     0.0045
     11  C9         7.5250  -13.5030    8.5040 C.3   1004  BHQ1004     0.0045
     12  C10        5.9060  -11.7630    7.8990 C.3   1004  BHQ1004     0.0045
     13  C11        2.7320  -14.7000   13.1900 C.3   1004  BHQ1004     0.0221
     14  C12        1.8320  -15.7690   12.5800 C.3   1004  BHQ1004     0.0045
     15  C13        3.4540  -15.3470   14.3900 C.3   1004  BHQ1004     0.0045
     16  C14        1.8860  -13.5510   13.7820 C.3   1004  BHQ1004     0.0045
@<TRIPOS>BOND
     1    12     9    1
     2    11     9    1
     3     9    10    1
     4     9     4    1
     5     5     4   ar
     6     5     6   ar
     7     4     3   ar
     8     2     6    1
     9     6     7   ar
    10     3     1    1
    11     3     8   ar
    12     7     8   ar
    13     7    13    1
    14    14    13    1
    15    13    16    1
    16    13    15    1
