@<TRIPOS>MOLECULE
2agv_TG1_A_1.pdb
 46 48 0 0 0
SMALL
GASTEIGER

@<TRIPOS>ATOM
      1  C34       -4.6000  -24.6580   16.3870 C.3   1003  TG11003     0.0474
      2  C11       -3.9400  -24.0880   15.1190 C.3   1003  TG11003     0.2470
      3  C7        -4.8080  -24.2190   13.8000 C.3   1003  TG11003     0.2380
      4  C8        -5.9010  -23.1210   13.6030 C.3   1003  TG11003     0.2067
      5  C9        -6.8580  -23.2480   12.3960 C.3   1003  TG11003     0.0869
      6  C10       -6.2880  -23.2700   10.9230 C.3   1003  TG11003     0.1465
      7  C1        -5.2690  -24.4870   10.6150 C.3   1003  TG11003     0.1022
      8  C2        -4.9770  -24.7480    9.0920 C.3   1003  TG11003     0.2195
      9  O1        -5.2790  -26.1250    8.7540 O.3   1003  TG11003    -0.4477
     10  C13       -5.8710  -26.4120    7.5740 C.2   1003  TG11003     0.3170
     11  O2        -6.3640  -25.6070    6.7920 O.2   1003  TG11003    -0.2501
     12  C14       -5.7980  -27.9360    7.4020 C.3   1003  TG11003     0.1096
     13  C15       -4.9990  -28.5080    6.2210 C.3   1003  TG11003     0.0116
     14  C16       -5.6040  -28.3410    4.8180 C.3   1003  TG11003     0.0006
     15  C17       -4.9370  -27.2050    4.0170 C.3   1003  TG11003     0.0000
     16  C18       -4.3790  -27.6850    2.6730 C.3   1003  TG11003     0.0000
     17  C19       -4.5870  -26.6900    1.5150 C.3   1003  TG11003     0.0000
     18  C20       -4.7320  -27.3670    0.1460 C.3   1003  TG11003     0.0000
     19  C3        -3.4340  -24.6580    8.8940 C.3   1003  TG11003     0.2271
     20  O3        -3.1380  -23.4880    8.0200 O.3   1003  TG11003    -0.4414
     21  C21       -2.6620  -23.7890    6.8080 C.2   1003  TG11003     0.3372
     22  O4        -2.3540  -24.9770    6.4000 O.2   1003  TG11003    -0.2453
     23  C22       -2.8010  -22.6080    5.7640 C.2   1003  TG11003     0.0495
     24  C23       -3.1460  -23.0930    4.3810 C.3   1003  TG11003     0.0375
     25  C24       -2.7060  -21.2860    5.8900 C.2   1003  TG11003    -0.0236
     26  C25       -2.4410  -20.4300    7.1030 C.3   1003  TG11003     0.0306
     27  C4        -2.8750  -24.4650   10.2930 C.2   1003  TG11003    -0.0052
     28  C26       -1.3640  -24.2900   10.4600 C.3   1003  TG11003     0.0296
     29  C5        -3.8450  -24.4130   11.2370 C.2   1003  TG11003     0.0000
     30  C6        -3.6380  -24.1750   12.7640 C.3   1003  TG11003     0.2211
     31  O5        -2.6740  -25.0500   13.3850 O.3   1003  TG11003    -0.4435
     32  C12       -2.6940  -24.8670   14.7240 C.2   1003  TG11003     0.3477
     33  O12       -1.8410  -25.2900   15.5100 O.2   1003  TG11003    -0.2473
     34  C31       -5.6860  -21.9090   10.4640 C.3   1003  TG11003     0.0443
     35  O9        -7.4780  -23.1130   10.0490 O.3   1003  TG11003    -0.4552
     36  C32       -8.5390  -23.8860    9.7300 C.2   1003  TG11003     0.3173
     37  O10       -8.7140  -25.0450   10.0730 O.2   1003  TG11003    -0.2501
     38  C33       -9.3980  -23.2100    8.8210 C.3   1003  TG11003     0.1212
     39  O7        -5.2510  -21.8040   13.6090 O.3   1003  TG11003    -0.4493
     40  C27       -5.5100  -20.9730   14.6650 C.2   1003  TG11003     0.3169
     41  O8        -6.2710  -21.2200   15.5920 O.2   1003  TG11003    -0.2501
     42  C28       -4.6370  -19.7460   14.5970 C.3   1003  TG11003     0.1096
     43  C29       -3.6550  -19.6590   15.7910 C.3   1003  TG11003     0.0116
     44  C30       -3.3890  -18.2050   16.1360 C.3   1003  TG11003     0.0006
     45  O6        -5.4120  -25.5510   13.7600 O.3   1003  TG11003    -0.2147
     46  O11       -3.3890  -22.8030   15.4590 O.3   1003  TG11003    -0.2114
@<TRIPOS>BOND
     1    18    17    1
     2    17    16    1
     3    16    15    1
     4    15    14    1
     5    24    23    1
     6    14    13    1
     7    23    25    2
     8    23    21    1
     9    25    26    1
    10    13    12    1
    11    22    21    2
    12    11    10    2
    13    21    20    1
    14    12    10    1
    15    10     9    1
    16    20    19    1
    17     9     8    1
    18    38    36    1
    19    19     8    1
    20    19    27    1
    21     8     7    1
    22    36    35    1
    23    36    37    2
    24    35     6    1
    25    27    28    1
    26    27    29    2
    27    34     6    1
    28     7     6    1
    29     7    29    1
    30     6     5    1
    31    29    30    1
    32     5     4    1
    33    30    31    1
    34    30     3    1
    35    31    32    1
    36     4    39    1
    37     4     3    1
    38    39    40    1
    39    45     3    1
    40     3     2    1
    41    42    40    1
    42    42    43    1
    43    40    41    2
    44    32     2    1
    45    32    33    2
    46     2    46    1
    47     2     1    1
    48    43    44    1
