@<TRIPOS>MOLECULE
2agw_TSS_D_1.pdb
 12 13 0 0 0
SMALL
GASTEIGER

@<TRIPOS>ATOM
      1  N1         0.5740    3.9460    6.2860 N.3   3001  TSS3001    -0.1310
      2  CA        -0.1160    4.3920    7.5020 C.3   3001  TSS3001     0.1140
      3  CB        -1.4380    3.7080    7.7560 C.3   3001  TSS3001     0.0485
      4  CG        -2.0500    3.9490    9.1050 C.2   3001  TSS3001    -0.0004
      5  CD1       -2.4750    5.1410    9.6910 C.2   3001  TSS3001     0.0942
      6  NE1       -3.0070    4.8580   10.9140 N.2   3001  TSS3001    -0.2482
      7  CE2       -2.9440    3.5210   11.1080 C.2   3001  TSS3001     0.0631
      8  CD2       -2.3550    2.9420    9.9890 C.2   3001  TSS3001     0.0114
      9  CZ2       -3.3150    2.6950   12.1580 C.3   3001  TSS3001     0.0717
     10  CH2       -3.1080    1.3280   12.0400 C.2   3001  TSS3001    -0.0198
     11  CZ3       -2.5230    0.7600   10.9040 C.2   3001  TSS3001    -0.0042
     12  CE3       -2.1340    1.5840    9.8610 C.2   3001  TSS3001     0.0006
@<TRIPOS>BOND
     1     1     2    1
     2     2     3    1
     3     3     4    1
     4     4     5    2
     5     4     8    1
     6     5     6    1
     7    12     8    2
     8    12    11    1
     9     8     7    1
    10    11    10    2
    11     6     7    2
    12     7     9    1
    13    10     9    1
