@<TRIPOS>MOLECULE
2agx_TSH_D_1.pdb
 12 13 0 0 0
SMALL
GASTEIGER

@<TRIPOS>ATOM
      1  N         19.1870   13.6910   32.1880 N.2     2  TSH2       -0.1510
      2  CA        19.6850   14.2880   31.1360 C.2     2  TSH2        0.1004
      3  CB        21.1800   14.4860   30.9280 C.3     2  TSH2        0.0768
      4  CG        21.3930   14.9230   29.5030 C.2     2  TSH2        0.0042
      5  CD2       22.0180   16.0740   29.0460 C.2     2  TSH2        0.0116
      6  CE3       22.6200   17.0990   29.7560 C.2     2  TSH2       -0.0202
      7  CZ3       23.1790   18.1540   29.0270 C.3     2  TSH2        0.0521
      8  CH2       23.1450   18.1720   27.6280 C.2     2  TSH2       -0.0199
      9  CZ2       22.5450   17.1250   26.9320 C.2     2  TSH2        0.0148
     10  CE2       21.9740   16.0780   27.6500 C.2     2  TSH2        0.0804
     11  NE1       21.3460   14.9480   27.2550 N.2     2  TSH2       -0.2442
     12  CD1       20.9840   14.2410   28.3610 C.2     2  TSH2        0.0949
@<TRIPOS>BOND
     1     9     8    2
     2     9    10    1
     3    11    10    2
     4    11    12    1
     5     8     7    1
     6    10     5    1
     7    12     4    2
     8     7     6    1
     9     5     4    1
    10     5     6    2
    11     4     3    1
    12     3     2    1
    13     2     1    2
