@<TRIPOS>MOLECULE
2agy_TSH_D_1.pdb
 12 13 0 0 0
SMALL
GASTEIGER

@<TRIPOS>ATOM
      1  N          2.5680    3.5650    5.2330 N.3     2  TSH2       -0.1310
      2  CA         1.4970    3.3180    5.9910 C.3     2  TSH2        0.1140
      3  CB         1.5660    3.1740    7.5400 C.3     2  TSH2        0.0485
      4  CG         0.1660    2.9370    8.0890 C.2     2  TSH2       -0.0004
      5  CD2       -0.2810    1.8760    8.8650 C.2     2  TSH2        0.0114
      6  CE3        0.3930    0.7780    9.3400 C.2     2  TSH2        0.0006
      7  CZ3       -0.2860   -0.1620   10.1040 C.2     2  TSH2       -0.0042
      8  CH2       -1.6380    0.0080   10.3820 C.2     2  TSH2       -0.0198
      9  CZ2       -2.3130    1.1180    9.9050 C.3     2  TSH2        0.0717
     10  CE2       -1.6330    2.0580    9.1360 C.2     2  TSH2        0.0631
     11  NE1       -2.0050    3.2070    8.5460 N.2     2  TSH2       -0.2482
     12  CD1       -0.9380    3.7590    7.9020 C.2     2  TSH2        0.0942
@<TRIPOS>BOND
     1     1     2    1
     2     2     3    1
     3     3     4    1
     4    12     4    2
     5    12    11    1
     6     4     5    1
     7    11    10    2
     8     5    10    1
     9     5     6    2
    10    10     9    1
    11     6     7    1
    12     9     8    1
    13     7     8    2
