@<TRIPOS>MOLECULE
2agz_TSC_D_1.pdb
 13 14 0 0 0
SMALL
GASTEIGER

@<TRIPOS>ATOM
      1  O1        16.7730   39.1640   91.6240 O.3   190  TSC190     -0.2018
      2  CA        15.8350   38.6370   90.7400 C.3   190  TSC190      0.2462
      3  N         15.8340   39.3860   89.4340 N.3   190  TSC190     -0.0964
      4  CB        14.4290   38.5860   91.3420 C.3   190  TSC190      0.0807
      5  CG        14.2750   37.2230   91.9480 C.2   190  TSC190      0.0022
      6  CD1       13.9260   36.1670   91.1310 C.2   190  TSC190      0.0947
      7  NE1       13.8720   35.0490   91.8630 N.2   190  TSC190     -0.2442
      8  CE2       14.1690   35.3290   93.1480 C.2   190  TSC190      0.0804
      9  CD2       14.4320   36.6950   93.2230 C.2   190  TSC190      0.0114
     10  CZ2       14.2470   34.5400   94.2870 C.2   190  TSC190      0.0148
     11  CH2       14.5900   35.0970   95.4970 C.2   190  TSC190     -0.0199
     12  CZ3       14.8430   36.4480   95.5750 C.3   190  TSC190      0.0521
     13  CE3       14.7620   37.2510   94.4290 C.2   190  TSC190     -0.0202
@<TRIPOS>BOND
     1     3     2    1
     2     2     4    1
     3     2     1    1
     4     6     7    1
     5     6     5    2
     6     4     5    1
     7     7     8    2
     8     5     9    1
     9     8     9    1
    10     8    10    1
    11     9    13    2
    12    10    11    2
    13    13    12    1
    14    11    12    1
