@<TRIPOS>MOLECULE
2ah0_TSH_D_1.pdb
 12 13 0 0 0
SMALL
GASTEIGER

@<TRIPOS>ATOM
      1  N          2.4650    3.7850    5.2580 N.2     1  TSH1       -0.1510
      2  CA         1.4240    3.7070    6.0430 C.2     1  TSH1        0.1004
      3  CB         1.5110    3.2550    7.5090 C.3     1  TSH1        0.0768
      4  CG         0.1080    3.0620    8.0590 C.2     1  TSH1        0.0042
      5  CD2       -0.3600    2.0230    8.8540 C.2     1  TSH1        0.0116
      6  CE3        0.3080    0.9240    9.3800 C.2     1  TSH1       -0.0202
      7  CZ3       -0.4150    0.0160   10.1560 C.3     1  TSH1        0.0521
      8  CH2       -1.7790    0.2210   10.4110 C.2     1  TSH1       -0.0199
      9  CZ2       -2.4250    1.3440    9.9030 C.2     1  TSH1        0.0148
     10  CE2       -1.7160    2.2400    9.1110 C.2     1  TSH1        0.0804
     11  NE1       -2.0670    3.3880    8.4930 N.2     1  TSH1       -0.2442
     12  CD1       -0.9870    3.9000    7.8490 C.2     1  TSH1        0.0949
@<TRIPOS>BOND
     1     1     2    2
     2     2     3    1
     3     3     4    1
     4    12     4    2
     5    12    11    1
     6     4     5    1
     7    11    10    2
     8     5    10    1
     9     5     6    2
    10    10     9    1
    11     6     7    1
    12     9     8    2
    13     7     8    1
