@<TRIPOS>MOLECULE
2ah0_TSC_H_1.pdb
 13 14 0 0 0
SMALL
GASTEIGER

@<TRIPOS>ATOM
      1  O1         3.2340   -4.2470   39.8280 O.3     1  TSC1       -0.2018
      2  CA         3.6260   -2.9250   40.2050 C.3     1  TSC1        0.2462
      3  N          2.6630   -2.4280   41.2100 N.3     1  TSC1       -0.0964
      4  CB         3.6750   -2.0660   38.9300 C.3     1  TSC1        0.0807
      5  CG         5.0610   -2.2240   38.3450 C.2     1  TSC1        0.0022
      6  CD1        6.2210   -1.6300   38.8300 C.2     1  TSC1        0.0947
      7  NE1        7.2720   -2.0230   38.0650 N.2     1  TSC1       -0.2442
      8  CE2        6.8350   -2.8710   37.1070 C.2     1  TSC1        0.0804
      9  CD2        5.4550   -3.0070   37.2680 C.2     1  TSC1        0.0114
     10  CZ2        7.4850   -3.5460   36.0770 C.2     1  TSC1        0.0148
     11  CH2        6.7560   -4.3710   35.2160 C.2     1  TSC1       -0.0199
     12  CZ3        5.3640   -4.4970   35.3860 C.3     1  TSC1        0.0521
     13  CE3        4.7090   -3.8130   36.4220 C.2     1  TSC1       -0.0202
@<TRIPOS>BOND
     1    11    12    1
     2    11    10    2
     3    12    13    1
     4    10     8    1
     5    13     9    2
     6     8     9    1
     7     8     7    2
     8     9     5    1
     9     7     6    1
    10     5     6    2
    11     5     4    1
    12     4     2    1
    13     1     2    1
    14     2     3    1
