@<TRIPOS>MOLECULE
2ah2_FSI_A_1.pdb
 21 21 0 0 0
SMALL
GASTEIGER

@<TRIPOS>ATOM
      1  O1B      -10.2810   14.9870    3.4290 O.co2 700  FSI700     -0.2429
      2  C1        -9.1280   15.1500    3.8660 C.2   700  FSI700      0.3942
      3  O1A       -8.1240   15.1510    3.1020 O.co2 700  FSI700     -0.2429
      4  C2        -8.9140   15.3180    5.3560 C.3   700  FSI700      0.2533
      5  C3       -10.1100   15.8990    6.0500 C.3   700  FSI700      0.2308
      6  F1       -10.5770   16.9460    5.3630 F     700  FSI700     -0.2312
      7  C4        -9.7270   16.4350    7.4250 C.3   700  FSI700      0.2096
      8  O4       -10.8380   17.0010    8.0260 O.3   700  FSI700     -0.2182
      9  O6        -7.8150   16.2130    5.4450 O.3   700  FSI700     -0.3409
     10  C6        -7.4850   16.7600    6.7390 C.3   700  FSI700      0.1712
     11  C5        -8.6630   17.5640    7.3210 C.3   700  FSI700      0.1580
     12  N5        -8.3980   18.1500    8.5310 N.am  700  FSI700     -0.2019
     13  C10       -8.4190   19.4790    8.7680 C.2   700  FSI700      0.2420
     14  C11       -8.2490   19.9770   10.1910 C.3   700  FSI700      0.0964
     15  O10       -8.5440   20.3310    7.8670 O.2   700  FSI700     -0.2733
     16  C7        -6.1750   17.5330    6.5850 C.3   700  FSI700      0.2134
     17  O7        -6.2060   18.3450    5.4330 O.3   700  FSI700     -0.2176
     18  C8        -4.9650   16.5720    6.5760 C.3   700  FSI700      0.2173
     19  O8        -4.8280   16.0000    7.8610 O.3   700  FSI700     -0.2175
     20  C9        -3.6610   17.2650    6.1930 C.3   700  FSI700      0.2175
     21  O9        -3.3800   18.2450    7.1840 O.3   700  FSI700     -0.2175
@<TRIPOS>BOND
     1     3     2   ar
     2     1     2   ar
     3     2     4    1
     4     4     9    1
     5     4     5    1
     6     6     5    1
     7    17    16    1
     8     9    10    1
     9     5     7    1
    10    20    18    1
    11    20    21    1
    12    18    16    1
    13    18    19    1
    14    16    10    1
    15    10    11    1
    16    11     7    1
    17    11    12    1
    18     7     8    1
    19    15    13    2
    20    12    13   am
    21    13    14    1
