@<TRIPOS>MOLECULE
2ah4_GBS_X_1.pdb
 12 12 0 0 0
SMALL
GASTEIGER

@<TRIPOS>ATOM
      1  CD        27.9300   14.3380   20.6320 C.2   1195  GBS1195     0.2342
      2  OD        28.7130   13.9470   21.4800 O.2   1195  GBS1195    -0.2831
      3  C1        28.2380   14.2570   19.1740 C.ar  1195  GBS1195     0.0424
      4  C21       27.5590   15.0420   18.2440 C.ar  1195  GBS1195     0.0063
      5  C22       29.2790   13.4310   18.7230 C.ar  1195  GBS1195     0.0063
      6  C31       27.9220   15.0370   16.8910 C.ar  1195  GBS1195     0.0372
      7  C32       29.6480   13.3910   17.3820 C.ar  1195  GBS1195     0.0372
      8  C4        28.9820   14.2050   16.4680 C.ar  1195  GBS1195     0.1592
      9  NE        29.3920   14.1540   15.1460 N.pl3 1195  GBS1195    -0.0605
     10  CZ        29.4930   15.1430   14.2940 C.cat 1195  GBS1195     0.5393
     11  NH1       29.8040   14.8820   13.0240 N.pl3 1195  GBS1195     0.1358
     12  NH2       29.2440   16.3990   14.6240 N.pl3 1195  GBS1195     0.1358
@<TRIPOS>BOND
     1    11    10    1
     2    10    12    1
     3    10     9    2
     4     9     8    1
     5     8     6   ar
     6     8     7   ar
     7     6     4   ar
     8     7     5   ar
     9     4     3   ar
    10     5     3   ar
    11     3     1    1
    12     1     2    2
