@<TRIPOS>MOLECULE
2ah7_HEM_X_1.pdb
 43 50 0 0 0
SMALL
GASTEIGER

@<TRIPOS>ATOM
      1 FE         17.6840   13.6190  116.5670 Fe    201  HEM201      0.0000
      2  CHA       17.9980   14.2900  119.8700 C.2   201  HEM201      0.0000
      3  CHB       20.7120   12.0280  116.6040 C.2   201  HEM201      0.0000
      4  CHC       17.2160   12.7300  113.3870 C.2   201  HEM201      0.0000
      5  CHD       15.1350   15.9820  116.2660 C.2   201  HEM201      0.0000
      6  NA        19.1380   13.2530  117.9960 N.2   201  HEM201      0.0000
      7  C1A       19.0420   13.5780  119.3250 C.2   201  HEM201      0.0000
      8  C2A       20.2230   13.0660  119.9980 C.2   201  HEM201      0.0000
      9  C3A       21.0020   12.4490  119.0940 C.2   201  HEM201      0.0000
     10  C4A       20.3000   12.5530  117.8020 C.2   201  HEM201      0.0000
     11  CMA       22.3490   11.7110  119.2740 C.3   201  HEM201      0.0000
     12  CAA       20.5120   13.2080  121.5100 C.3   201  HEM201      0.0000
     13  CBA       19.6230   12.2440  122.2780 C.3   201  HEM201      0.0000
     14  CGA       19.9570   12.2520  123.7430 C.2   201  HEM201      0.0000
     15  O1A       20.9850   11.6470  124.0470 O.co2 201  HEM201      0.0000
     16  O2A       19.2220   12.8270  124.6000 O.co2 201  HEM201      0.0000
     17  NB        18.7610   12.5370  115.2560 N.ar  201  HEM201      0.0000
     18  C1B       19.9480   11.9200  115.4500 C.ar  201  HEM201      0.0000
     19  C2B       20.2350   11.0960  114.2890 C.ar  201  HEM201      0.0000
     20  C3B       19.2610   11.2430  113.3980 C.ar  201  HEM201      0.0000
     21  C4B       18.3000   12.1890  114.0060 C.ar  201  HEM201      0.0000
     22  CMB       21.4800   10.2430  114.1000 C.3   201  HEM201      0.0000
     23  CAB       19.1060   10.6100  112.0200 C.2   201  HEM201      0.0000
     24  CBB       19.3630    9.3190  111.7170 C.2   201  HEM201      0.0000
     25  NC        16.4510   14.3190  115.0900 N.2   201  HEM201      0.0000
     26  C1C       16.3940   13.7520  113.8380 C.2   201  HEM201      0.0000
     27  C2C       15.2840   14.3730  113.1030 C.2   201  HEM201      0.0000
     28  C3C       14.7340   15.2390  113.9360 C.2   201  HEM201      0.0000
     29  C4C       15.4510   15.2390  115.1630 C.2   201  HEM201      0.0000
     30  CMC       14.8080   13.9900  111.6680 C.3   201  HEM201      0.0000
     31  CAC       13.4930   16.1320  113.7860 C.2   201  HEM201      0.0000
     32  CBC       12.7860   16.1990  112.6860 C.2   201  HEM201      0.0000
     33  ND        16.7400   14.9310  117.8340 N.ar  201  HEM201      0.0000
     34  C1D       15.6700   15.7380  117.5100 C.ar  201  HEM201      0.0000
     35  C2D       15.1040   16.2950  118.7450 C.ar  201  HEM201      0.0000
     36  C3D       16.0130   15.7960  119.8340 C.ar  201  HEM201      0.0000
     37  C4D       16.9750   14.9290  119.2150 C.ar  201  HEM201      0.0000
     38  CMD       13.9050   17.2760  118.8740 C.3   201  HEM201      0.0000
     39  CAD       15.9230   16.0790  121.3640 C.3   201  HEM201      0.0000
     40  CBD       15.0050   15.0850  122.0440 C.3   201  HEM201      0.0000
     41  CGD       15.1550   15.2200  123.5710 C.2   201  HEM201      0.0000
     42  O1D       15.9800   15.9580  124.1110 O.co2 201  HEM201      0.0000
     43  O2D       14.4160   14.5790  124.2560 O.co2 201  HEM201      0.0000
@<TRIPOS>BOND
     1    30    27    1
     2    24    23    2
     3    23    20    1
     4    32    31    2
     5    27    26    1
     6    27    28    2
     7     4    26    2
     8     4    21    1
     9    20    21   ar
    10    20    19   ar
    11    31    28    1
    12    26    25    1
    13    28    29    1
    14    21    17   ar
    15    22    19    1
    16    19    18   ar
    17    25    29    2
    18    25     1    1
    19    29     5    1
    20    17    18   ar
    21    17     1    1
    22    18     3    1
    23     5    34    2
    24     1    33    1
    25     1     6    1
    26     3    10    2
    27    34    33   ar
    28    34    35   ar
    29    10     6    1
    30    10     9    1
    31    33    37   ar
    32     6     7    2
    33    35    38    1
    34    35    36   ar
    35     9    11    1
    36     9     8    2
    37    37    36   ar
    38    37     2    2
    39     7     2    1
    40     7     8    1
    41    36    39    1
    42     8    12    1
    43    39    40    1
    44    12    13    1
    45    40    41    1
    46    13    14    1
    47    41    42   ar
    48    41    43   ar
    49    14    15   ar
    50    14    16   ar
