@<TRIPOS>MOLECULE
2ah9_UDH_A_1.pdb
 32 33 0 0 0
SMALL
GASTEIGER

@<TRIPOS>ATOM
      1  N1        37.8380   51.2040   41.0750 N.am  399  UDH399     -0.1766
      2  C2        38.9610   51.7440   40.3900 C.1   399  UDH399      0.2845
      3  N3        39.9630   50.8300   40.0910 N.2   399  UDH399     -0.2452
      4  C4        39.9700   49.4520   40.3990 C.1   399  UDH399      0.2182
      5  C5        38.7940   48.9750   41.0890 C.2   399  UDH399      0.1242
      6  C6        37.8010   49.8170   41.3980 C.2   399  UDH399      0.0929
      7  O2        38.9790   52.9390   40.1200 O.2   399  UDH399     -0.1918
      8  O4        40.9250   48.7650   40.0840 O.2   399  UDH399     -0.2085
      9  C1B       36.7380   52.1840   41.4300 C.3   399  UDH399      0.2401
     10  C2B       35.9380   52.8300   40.3520 C.3   399  UDH399      0.2319
     11  O2'       35.5010   54.1580   40.7160 O.3   399  UDH399     -0.2157
     12  C3B       34.8440   51.8150   40.2220 C.3   399  UDH399      0.2158
     13  C4B       34.4710   51.5360   41.6790 C.3   399  UDH399      0.1799
     14  O4'       35.8140   51.4310   42.2180 O.3   399  UDH399     -0.3320
     15  O3'       33.7270   52.2530   39.4640 O.3   399  UDH399     -0.2175
     16  C5B       33.6660   50.2710   41.7700 C.3   399  UDH399      0.1813
     17  O5'       34.3750   49.0910   41.4240 O.3   399  UDH399     -0.3112
     18  PA        33.9680   48.1960   40.1770 P.3   399  UDH399      0.2189
     19  O1A       33.5560   49.0670   39.0510 O.2   399  UDH399     -0.5170
     20  O2A       34.9770   47.1860   39.7930 O.3   399  UDH399     -0.4371
     21  O3A       32.6510   47.3980   40.8010 O.3   399  UDH399     -0.2703
     22  PB        31.5050   46.7080   39.9910 P.3   399  UDH399      0.2188
     23  O1B       30.6530   46.1060   41.1940 O.3   399  UDH399     -0.4371
     24  O2B       32.1850   45.6030   39.2390 O.3   399  UDH399     -0.3139
     25  O3B       31.0050   47.6210   38.9370 O.2   399  UDH399     -0.5170
     26  C1'       32.8060   44.4480   39.8730 C.3   399  UDH399      0.1491
     27  C2'       33.5990   43.7770   38.7300 C.3   399  UDH399      0.0325
     28  C3'       32.5980   42.7800   38.1290 C.3   399  UDH399      0.0026
     29  C4'       32.8470   42.8760   36.6210 C.3   399  UDH399      0.0016
     30  C5'       32.3200   41.5400   36.0840 C.3   399  UDH399      0.0205
     31  C6'       32.1170   41.8050   34.5920 C.3   399  UDH399      0.1093
     32  N6'       31.3190   40.7290   34.1760 N.3   399  UDH399     -0.1314
@<TRIPOS>BOND
     1    32    31    1
     2    31    30    1
     3    30    29    1
     4    29    28    1
     5    28    27    1
     6    27    26    1
     7    25    22    2
     8    19    18    2
     9    24    26    1
    10    24    22    1
    11    15    12    1
    12    20    18    1
    13    22    21    1
    14    22    23    1
    15     8     4    2
    16     3     2    2
    17     3     4    2
    18     7     2    2
    19    18    21    1
    20    18    17    1
    21    12    10    1
    22    12    13    1
    23    10    11    1
    24    10     9    1
    25     2     1   am
    26     4     5    1
    27     1     6    1
    28     1     9    1
    29     5     6    2
    30    17    16    1
    31     9    14    1
    32    13    16    1
    33    13    14    1
