@<TRIPOS>MOLECULE
2ah9_CTO_A_1.pdb
 43 45 0 0 0
SMALL
GASTEIGER

@<TRIPOS>ATOM
      1  C11       25.7150   43.3120   46.9860 C.3   405  CTO405      0.2586
      2  C21       27.1230   43.7120   47.6560 C.3   405  CTO405      0.1842
      3  N21       27.1860   43.3850   49.1460 N.am  405  CTO405     -0.1992
      4  C71       27.8380   42.2900   49.6550 C.2   405  CTO405      0.2420
      5  O71       28.4270   41.4790   48.9280 O.2   405  CTO405     -0.2733
      6  C81       27.8050   42.1010   51.1770 C.3   405  CTO405      0.0964
      7  C31       27.2790   45.2240   47.4570 C.3   405  CTO405      0.2094
      8  O31       28.5390   45.5810   48.0170 O.3   405  CTO405     -0.2183
      9  C41       27.1970   45.5650   45.9260 C.3   405  CTO405      0.2136
     10  O41       27.3240   46.9790   45.7310 O.3   405  CTO405     -0.2176
     11  C51       25.7770   45.1180   45.3680 C.3   405  CTO405      0.1834
     12  O51       25.6860   43.6780   45.5850 O.3   405  CTO405     -0.3262
     13  C61       25.6880   45.4150   43.8790 C.3   405  CTO405      0.2142
     14  O61       26.6350   44.6500   43.1300 O.3   405  CTO405     -0.2176
     15  C12       22.7840   38.8420   46.8400 C.3   405  CTO405      0.2586
     16  C22       22.8490   39.8500   45.6380 C.3   405  CTO405      0.1841
     17  N22       22.6700   39.1280   44.3370 N.am  405  CTO405     -0.1992
     18  C72       21.5400   39.1640   43.5460 C.2   405  CTO405      0.2420
     19  O72       20.4960   39.8160   43.8160 O.2   405  CTO405     -0.2733
     20  C82       21.6230   38.3470   42.2820 C.3   405  CTO405      0.0964
     21  C32       24.2650   40.5590   45.7170 C.3   405  CTO405      0.2062
     22  O32       24.3480   41.5020   44.6200 O.3   405  CTO405     -0.2184
     23  C42       24.4000   41.2940   47.1040 C.3   405  CTO405      0.1795
     24  O42       25.6790   41.9340   47.2270 O.3   405  CTO405     -0.3264
     25  C52       24.2770   40.2160   48.2640 C.3   405  CTO405      0.1803
     26  O52       22.9740   39.5480   48.1330 O.3   405  CTO405     -0.3263
     27  C62       24.3680   40.8730   49.6150 C.3   405  CTO405      0.2141
     28  O62       23.3060   41.8260   49.7150 O.3   405  CTO405     -0.2176
     29  C13       19.4820   34.8460   48.4160 C.3   405  CTO405      0.2917
     30  O13       19.2630   33.6580   49.1550 O.3   405  CTO405     -0.1879
     31  C23       19.9060   36.0000   49.4000 C.3   405  CTO405      0.1870
     32  N23       18.8210   36.2180   50.4030 N.am  405  CTO405     -0.1991
     33  C73       18.8930   36.0340   51.7500 C.2   405  CTO405      0.2420
     34  O73       19.8990   35.6470   52.3630 O.2   405  CTO405     -0.2733
     35  C83       17.6230   36.3400   52.5030 C.3   405  CTO405      0.0964
     36  C33       20.1500   37.2980   48.5680 C.3   405  CTO405      0.2063
     37  O33       20.5370   38.3470   49.4640 O.3   405  CTO405     -0.2184
     38  C43       21.2760   37.0320   47.5320 C.3   405  CTO405      0.1795
     39  O43       21.5180   38.2150   46.7450 O.3   405  CTO405     -0.3264
     40  C53       20.8380   35.8510   46.5490 C.3   405  CTO405      0.1803
     41  O53       20.5560   34.6140   47.3750 O.3   405  CTO405     -0.3243
     42  C63       21.9340   35.5200   45.4880 C.3   405  CTO405      0.2141
     43  O63       23.2470   35.4420   46.0530 O.3   405  CTO405     -0.2176
@<TRIPOS>BOND
     1    20    18    1
     2    14    13    1
     3    18    19    2
     4    18    17   am
     5    13    11    1
     6    17    16    1
     7    22    21    1
     8    11    12    1
     9    11     9    1
    10    42    43    1
    11    42    40    1
    12    12     1    1
    13    16    21    1
    14    16    15    1
    15    21    23    1
    16    10     9    1
    17     9     7    1
    18    40    41    1
    19    40    38    1
    20    39    15    1
    21    39    38    1
    22    15    26    1
    23     1    24    1
    24     1     2    1
    25    23    24    1
    26    23    25    1
    27    41    29    1
    28     7     2    1
    29     7     8    1
    30    38    36    1
    31     2     3    1
    32    26    25    1
    33    25    27    1
    34    29    30    1
    35    29    31    1
    36    36    31    1
    37    36    37    1
    38     5     4    2
    39     3     4   am
    40    31    32    1
    41    27    28    1
    42     4     6    1
    43    32    33   am
    44    33    34    2
    45    33    35    1
