@<TRIPOS>MOLECULE
2ahc_VNL_A_1.pdb
 12 12 0 0 0
SMALL
GASTEIGER

@<TRIPOS>ATOM
      1  C1        59.2800    5.7580    3.7470 C.ar  166  VNL166      0.0830
      2  CO1       60.6740    5.7490    3.8660 C.ar  166  VNL166      0.0101
      3  CO2       58.6580    4.8060    2.9540 C.ar  166  VNL166      0.0468
      4  CM1       61.4370    4.8320    3.1580 C.ar  166  VNL166      0.0454
      5  CM2       59.3920    3.8570    2.2260 C.ar  166  VNL166      0.1776
      6  OM        58.7760    2.7980    1.7040 O.3   166  VNL166     -0.4682
      7  CZ        60.8240    3.8660    2.3370 C.ar  166  VNL166      0.2293
      8  CC        58.5110    6.6910    4.4690 C.2   166  VNL166      0.3879
      9  CV        57.4750    2.7710    1.4600 C.3   166  VNL166      0.2526
     10  O1        59.0990    7.5090    5.1580 O.co2 166  VNL166     -0.2406
     11  O2        57.2830    6.7160    4.3590 O.co2 166  VNL166     -0.2406
     12  O3        61.5920    2.9200    1.7390 O.3   166  VNL166     -0.2833
@<TRIPOS>BOND
     1     9     6    1
     2     6     5    1
     3    12     7    1
     4     5     7   ar
     5     5     3   ar
     6     7     4   ar
     7     3     1   ar
     8     4     2   ar
     9     1     2   ar
    10     1     8    1
    11    11     8   ar
    12     8    10   ar
