@<TRIPOS>MOLECULE
2ahg_UCD_A_1.pdb
 26 27 0 0 0
SMALL
GASTEIGER

@<TRIPOS>ATOM
      1  CAA       18.9920  -82.5610  184.5910 C.3   401  UCD401      0.0964
      2  CAP       18.5580  -81.4320  185.5280 C.2   401  UCD401      0.2420
      3  OAB       18.7420  -81.5140  186.7430 O.2   401  UCD401     -0.2733
      4  N2        17.9960  -80.3890  184.9250 N.am  401  UCD401     -0.1993
      5  C2        17.5110  -79.2130  185.6640 C.3   401  UCD401      0.1840
      6  C1        18.0850  -77.9340  185.0490 C.3   401  UCD401      0.2916
      7  O1        19.5100  -77.9570  185.1640 O.3   401  UCD401     -0.1879
      8  O5        17.5670  -76.7930  185.7530 O.3   401  UCD401     -0.3242
      9  C5        16.1410  -76.6820  185.6190 C.3   401  UCD401      0.1834
     10  C6        15.6860  -75.3940  186.3090 C.3   401  UCD401      0.2142
     11  O6        16.3980  -74.2840  185.7560 O.3   401  UCD401     -0.2176
     12  C4        15.4720  -77.8960  186.2710 C.3   401  UCD401      0.2105
     13  O4        15.7640  -77.9100  187.6710 O.3   401  UCD401     -0.2178
     14  C3        15.9820  -79.1880  185.6270 C.3   401  UCD401      0.1765
     15  O3        15.5100  -80.3450  186.3350 O.3   401  UCD401     -0.3164
     16  CAX       14.3060  -80.8800  185.7640 C.3   401  UCD401      0.3223
     17  OAM       13.2080  -80.0160  186.1070 O.2   401  UCD401     -0.4439
     18  CAR       11.9630  -80.4850  185.8070 C.2   401  UCD401      0.2189
     19  CAQ       10.8100  -79.4820  185.7180 C.2   401  UCD401      0.4209
     20  OAE       11.1030  -78.2680  185.6680 O.co2 401  UCD401     -0.2371
     21  OAC        9.6430  -79.9280  185.7040 O.co2 401  UCD401     -0.2371
     22  CAJ       11.6980  -81.8380  185.6200 C.2   401  UCD401      0.0528
     23  CAS       12.8090  -82.8860  185.7310 C.3   401  UCD401      0.2138
     24  OAF       12.3570  -83.9840  186.5270 O.3   401  UCD401     -0.2152
     25  CAU       14.0460  -82.2580  186.3760 C.3   401  UCD401      0.2558
     26  OAH       15.1730  -83.1190  186.2010 O.3   401  UCD401     -0.2132
@<TRIPOS>BOND
     1     1     2    1
     2     4     2   am
     3     4     5    1
     4     6     7    1
     5     6     5    1
     6     6     8    1
     7     2     3    2
     8     9     8    1
     9     9    12    1
    10     9    10    1
    11    22    23    1
    12    22    18    2
    13    14     5    1
    14    14    12    1
    15    14    15    1
    16    20    19   ar
    17    21    19   ar
    18    19    18    1
    19    23    25    1
    20    23    24    1
    21    11    10    1
    22    16    17    1
    23    16    15    1
    24    16    25    1
    25    18    17    1
    26    26    25    1
    27    12    13    1
