@<TRIPOS>MOLECULE
2aho_GNP_A_1.pdb
 32 34 0 0 0
SMALL
GASTEIGER

@<TRIPOS>ATOM
      1  PG        25.8740    0.7000   16.8200 P.3   912  GNP912      0.4884
      2  O1G       27.2230    0.2500   17.3020 O.3   912  GNP912     -0.1240
      3  O2G       24.8030    0.3200   17.8280 O.3   912  GNP912     -0.1240
      4  O3G       25.5470    0.1850   15.4660 O.2   912  GNP912     -0.2331
      5  N3B       26.0410    2.4100   16.7780 N.3   912  GNP912     -0.0163
      6  PB        24.7890    3.4300   16.3120 P.3   912  GNP912      0.4669
      7  O1B       24.3390    3.1540   14.9590 O.2   912  GNP912     -0.2351
      8  O2B       23.7600    3.3890   17.3920 O.3   912  GNP912     -0.1253
      9  O3A       25.5760    4.8570   16.3120 O.3   912  GNP912     -0.2360
     10  PA        25.7290    5.9040   17.4480 P.3   912  GNP912      0.2220
     11  O1A       24.4190    6.5160   17.7440 O.2   912  GNP912     -0.5170
     12  O2A       26.5130    5.2150   18.5460 O.3   912  GNP912     -0.4370
     13  O5'       26.5770    6.9920   16.8400 O.3   912  GNP912     -0.3111
     14  C5'       27.9360    6.8020   16.4160 C.3   912  GNP912      0.1813
     15  C4'       28.5310    8.1500   16.1180 C.3   912  GNP912      0.1799
     16  O4'       27.8400    8.9380   15.1890 O.3   912  GNP912     -0.3326
     17  C3'       28.6530    9.0400   17.3970 C.3   912  GNP912      0.2158
     18  O3'       29.9340    9.7140   17.4440 O.3   912  GNP912     -0.2175
     19  C2'       27.4610   10.0050   17.2220 C.3   912  GNP912      0.2310
     20  O2'       27.5310   11.1850   17.9530 O.3   912  GNP912     -0.2158
     21  C1'       27.5100   10.1990   15.7340 C.3   912  GNP912      0.2293
     22  N9        26.2040   10.6230   15.2110 N.pl3 912  GNP912     -0.2354
     23  C8        24.9580    9.9090   15.4600 C.3   912  GNP912      0.2246
     24  N7        23.9520   10.5180   14.8760 N.2   912  GNP912     -0.2322
     25  C5        24.5690   11.6830   14.2140 C.2   912  GNP912      0.2182
     26  C6        23.9330   12.7200   13.4210 C.1   912  GNP912      0.2372
     27  O6        22.7950   12.8390   13.1450 O.2   912  GNP912     -0.2069
     28  N1        24.8740   13.6500   12.9650 N.2   912  GNP912     -0.2485
     29  C2        26.2120   13.4850   13.3100 C.1   912  GNP912      0.2531
     30  N2        26.9990   14.5470   12.7350 N.pl3 912  GNP912     -0.0226
     31  N3        26.8440   12.6040   14.0050 N.2   912  GNP912     -0.3074
     32  C4        25.9150   11.6980   14.4490 C.2   912  GNP912      0.2300
@<TRIPOS>BOND
     1    30    29    1
     2    28    29    2
     3    28    26    2
     4    27    26    2
     5    29    31    2
     6    26    25    1
     7    31    32    2
     8    25    32    1
     9    25    24    2
    10    32    22    1
    11    24    23    1
    12     7     6    2
    13    16    21    1
    14    16    15    1
    15    22    23    1
    16    22    21    1
    17     4     1    2
    18    21    19    1
    19    15    14    1
    20    15    17    1
    21     9     6    1
    22     9    10    1
    23     6     5    1
    24     6     8    1
    25    14    13    1
    26     5     1    1
    27     1     2    1
    28     1     3    1
    29    13    10    1
    30    19    17    1
    31    19    20    1
    32    17    18    1
    33    10    11    2
    34    10    12    1
