@<TRIPOS>MOLECULE
2ahr_NAP_A_1.pdb
 48 52 0 0 0
SMALL
GASTEIGER

@<TRIPOS>ATOM
      1  PA        47.5730   96.0200   56.0930 P.3   1500  NAP1500     0.2189
      2  O1A       48.5070   97.1800   56.2100 O.3   1500  NAP1500    -0.4371
      3  O2A       46.8320   95.9630   54.7960 O.2   1500  NAP1500    -0.5170
      4  O5B       46.4500   95.9960   57.2460 O.3   1500  NAP1500    -0.3112
      5  C5B       46.6640   96.5180   58.5330 C.3   1500  NAP1500     0.1813
      6  C4B       45.3390   97.1320   58.9570 C.3   1500  NAP1500     0.1820
      7  O4B       45.3210   97.3670   60.3530 O.3   1500  NAP1500    -0.3136
      8  C3B       45.1190   98.4670   58.2530 C.3   1500  NAP1500     0.2157
      9  O3B       43.8810   98.4000   57.5840 O.3   1500  NAP1500    -0.2175
     10  C2B       45.0960   99.4880   59.3810 C.3   1500  NAP1500     0.2314
     11  O2B       44.1510  100.5370   59.2180 O.3   1500  NAP1500    -0.2630
     12  C1B       44.7160   98.6190   60.5700 C.3   1500  NAP1500     0.3158
     13  N9A       45.0670   99.2450   61.8550 N.pl3 1500  NAP1500    -0.1439
     14  C8A       46.1150  100.0970   62.1390 C.3   1500  NAP1500     0.3377
     15  N7A       46.0210  100.4520   63.4510 N.2   1500  NAP1500    -0.2095
     16  C5A       44.9250   99.8460   63.9910 C.2   1500  NAP1500     0.2526
     17  C6A       44.3640   99.8630   65.2690 C.2   1500  NAP1500     0.4393
     18  N6A       44.8120  100.7430   66.1580 N.pl3 1500  NAP1500     0.2180
     19  N1A       43.2230   99.1290   65.5350 N.2   1500  NAP1500     0.0021
     20  C2A       42.6370   98.3800   64.5280 C.3   1500  NAP1500     0.5254
     21  N3A       43.1850   98.3690   63.2540 N.2   1500  NAP1500    -0.0055
     22  C4A       44.3170   99.0850   62.9950 C.2   1500  NAP1500     0.3518
     23  O3        48.4220   94.6750   56.4130 O.3   1500  NAP1500    -0.2703
     24  PN        48.1020   93.2020   55.8240 P.3   1500  NAP1500     0.2189
     25  O1N       49.0870   92.9950   54.7290 O.2   1500  NAP1500    -0.5170
     26  O2N       46.6590   92.9960   55.5540 O.3   1500  NAP1500    -0.4371
     27  O5D       48.5230   92.2650   57.0670 O.3   1500  NAP1500    -0.3112
     28  C5D       47.6060   91.8980   58.0680 C.3   1500  NAP1500     0.1813
     29  C4D       48.1440   90.7060   58.8360 C.3   1500  NAP1500     0.1799
     30  O4D       48.0620   89.5430   58.0390 O.3   1500  NAP1500    -0.3327
     31  C3D       49.6050   90.8480   59.2380 C.3   1500  NAP1500     0.2158
     32  O3D       49.6370   90.4990   60.6050 O.3   1500  NAP1500    -0.2175
     33  C2D       50.3970   89.8780   58.3560 C.3   1500  NAP1500     0.2309
     34  O2D       51.5300   89.3310   59.0290 O.3   1500  NAP1500    -0.2158
     35  C1D       49.3120   88.8600   57.9740 C.3   1500  NAP1500     0.2263
     36  N1N       49.3900   88.3050   56.6020 N.pl3 1500  NAP1500    -0.2787
     37  C2N       49.4260   89.1530   55.5150 C.3   1500  NAP1500     0.1244
     38  C3N       49.4810   88.6230   54.2240 C.2   1500  NAP1500     0.0544
     39  C7N       49.4150   89.5210   53.0320 C.2   1500  NAP1500     0.2818
     40  O7N       49.5390   88.9090   51.7880 O.2   1500  NAP1500    -0.2670
     41  N7N       49.2320   90.8420   53.1450 N.am  1500  NAP1500    -0.0839
     42  C4N       49.4840   87.2300   54.0460 C.2   1500  NAP1500     0.0033
     43  C5N       49.4470   86.3780   55.1560 C.2   1500  NAP1500     0.0157
     44  C6N       49.3890   86.9310   56.4380 C.2   1500  NAP1500     0.0633
     45  P2B       44.4200  101.7600   58.1960 P.3   1500  NAP1500     0.5328
     46  O1X       43.4590  102.8910   58.5070 O.3   1500  NAP1500    -0.1145
     47  O2X       45.8370  102.2630   58.3950 O.3   1500  NAP1500    -0.1145
     48  O3X       44.1830  101.2680   56.7830 O.2   1500  NAP1500    -0.2224
@<TRIPOS>BOND
     1    40    39    2
     2    39    41   am
     3    39    38    1
     4    42    38    2
     5    42    43    1
     6    38    37    1
     7    25    24    2
     8     3     1    2
     9    43    44    2
    10    37    36    1
    11    26    24    1
    12    24    23    1
    13    24    27    1
    14     1     2    1
    15     1    23    1
    16     1     4    1
    17    44    36    1
    18    36    35    1
    19    48    45    2
    20    27    28    1
    21     4     5    1
    22     9     8    1
    23    35    30    1
    24    35    33    1
    25    30    29    1
    26    28    29    1
    27    45    47    1
    28    45    46    1
    29    45    11    1
    30     8     6    1
    31     8    10    1
    32    33    34    1
    33    33    31    1
    34     5     6    1
    35    29    31    1
    36     6     7    1
    37    11    10    1
    38    31    32    1
    39    10    12    1
    40     7    12    1
    41    12    13    1
    42    13    14    1
    43    13    22    1
    44    14    15    1
    45    22    21    2
    46    22    16    1
    47    21    20    1
    48    15    16    2
    49    16    17    1
    50    20    19    1
    51    17    19    2
    52    17    18    1
