@<TRIPOS>MOLECULE
2ahv_COA_A_1.pdb
 48 50 0 0 0
SMALL
GASTEIGER

@<TRIPOS>ATOM
      1  N1A       53.4210   -1.5620   76.1930 N.2   2602  COA2602     0.0021
      2  C2A       53.0300   -1.6710   77.4790 C.3   2602  COA2602     0.5254
      3  N3A       52.8320   -0.6050   78.2730 N.2   2602  COA2602    -0.0055
      4  C4A       53.0250    0.6560   77.8020 C.2   2602  COA2602     0.3518
      5  C5A       53.4530    0.8490   76.4080 C.2   2602  COA2602     0.2526
      6  C6A       53.6500   -0.3710   75.5970 C.2   2602  COA2602     0.4393
      7  N6A       54.0440   -0.2890   74.3050 N.pl3 2602  COA2602     0.2180
      8  N7A       53.5690    2.1700   76.2120 N.2   2602  COA2602    -0.2095
      9  C8A       53.2400    2.7830   77.3760 C.3   2602  COA2602     0.3377
     10  N9A       52.9140    1.8790   78.3230 N.pl3 2602  COA2602    -0.1439
     11  C1B       52.5130    2.1560   79.7230 C.3   2602  COA2602     0.3185
     12  C2B       53.6590    2.8250   80.4740 C.3   2602  COA2602     0.2543
     13  O2B       54.6030    1.8720   80.9720 O.3   2602  COA2602    -0.2131
     14  C3B       52.9480    3.6120   81.5590 C.3   2602  COA2602     0.1928
     15  O3B       52.7010    2.7850   82.6940 O.3   2602  COA2602    -0.2673
     16  P3B       53.6900    2.6680   83.9750 P.3   2602  COA2602     0.5327
     17  O7A       53.8080    4.0900   84.5020 O.3   2602  COA2602    -0.1145
     18  O8A       52.9160    1.7370   84.8850 O.3   2602  COA2602    -0.1145
     19  O9A       54.9890    2.0630   83.4690 O.2   2602  COA2602    -0.2224
     20  C4B       51.6010    3.9480   80.9210 C.3   2602  COA2602     0.1795
     21  O4B       51.4070    3.0590   79.8080 O.3   2602  COA2602    -0.3136
     22  C5B       51.5130    5.4130   80.4760 C.3   2602  COA2602     0.1812
     23  O5B       52.4750    5.7110   79.4530 O.3   2602  COA2602    -0.3112
     24  P1A       53.5830    6.8800   79.6170 P.3   2602  COA2602     0.2189
     25  O1A       53.4860    7.5360   80.9730 O.3   2602  COA2602    -0.4371
     26  O2A       54.9260    6.3490   79.1840 O.2   2602  COA2602    -0.5170
     27  O3A       53.1250    7.9270   78.4740 O.3   2602  COA2602    -0.2703
     28  P2A       51.8100    8.8550   78.4810 P.3   2602  COA2602     0.2188
     29  O4A       51.5580    9.3810   79.8710 O.3   2602  COA2602    -0.4371
     30  O5A       51.9950    9.8510   77.3570 O.2   2602  COA2602    -0.5170
     31  O6A       50.5850    7.8740   78.0670 O.3   2602  COA2602    -0.3138
     32  CBP       49.0810    6.8490   76.3580 C.3   2602  COA2602     0.0645
     33  CCP       50.5020    7.2470   76.7810 C.3   2602  COA2602     0.1519
     34  CDP       49.1980    6.2000   74.9860 C.3   2602  COA2602     0.0056
     35  CEP       48.5440    5.8390   77.3630 C.3   2602  COA2602     0.0056
     36  CAP       48.1150    8.0620   76.3030 C.3   2602  COA2602     0.2312
     37  OAP       48.7290    9.1740   75.6420 O.3   2602  COA2602    -0.2131
     38  C9P       46.7550    7.8290   75.6530 C.2   2602  COA2602     0.2719
     39  O9P       45.8330    7.3700   76.3220 O.2   2602  COA2602    -0.2706
     40  N8P       46.6070    8.1830   74.3580 N.am  2602  COA2602    -0.2028
     41  C7P       45.3750    8.0380   73.5770 C.3   2602  COA2602     0.1248
     42  C6P       44.5050    9.2980   73.4820 C.3   2602  COA2602     0.1102
     43  C5P       45.0640   10.3580   72.5480 C.2   2602  COA2602     0.2432
     44  O5P       46.1780   10.2400   72.0610 O.2   2602  COA2602    -0.2733
     45  N4P       44.2620   11.4090   72.3150 N.am  2602  COA2602    -0.2044
     46  C3P       44.5850   12.5540   71.4690 C.3   2602  COA2602     0.1276
     47  C2P       44.6360   13.8350   72.3050 C.3   2602  COA2602     0.0920
     48  S1P       44.1660   15.2870   71.4080 S.3   2602  COA2602    -0.0802
@<TRIPOS>BOND
     1    48    47    1
     2    46    47    1
     3    46    45    1
     4    44    43    2
     5    45    43   am
     6    43    42    1
     7    42    41    1
     8    41    40    1
     9     7     6    1
    10    40    38   am
    11    34    32    1
    12     6     1    2
    13     6     5    1
    14    37    36    1
    15    38    36    1
    16    38    39    2
    17     1     2    1
    18     8     5    2
    19     8     9    1
    20    36    32    1
    21    32    33    1
    22    32    35    1
    23     5     4    1
    24    33    31    1
    25    30    28    2
    26     9    10    1
    27     2     3    1
    28     4     3    2
    29     4    10    1
    30    31    28    1
    31    10    11    1
    32    27    28    1
    33    27    24    1
    34    28    29    1
    35    26    24    2
    36    23    24    1
    37    23    22    1
    38    24    25    1
    39    11    21    1
    40    11    12    1
    41    21    20    1
    42    12    13    1
    43    12    14    1
    44    22    20    1
    45    20    14    1
    46    14    15    1
    47    15    16    1
    48    19    16    2
    49    16    17    1
    50    16    18    1
