@<TRIPOS>MOLECULE
2ai1_P1G_A_1.pdb
 26 29 0 0 0
SMALL
GASTEIGER

@<TRIPOS>ATOM
      1  O3        68.0090  -40.1090   97.0550 O.3   293  P1G293     -0.3570
      2  P         66.4920  -40.5670   97.2650 P.3   293  P1G293      0.1223
      3  O4        65.6530  -39.2560   97.6810 O.3   293  P1G293     -0.3570
      4  O2        65.9180  -41.1870   96.0460 O.2   293  P1G293     -0.4599
      5  C1P       66.4630  -41.7130   98.6590 C.3   293  P1G293      0.1201
      6  C1        65.2280  -42.6390   98.6210 C.3   293  P1G293      0.2428
      7  O3'       65.0820  -43.3680   99.8520 O.3   293  P1G293     -0.3274
      8  O2'       65.2640  -43.6730   97.6150 O.3   293  P1G293     -0.3257
      9  C2'       65.7800  -44.8850   98.1980 C.3   293  P1G293      0.1938
     10  C3'       65.6270  -44.6960   99.7010 C.3   293  P1G293      0.1787
     11  C4'       67.0330  -44.8100  100.2940 C.3   293  P1G293      0.1796
     12  C5'       67.3250  -46.1280  101.0300 C.3   293  P1G293      0.2141
     13  O5'       68.6700  -46.1480  101.5280 O.3   293  P1G293     -0.2176
     14  O4'       67.9070  -44.5640   99.1780 O.3   293  P1G293     -0.3327
     15  C1'       67.2850  -45.0740   97.9810 C.3   293  P1G293      0.2260
     16  N9        67.8310  -46.4260   97.7090 N.pl3 293  P1G293     -0.2355
     17  C8        69.1130  -46.7450   97.9100 C.3   293  P1G293      0.2246
     18  N7        69.3330  -48.0310   97.6520 N.2   293  P1G293     -0.2322
     19  C5        68.1680  -48.5470   97.2660 C.2   293  P1G293      0.2182
     20  C4        67.2070  -47.5250   97.2770 C.2   293  P1G293      0.2300
     21  N3        65.9420  -47.7080   96.8200 N.2   293  P1G293     -0.3074
     22  C2        65.4920  -48.8770   96.3220 C.1   293  P1G293      0.2531
     23  N2        64.2920  -49.0430   95.7680 N.pl3 293  P1G293     -0.0226
     24  N1        66.4190  -49.9350   96.3090 N.2   293  P1G293     -0.2485
     25  C6        67.7400  -49.7840   96.7760 C.1   293  P1G293      0.2372
     26  O6        68.4790  -50.7680   96.7370 O.2   293  P1G293     -0.2069
@<TRIPOS>BOND
     1    23    22    1
     2     4     2    2
     3    24    22    2
     4    24    25    2
     5    22    21    2
     6    26    25    2
     7    25    19    1
     8    21    20    2
     9     1     2    1
    10     2     3    1
    11     2     5    1
    12    19    20    1
    13    19    18    2
    14    20    16    1
    15     8     9    1
    16     8     6    1
    17    18    17    1
    18    16    17    1
    19    16    15    1
    20    15     9    1
    21    15    14    1
    22     9    10    1
    23     6     5    1
    24     6     7    1
    25    14    11    1
    26    10     7    1
    27    10    11    1
    28    11    12    1
    29    12    13    1
