@<TRIPOS>MOLECULE
2ai2_P1D_A_1.pdb
 25 28 0 0 0
SMALL
GASTEIGER

@<TRIPOS>ATOM
      1  O3        68.1300  -40.5060   96.4490 O.3   293  P1D293     -0.3570
      2  P         66.5830  -40.8980   96.6340 P.3   293  P1D293      0.1223
      3  O4        65.7690  -39.6180   97.1370 O.3   293  P1D293     -0.3570
      4  O2        65.9660  -41.3820   95.3720 O.2   293  P1D293     -0.4599
      5  C1P       66.4570  -42.1560   97.9270 C.3   293  P1D293      0.1201
      6  C1        65.2180  -43.0610   97.7730 C.3   293  P1D293      0.2428
      7  O3'       65.0410  -43.7860   99.0080 O.3   293  P1D293     -0.3274
      8  O2'       65.3180  -44.1060   96.7830 O.3   293  P1D293     -0.3272
      9  C2'       65.7980  -45.3170   97.4040 C.3   293  P1D293      0.1785
     10  C3'       65.5480  -45.1290   98.8940 C.3   293  P1D293      0.1772
     11  C4'       66.8990  -45.2690   99.5870 C.3   293  P1D293      0.1780
     12  C5'       67.0070  -46.5980  100.3510 C.3   293  P1D293      0.2140
     13  O5'       68.3390  -46.8080  100.8270 O.3   293  P1D293     -0.2176
     14  O4'       67.8540  -45.0490   98.5220 O.3   293  P1D293     -0.3464
     15  C1'       67.3100  -45.5460   97.2780 C.3   293  P1D293      0.1701
     16  C9        67.8480  -46.9390   96.9000 C.2   293  P1D293      0.0457
     17  C8        69.1110  -47.3160   97.1030 C.2   293  P1D293      0.0994
     18  N7        69.2550  -48.5970   96.7670 N.2   293  P1D293     -0.2310
     19  C5        68.0840  -49.0710   96.3470 C.2   293  P1D293      0.1805
     20  C4        67.1450  -48.0370   96.4040 C.2   293  P1D293      0.1068
     21  N3        65.8420  -48.2120   96.0660 N.2   293  P1D293     -0.2415
     22  C2        65.3560  -49.3830   95.6600 C.3   293  P1D293      0.2626
     23  N1        66.2570  -50.4670   95.5740 N.2   293  P1D293     -0.1739
     24  C6        67.6180  -50.3220   95.9200 C.1   293  P1D293      0.1716
     25  O6        68.3500  -51.3140   95.9010 O.2   293  P1D293     -0.2206
@<TRIPOS>BOND
     1     4     2    2
     2    23    22    1
     3    23    24    2
     4    22    21    1
     5    25    24    2
     6    24    19    1
     7    21    20    2
     8    19    20    1
     9    19    18    2
    10    20    16    1
    11     1     2    1
    12     2     3    1
    13     2     5    1
    14    18    17    1
    15     8     9    1
    16     8     6    1
    17    16    17    2
    18    16    15    1
    19    15     9    1
    20    15    14    1
    21     9    10    1
    22     6     5    1
    23     6     7    1
    24    14    11    1
    25    10     7    1
    26    10    11    1
    27    11    12    1
    28    12    13    1
