@<TRIPOS>MOLECULE
2ai3_P2G_A_1.pdb
 25 28 0 0 0
SMALL
GASTEIGER

@<TRIPOS>ATOM
      1  O6        68.6130  -51.4110   96.2550 O.2   293  P2G293     -0.2069
      2  C6        68.0080  -50.3530   96.4240 C.1   293  P2G293      0.2372
      3  N1        66.6150  -50.3310   96.2080 N.2   293  P2G293     -0.2485
      4  C2        65.8650  -49.1570   96.4180 C.1   293  P2G293      0.2531
      5  N2        64.5760  -49.1170   96.1050 N.pl3 293  P2G293     -0.0226
      6  N3        66.5390  -48.0690   96.8490 N.2   293  P2G293     -0.3074
      7  C4        67.8740  -48.0610   97.0570 C.2   293  P2G293      0.2300
      8  C5        68.6670  -49.1950   96.8450 C.2   293  P2G293      0.2182
      9  N7        69.9320  -48.8540   97.0690 N.2   293  P2G293     -0.2322
     10  C8        69.9360  -47.5670   97.4090 C.3   293  P2G293      0.2246
     11  N9        68.6970  -47.0770   97.4280 N.pl3 293  P2G293     -0.2355
     12  C1'       68.3870  -45.8100   98.1390 C.3   293  P2G293      0.2260
     13  O4'       68.0770  -46.2050   99.4870 O.3   293  P2G293     -0.3327
     14  C2'       67.2320  -44.9170   97.6850 C.3   293  P2G293      0.1942
     15  O2'       67.6080  -43.6100   97.2090 O.3   293  P2G293     -0.3207
     16  C1        67.1630  -42.6180   98.1600 C.3   293  P2G293      0.2885
     17  P         66.6930  -41.0430   97.3390 P.3   293  P2G293      0.1746
     18  O3        65.9040  -40.0670   98.3390 O.3   293  P2G293     -0.3538
     19  O4        65.6800  -41.4870   96.1730 O.2   293  P2G293     -0.4550
     20  O2        67.9010  -40.3590   96.8160 O.3   293  P2G293     -0.3538
     21  O3'       66.0780  -43.2890   98.8290 O.3   293  P2G293     -0.3224
     22  C3'       66.4030  -44.6900   98.9360 C.3   293  P2G293      0.1791
     23  C4'       67.3550  -45.1030  100.0550 C.3   293  P2G293      0.1796
     24  C5'       66.6500  -45.5160  101.3500 C.3   293  P2G293      0.2141
     25  O5'       67.6290  -46.0420  102.2500 O.3   293  P2G293     -0.2176
@<TRIPOS>BOND
     1     5     4    1
     2    19    17    2
     3     3     4    2
     4     3     2    2
     5     1     2    2
     6     4     6    2
     7     2     8    1
     8    20    17    1
     9     8     7    1
    10     8     9    2
    11     6     7    2
    12     7    11    1
    13     9    10    1
    14    15    14    1
    15    15    16    1
    16    17    16    1
    17    17    18    1
    18    10    11    1
    19    11    12    1
    20    14    12    1
    21    14    22    1
    22    12    13    1
    23    16    21    1
    24    21    22    1
    25    22    23    1
    26    13    23    1
    27    23    24    1
    28    24    25    1
