@<TRIPOS>MOLECULE
2ai7_SB7_A_1.pdb
 13 13 0 0 0
SMALL
GASTEIGER

@<TRIPOS>ATOM
      1  C1        24.9800   -6.1100    9.2400 C.ar  300  SB7300     -0.0003
      2  C2        25.4060   -5.5820    7.9920 C.ar  300  SB7300     -0.0043
      3  C3        26.1080   -4.3380    7.8960 C.ar  300  SB7300     -0.0221
      4  C4        26.3980   -3.5910    9.0700 C.ar  300  SB7300     -0.0043
      5  C5        26.0080   -4.0490   10.3380 C.ar  300  SB7300     -0.0003
      6  C6        25.2430   -5.4080   10.4300 C.ar  300  SB7300     -0.0000
      7  C7        26.5490   -3.7940    6.5610 C.3   300  SB7300      0.0279
      8  C8        27.4790   -4.7550    5.8070 C.3   300  SB7300      0.0247
      9  C11       27.9380   -4.1720    4.4620 C.3   300  SB7300      0.1073
     10  N14       29.3020   -3.6480    4.5990 N.4   300  SB7300     -0.1004
     11  O22       30.4010   -4.4770    4.3780 O.3   300  SB7300     -0.1155
     12  C24       29.4600   -2.3460    4.9520 C.3   300  SB7300      0.2856
     13  O25       30.7080   -1.7010    5.1310 O.3   300  SB7300     -0.1982
@<TRIPOS>BOND
     1    11    10    1
     2     9    10    1
     3     9     8    1
     4    10    12    1
     5    12    13    1
     6     8     7    1
     7     7     3    1
     8     3     2   ar
     9     3     4   ar
    10     2     1   ar
    11     4     5   ar
    12     1     6   ar
    13     5     6   ar
