@<TRIPOS>MOLECULE
2ai8_SB7_A_1.pdb
 13 13 0 0 0
SMALL
GASTEIGER

@<TRIPOS>ATOM
      1  C1        46.6420    8.8100   14.2560 C.ar  501  SB7501     -0.0003
      2  C2        45.6640    7.7800   14.2430 C.ar  501  SB7501     -0.0043
      3  C3        45.8730    6.5200   14.9440 C.ar  501  SB7501     -0.0221
      4  C4        47.0760    6.3050   15.6550 C.ar  501  SB7501     -0.0043
      5  C5        48.0780    7.2760   15.7010 C.ar  501  SB7501     -0.0003
      6  C6        47.8470    8.6200   14.9490 C.ar  501  SB7501     -0.0000
      7  C7        44.8440    5.3920   14.9220 C.3   501  SB7501      0.0279
      8  C8        43.5210    5.7570   14.2220 C.3   501  SB7501      0.0247
      9  C11       42.4210    4.6310   14.1450 C.3   501  SB7501      0.1073
     10  N14       42.0370    3.8590   15.4280 N.4   501  SB7501     -0.1004
     11  O22       40.6910    3.7380   15.7990 O.3   501  SB7501     -0.1155
     12  C24       42.9970    3.2550   16.1960 C.3   501  SB7501      0.2856
     13  O25       42.7530    2.5040   17.3910 O.3   501  SB7501     -0.1982
@<TRIPOS>BOND
     1     9     8    1
     2     9    10    1
     3     8     7    1
     4     2     1   ar
     5     2     3   ar
     6     1     6   ar
     7     7     3    1
     8     3     4   ar
     9     6     5   ar
    10    10    11    1
    11    10    12    1
    12     4     5   ar
    13    12    13    1
