@<TRIPOS>MOLECULE
2aia_SB8_A_1.pdb
 21 22 0 0 0
SMALL
GASTEIGER

@<TRIPOS>ATOM
      1  C1        -4.9100   25.1530   -3.2030 C.ar  501  SB8501      0.0034
      2  C2        -5.7870   25.3700   -2.1060 C.ar  501  SB8501      0.0420
      3  C3        -5.2930   26.0020   -0.9390 C.ar  501  SB8501      0.0401
      4  C4        -3.9390   26.4140   -0.8390 C.ar  501  SB8501      0.1387
      5  C5        -3.0790   26.1880   -1.9480 C.ar  501  SB8501      0.0369
      6  C6        -3.5630   25.5600   -3.1220 C.ar  501  SB8501      0.0032
      7  C7        -7.1970   24.9340   -2.2050 C.2   501  SB8501      0.1956
      8  O8        -8.0960   25.7520   -2.0280 O.2   501  SB8501     -0.2866
      9  C9        -7.5330   23.5080   -2.4850 C.ar  501  SB8501      0.0390
     10  C10       -6.9660   22.4120   -1.7490 C.ar  501  SB8501      0.0032
     11  C11       -7.3250   21.0810   -2.0570 C.ar  501  SB8501      0.0001
     12  C12       -8.3260   20.8290   -3.1870 C.ar  501  SB8501      0.0000
     13  C13       -8.8550   21.9330   -3.8830 C.ar  501  SB8501      0.0001
     14  C14       -8.4610   23.2450   -3.5350 C.ar  501  SB8501      0.0032
     15  O24       -3.5220   27.0430    0.3650 O.3   501  SB8501     -0.4736
     16  C25       -4.4750   27.2260    1.4190 C.3   501  SB8501      0.2273
     17  C26       -3.8050   27.9110    2.6120 C.3   501  SB8501      0.1452
     18  N29       -3.4270   29.2850    2.2810 N.am  501  SB8501     -0.2757
     19  O32       -4.4090   30.2820    2.1580 O.3   501  SB8501     -0.4194
     20  C34       -2.1070   29.5520    2.1030 C.2   501  SB8501      0.1131
     21  O35       -1.6700   30.5360    1.5310 O.2   501  SB8501     -0.5358
@<TRIPOS>BOND
     1    13    14   ar
     2    13    12   ar
     3    14     9   ar
     4     1     6   ar
     5     1     2   ar
     6    12    11   ar
     7     6     5   ar
     8     9     7    1
     9     9    10   ar
    10     7     2    1
    11     7     8    2
    12     2     3   ar
    13    11    10   ar
    14     5     4   ar
    15     3     4   ar
    16     4    15    1
    17    15    16    1
    18    16    17    1
    19    21    20    2
    20    20    18   am
    21    19    18    1
    22    18    17    1
