@<TRIPOS>MOLECULE
2aid_THK_A_1.pdb
 29 32 0 0 0
SMALL
GASTEIGER

@<TRIPOS>ATOM
      1  N1         6.2650   -0.6360   13.8260 N.3   201  THK201     -0.2725
      2  C2         7.1030   -1.3490   14.8130 C.3   201  THK201      0.0750
      3  C3         6.4190   -2.5840   15.4120 C.3   201  THK201      0.0520
      4  C4         5.0320   -2.3250   16.0050 C.3   201  THK201      0.1480
      5  O19        5.2550   -1.5140   17.1560 O.3   201  THK201     -0.2211
      6  C5         4.1840   -1.4590   15.0170 C.3   201  THK201      0.0520
      7  C6         4.8980   -0.2880   14.3000 C.3   201  THK201      0.0750
      8  C7         7.0410    0.5380   13.3860 C.3   201  THK201      0.0722
      9  C8         6.5540    1.0520   12.0440 C.3   201  THK201      0.0194
     10  C9         7.2340    2.3390   11.6690 C.3   201  THK201      0.0257
     11  C10        6.7560    2.9840   10.3610 C.3   201  THK201      0.0967
     12  C12        5.3440    3.1090   10.4000 C.ar  201  THK201     -0.0042
     13  C13        4.7360    3.8190   11.4380 C.ar  201  THK201     -0.0004
     14  C14        3.3400    3.8040   11.5670 C.ar  201  THK201      0.0294
     15  C15        2.5180    3.0950   10.6720 C.ar  201  THK201      0.1401
     16  F18        1.1560    3.0330   10.8980 F     201  THK201     -0.2042
     17  C16        3.1290    2.4530    9.5800 C.ar  201  THK201      0.0294
     18  C17        4.5300    2.4840    9.4320 C.ar  201  THK201     -0.0004
     19  C20        4.4310   -3.5600   16.4150 C.ar  201  THK201      0.0052
     20  C21        4.0830   -4.5230   15.4550 C.ar  201  THK201     -0.0011
     21  C22        3.4880   -5.7420   15.8210 C.ar  201  THK201      0.0111
     22  C23        3.2230   -6.0230   17.1580 C.ar  201  THK201      0.0577
     23 CL6         2.4820   -7.5360   17.6200 Cl    201  THK201     -0.0822
     24  C24        3.5500   -5.0720   18.1190 C.ar  201  THK201      0.0111
     25  C25        4.1400   -3.8520   17.7600 C.ar  201  THK201     -0.0011
     26  S51        7.2420    1.7640    9.1280 S.3   201  THK201     -0.1267
     27  C52        7.7690    2.9980    7.8650 C.3   201  THK201      0.0703
     28  C55        8.0000    4.4240    8.3800 C.3   201  THK201      0.0703
     29  S58        7.6620    4.5810   10.1470 S.3   201  THK201     -0.1267
@<TRIPOS>BOND
     1    27    28    1
     2    27    26    1
     3    28    29    1
     4    26    11    1
     5    18    17   ar
     6    18    12   ar
     7    17    15   ar
     8    29    11    1
     9    11    12    1
    10    11    10    1
    11    12    13   ar
    12    15    16    1
    13    15    14   ar
    14    13    14   ar
    15    10     9    1
    16     9     8    1
    17     8     1    1
    18     1     7    1
    19     1     2    1
    20     7     6    1
    21     2     3    1
    22     6     4    1
    23     3     4    1
    24    20    21   ar
    25    20    19   ar
    26    21    22   ar
    27     4    19    1
    28     4     5    1
    29    19    25   ar
    30    22    23    1
    31    22    24   ar
    32    25    24   ar
