@<TRIPOS>MOLECULE
2aie_SB9_P_1.pdb
 14 14 0 0 0
SMALL
GASTEIGER

@<TRIPOS>ATOM
      1  C1        23.8560   -5.2880    8.9670 C.2   501  SB9501      0.1083
      2  N2        24.3230   -4.9200    7.7430 N.2   501  SB9501     -0.4145
      3  C3        25.4540   -4.1500    7.6150 C.2   501  SB9501      0.0907
      4  C4        26.2000   -3.6970    8.7270 C.3   501  SB9501      0.0804
      5  C5        25.7780   -4.0390   10.0210 C.2   501  SB9501     -0.0167
      6  C6        24.4910   -4.9140   10.1590 C.2   501  SB9501      0.0234
      7  C7        22.6160   -6.1290    8.9880 C.3   501  SB9501      0.0664
      8  C11       25.8630   -3.8130    6.2060 C.3   501  SB9501      0.0565
      9  C12       26.8510   -4.8250    5.5960 C.3   501  SB9501      0.0291
     10  C15       27.5010   -4.3330    4.2900 C.3   501  SB9501      0.0985
     11  N18       28.8400   -3.8060    4.5590 N.am  501  SB9501     -0.2796
     12  O21       29.9280   -4.6730    4.5470 O.3   501  SB9501     -0.4195
     13  C23       29.0050   -2.4850    4.8130 C.2   501  SB9501      0.1130
     14  O24       30.0810   -1.9490    5.0490 O.2   501  SB9501     -0.5358
@<TRIPOS>BOND
     1    10    11    1
     2    10     9    1
     3    12    11    1
     4    11    13   am
     5    13    14    2
     6     9     8    1
     7     8     3    1
     8     3     2    2
     9     3     4    1
    10     2     1    2
    11     4     5    1
    12     1     7    1
    13     1     6    1
    14     5     6    2
