@<TRIPOS>MOLECULE
2aij_III_P_1.pdb
 38 38 0 0 0
SMALL
GASTEIGER

@<TRIPOS>ATOM
      1  N         30.1720   47.7400   26.1980 N.3    69  CYS69      -0.1221
      2  CA        30.1300   46.2620   25.9070 C.3    69  CYS69       0.1808
      3  C         29.6520   45.3870   27.0840 C.2    69  CYS69       0.2602
      4  O         29.1030   44.3110   26.8700 O.2    69  CYS69      -0.2717
      5  CB        31.4840   45.8050   25.3810 C.3    69  CYS69       0.0970
      6  SG        32.0170   46.8710   24.0030 S.3    69  CYS69      -0.0800
      7  N         29.8710   45.8530   28.3100 N.am   70  THR70      -0.1939
      8  CA        29.2970   45.2420   29.5140 C.3    70  THR70       0.2013
      9  C         28.9830   46.4090   30.4710 C.2    70  THR70       0.2484
     10  O         29.8690   47.2230   30.7510 O.2    70  THR70      -0.2729
     11  CB        30.3190   44.2940   30.2320 C.3    70  THR70       0.1807
     12  OG1       30.7040   43.1880   29.3840 O.3    70  THR70      -0.2208
     13  CG2       29.7720   43.7790   31.5630 C.3    70  THR70       0.0379
     14  N         27.7340   46.5010   30.9700 N.am   71  PRO71      -0.2715
     15  CA        27.4290   47.5650   31.9380 C.3    71  PRO71       0.1536
     16  C         28.0430   47.2610   33.2950 C.2    71  PRO71       0.2599
     17  O         28.0880   46.0930   33.6930 O.2    71  PRO71      -0.2715
     18  CB        25.8960   47.5190   32.0620 C.3    71  PRO71       0.0310
     19  CG        25.4130   46.5850   31.0350 C.3    71  PRO71       0.0237
     20  CD        26.5560   45.6540   30.7150 C.3    71  PRO71       0.0939
     21  N         28.5140   48.2850   34.0010 N.am   72  SER72      -0.1936
     22  CA        28.9600   48.0720   35.3810 C.3    72  SER72       0.2055
     23  C         27.7580   47.9640   36.3050 C.2    72  SER72       0.2644
     24  O         26.6920   48.5280   36.0380 O.2    72  SER72      -0.2714
     25  CB        29.8990   49.1720   35.8800 C.3    72  SER72       0.2130
     26  OG        31.1750   49.0480   35.2930 O.3    72  SER72      -0.2179
     27  N         27.9550   47.2340   37.4000 N.am   73  ARG73      -0.1941
     28  CA        26.9030   46.9540   38.3510 C.3    73  ARG73       0.1979
     29  C         26.4200   48.2490   38.9710 C.2    73  ARG73       0.3842
     30  O         27.2350   49.1330   39.2530 O.co2  73  ARG73      -0.2437
     31  CB        27.4200   46.0260   39.4520 C.3    73  ARG73       0.0370
     32  CG        26.4420   45.8450   40.6130 C.3    73  ARG73       0.0493
     33  CD        26.8950   44.7400   41.5290 C.3    73  ARG73       0.2205
     34  NE        26.8510   43.4210   40.8900 N.pl3  73  ARG73      -0.0865
     35  CZ        25.7460   42.7000   40.6890 C.cat  73  ARG73       0.5346
     36  NH1       24.5430   43.1640   41.0390 N.pl3  73  ARG73       0.1354
     37  NH2       25.8310   41.5150   40.1040 N.pl3  73  ARG73       0.1354
     38  OXT       25.2120   48.4000   39.1830 O.co2  73  ARG73      -0.2437
@<TRIPOS>BOND
     1     6     5    1
     2     5     2    1
     3     2     1    1
     4     2     3    1
     5     4     3    2
     6     3     7   am
     7     7     8    1
     8    12    11    1
     9     8    11    1
    10     8     9    1
    11    11    13    1
    12     9    10    2
    13     9    14   am
    14    20    14    1
    15    20    19    1
    16    14    15    1
    17    19    18    1
    18    15    18    1
    19    15    16    1
    20    16    17    2
    21    16    21   am
    22    21    22    1
    23    26    25    1
    24    22    25    1
    25    22    23    1
    26    24    23    2
    27    23    27   am
    28    27    28    1
    29    28    29    1
    30    28    31    1
    31    29    38   ar
    32    29    30   ar
    33    31    32    1
    34    37    35    1
    35    32    33    1
    36    35    34    2
    37    35    36    1
    38    34    33    1
