@<TRIPOS>MOLECULE
2aik_III_P_1.pdb
 45 45 0 0 0
SMALL
GASTEIGER

@<TRIPOS>ATOM
      1  N         29.1860   50.7000   24.4980 N.3    68  LEU68      -0.1231
      2  CA        29.5290   50.0870   25.8100 C.3    68  LEU68       0.1693
      3  C         29.1620   48.5980   25.8150 C.2    68  LEU68       0.2592
      4  O         28.0100   48.2320   25.5030 O.2    68  LEU68      -0.2718
      5  CB        28.8190   50.8190   26.9490 C.3    68  LEU68       0.0284
      6  CG        29.4720   50.7030   28.3420 C.3    68  LEU68       0.0019
      7  CD1       31.0020   50.7210   28.2720 C.3    68  LEU68       0.0001
      8  CD2       29.0060   51.8520   29.2260 C.3    68  LEU68       0.0001
      9  N         30.1340   47.7660   26.2020 N.am   69  CYS69      -0.1956
     10  CA        30.1080   46.3140   25.9440 C.3    69  CYS69       0.1843
     11  C         29.6340   45.4510   27.1190 C.2    69  CYS69       0.2626
     12  O         29.0980   44.3700   26.9040 O.2    69  CYS69      -0.2714
     13  CB        31.4890   45.8340   25.4800 C.3    69  CYS69       0.0997
     14  SG        32.1500   46.8200   24.1050 S.3    69  CYS69      -0.0797
     15  N         29.8640   45.9150   28.3430 N.am   70  THR70      -0.1937
     16  CA        29.3270   45.2580   29.5560 C.3    70  THR70       0.2013
     17  C         29.0150   46.3780   30.5610 C.2    70  THR70       0.2484
     18  O         29.9100   47.1670   30.8830 O.2    70  THR70      -0.2729
     19  CB        30.3660   44.2950   30.2340 C.3    70  THR70       0.1807
     20  OG1       30.7230   43.1990   29.3620 O.3    70  THR70      -0.2208
     21  CG2       29.8310   43.7580   31.5660 C.3    70  THR70       0.0379
     22  N         27.7660   46.4410   31.0690 N.am   71  PRO71      -0.2715
     23  CA        27.4730   47.4740   32.0680 C.3    71  PRO71       0.1536
     24  C         28.1220   47.1280   33.3950 C.2    71  PRO71       0.2599
     25  O         28.2420   45.9380   33.7340 O.2    71  PRO71      -0.2715
     26  CB        25.9410   47.4230   32.2260 C.3    71  PRO71       0.0310
     27  CG        25.4360   46.4700   31.2230 C.3    71  PRO71       0.0237
     28  CD        26.5950   45.5830   30.8210 C.3    71  PRO71       0.0939
     29  N         28.5450   48.1450   34.1420 N.am   72  SER72      -0.1936
     30  CA        29.0210   47.9020   35.5040 C.3    72  SER72       0.2055
     31  C         27.8220   47.7950   36.4370 C.2    72  SER72       0.2642
     32  O         26.7440   48.3600   36.1750 O.2    72  SER72      -0.2714
     33  CB        29.9710   49.0000   36.0020 C.3    72  SER72       0.2130
     34  OG        31.2280   48.9600   35.3520 O.3    72  SER72      -0.2179
     35  N         28.0210   47.0610   37.5270 N.am   73  ARG73      -0.1977
     36  CA        27.0090   46.8940   38.5510 C.3    73  ARG73       0.1597
     37  C         26.6620   48.2540   39.1370 C.2    73  ARG73       0.2287
     38  O         27.5680   49.0470   39.4280 O.2    73  ARG73      -0.2864
     39  CB        27.5270   45.9720   39.6580 C.3    73  ARG73       0.0334
     40  CG        26.5690   45.8180   40.8300 C.3    73  ARG73       0.0492
     41  CD        26.9920   44.7000   41.7400 C.3    73  ARG73       0.2205
     42  NE        26.9450   43.3980   41.0690 N.pl3  73  ARG73      -0.0865
     43  CZ        25.8400   42.6720   40.8590 C.cat  73  ARG73       0.5346
     44  NH1       24.6420   43.1010   41.2530 N.pl3  73  ARG73       0.1354
     45  NH2       25.9370   41.5060   40.2480 N.pl3  73  ARG73       0.1354
@<TRIPOS>BOND
     1    14    13    1
     2     1     2    1
     3    13    10    1
     4     4     3    2
     5     2     3    1
     6     2     5    1
     7     3     9   am
     8    10     9    1
     9    10    11    1
    10    12    11    2
    11     5     6    1
    12    11    15   am
    13     7     6    1
    14     6     8    1
    15    15    16    1
    16    20    19    1
    17    16    19    1
    18    16    17    1
    19    19    21    1
    20    17    18    2
    21    17    22   am
    22    28    22    1
    23    28    27    1
    24    22    23    1
    25    27    26    1
    26    23    26    1
    27    23    24    1
    28    24    25    2
    29    24    29   am
    30    29    30    1
    31    34    33    1
    32    30    33    1
    33    30    31    1
    34    32    31    2
    35    31    35   am
    36    35    36    1
    37    36    37    1
    38    36    39    1
    39    37    38    2
    40    39    40    1
    41    45    43    1
    42    40    41    1
    43    43    42    2
    44    43    44    1
    45    42    41    1
