@<TRIPOS>MOLECULE
2aim_ZRA_A_1.pdb
 34 34 0 0 0
SMALL
GASTEIGER

@<TRIPOS>ATOM
      1  C1         1.3670   12.4510    4.9610 C.2   280  ZRA280      0.4023
      2  O1         0.5820   13.1740    5.5760 O.2   280  ZRA280     -0.2264
      3  O2         1.4890   12.3900    3.5610 O.3   280  ZRA280     -0.4297
      4  C2         0.7850   13.1150    2.5770 C.3   280  ZRA280      0.2367
      5  C3         0.6780   13.1200    1.0620 C.ar  280  ZRA280      0.0213
      6  C4         1.8410   13.3870    0.3300 C.ar  280  ZRA280     -0.0007
      7  C5         1.8420   13.2290   -1.0550 C.ar  280  ZRA280     -0.0002
      8  C6         0.6780   12.8140   -1.6990 C.ar  280  ZRA280     -0.0000
      9  C7        -0.4860   12.5600   -0.9660 C.ar  280  ZRA280     -0.0002
     10  C8        -0.4910   12.7120    0.4230 C.ar  280  ZRA280     -0.0007
     11  CA1        2.3500   11.2990    6.9020 C.3   280  ZRA280      0.1515
     12  CB1        2.1830    9.8390    7.3600 C.3   280  ZRA280      0.0326
     13  CG         0.8430    9.2480    7.0300 C.3   280  ZRA280      0.0450
     14  CD        -0.1960   10.0200    7.8070 C.3   280  ZRA280      0.1739
     15  NE        -1.5530    9.6510    7.4700 N.pl3 280  ZRA280     -0.2651
     16  CZ        -2.4220   10.5530    7.0080 C.cat 280  ZRA280      0.3417
     17  NH1       -2.0890   11.8390    6.8050 N.pl3 280  ZRA280     -0.2918
     18  NH2       -3.6450   10.1360    6.7500 N.pl3 280  ZRA280     -0.2918
     19  C          3.8290   11.6680    6.9270 C.2   280  ZRA280      0.2439
     20  N1         2.0680   11.4600    5.5040 N.am  280  ZRA280     -0.2640
     21  O          4.6840   10.9130    6.4310 O.2   280  ZRA280     -0.2730
     22  N2         4.1090   12.6450    7.7930 N.am  280  ZRA280     -0.2836
     23  CA2        5.4490   12.8900    8.2940 C.2   280  ZRA280      0.0628
     24  CT         6.2560   11.7780    8.9540 C.2   280  ZRA280      0.1827
     25  OT         7.4980   11.7700    8.8270 O.2   280  ZRA280     -0.2904
     26  CB2        6.0040   14.2900    8.2230 C.3   280  ZRA280      0.0503
     27  CM         5.7870   10.5690    9.7590 C.3   280  ZRA280      0.0783
     28  HE        -1.8220    8.7080    7.5250 H     280  ZRA280      0.2586
     29 HH11       -1.1470   12.1860    6.7720 H     280  ZRA280      0.2545
     30 HH12       -2.7870   12.4260    6.3650 H     280  ZRA280      0.2545
     31 HH21       -3.9990    9.2170    6.8730 H     280  ZRA280      0.2545
     32 HH22       -4.3280   10.8540    6.5300 H     280  ZRA280      0.2545
     33  HN1        2.4620   10.7910    4.9060 H     280  ZRA280      0.1532
     34  HN2        3.4080   13.3170    7.9230 H     280  ZRA280      0.1547
@<TRIPOS>BOND
     1     8     7   ar
     2     8     9   ar
     3     7     6   ar
     4     9    10   ar
     5     6     5   ar
     6    10     5   ar
     7     5     4    1
     8     4     3    1
     9     3     1    1
    10    33    20    1
    11     1    20   am
    12     1     2    2
    13    20    11    1
    14    30    17    1
    15    21    19    2
    16    32    18    1
    17    18    31    1
    18    18    16    2
    19    29    17    1
    20    17    16    1
    21    11    19    1
    22    11    12    1
    23    19    22   am
    24    16    15    1
    25    13    12    1
    26    13    14    1
    27    15    28    1
    28    15    14    1
    29    22    34    1
    30    22    23    2
    31    26    23    1
    32    23    24    1
    33    25    24    2
    34    24    27    1
