@<TRIPOS>MOLECULE
2aio_MX1_A_1.pdb
 30 31 0 0 0
SMALL
GASTEIGER

@<TRIPOS>ATOM
      1  O4        33.2970   -5.7540   29.9950 O.co2   1  MX11       -0.2389
      2  C7        33.2720   -5.7070   31.2440 C.2     1  MX11        0.4045
      3  O3        34.2010   -6.1700   31.9530 O.co2   1  MX11       -0.2389
      4  C4        32.1170   -5.1220   31.9190 C.2     1  MX11        0.1566
      5  N1        32.1640   -5.0440   33.1760 N.2     1  MX11       -0.2326
      6  C5        30.9050   -4.6630   31.2260 C.2     1  MX11        0.0312
      7  C8        30.6820   -4.9770   29.9670 C.2     1  MX11       -0.0003
      8  C6        29.8900   -3.8420   31.9780 C.3     1  MX11        0.1726
      9  O2        29.8390   -4.3530   33.3120 O.3     1  MX11       -0.3261
     10  C3        31.1260   -4.3970   33.9820 C.3     1  MX11        0.2766
     11  C2        31.6330   -3.0440   34.5160 C.3     1  MX11        0.3136
     12  C1        32.6490   -2.3720   33.5980 C.2     1  MX11        0.4125
     13  O32       33.8740   -2.5730   33.7380 O.co2   1  MX11       -0.2409
     14  O31       32.2260   -1.6040   32.7140 O.co2   1  MX11       -0.2409
     15  O5        32.2890   -3.3890   35.7470 O.3     1  MX11       -0.3255
     16  C9        32.8410   -2.3740   36.6310 C.3     1  MX11        0.1767
     17  N2        30.5440   -2.0870   34.7370 N.am    1  MX11       -0.1670
     18  C10       29.4870   -2.2820   35.5410 C.2     1  MX11        0.2585
     19  O6        29.3210   -3.3120   36.1980 O.2     1  MX11       -0.2723
     20  C11       28.4770   -1.1540   35.6480 C.3     1  MX11        0.2032
     21  C12       28.2570   -0.3230   34.4040 C.2     1  MX11        0.3771
     22  O8        29.2020   -0.0390   33.6330 O.co2   1  MX11       -0.2448
     23  O7        27.0990    0.0940   34.2140 O.co2   1  MX11       -0.2448
     24  C13       28.8200   -0.2080   36.7570 C.ar    1  MX11       -0.0028
     25  C14       29.9780    0.5840   36.7080 C.ar    1  MX11        0.0000
     26  C18       27.9630   -0.0840   37.8600 C.ar    1  MX11        0.0000
     27  C17       28.2630    0.7970   38.9040 C.ar    1  MX11        0.0417
     28  C16       29.4250    1.5680   38.8440 C.ar    1  MX11        0.1957
     29  O9        29.7380    2.4380   39.8470 O.3     1  MX11       -0.2866
     30  C15       30.2860    1.4600   37.7490 C.ar    1  MX11        0.0417
@<TRIPOS>BOND
     1     7     6    2
     2     1     2   ar
     3     6     4    1
     4     6     8    1
     5     2     4    1
     6     2     3   ar
     7     4     5    2
     8     8     9    1
     9    14    12   ar
    10     5    10    1
    11     9    10    1
    12    12    13   ar
    13    12    11    1
    14    22    21   ar
    15    10    11    1
    16    23    21   ar
    17    21    20    1
    18    11    17    1
    19    11    15    1
    20    17    18   am
    21    18    20    1
    22    18    19    2
    23    20    24    1
    24    15    16    1
    25    25    24   ar
    26    25    30   ar
    27    24    26   ar
    28    30    28   ar
    29    26    27   ar
    30    28    27   ar
    31    28    29    1
