@<TRIPOS>MOLECULE
2air_AL0_A_1.pdb
 10 9 0 0 0
SMALL
GASTEIGER

@<TRIPOS>ATOM
      1  N         81.1800   33.6600   -3.1220 N.3   805  AL0805     -0.1192
      2  CA        79.8970   34.4120   -3.3350 C.3   805  AL0805      0.2143
      3  C         80.2730   35.8520   -3.8170 C.2   805  AL0805      0.3834
      4  O         81.4400   36.2080   -3.6800 O.co2 805  AL0805     -0.2440
      5  CB        79.0800   34.5220   -2.0310 C.3   805  AL0805      0.1567
      6  NG        78.6700   33.1790   -1.5050 N.4   805  AL0805     -0.0282
      7  OD1       77.4210   32.8750   -1.4200 O.3   805  AL0805     -0.0987
      8  ND2       79.6590   32.4400   -1.1830 N.4   805  AL0805      0.0597
      9  OE        79.2540   31.2190   -0.7140 O.3   805  AL0805     -0.0800
     10  OXT       79.3360   36.5480   -4.3200 O.co2 805  AL0805     -0.2440
@<TRIPOS>BOND
     1    10     3   ar
     2     3     4   ar
     3     3     2    1
     4     2     1    1
     5     2     5    1
     6     5     6    1
     7     6     7    1
     8     6     8    1
     9     8     9    1
