@<TRIPOS>MOLECULE
2aiu_HEM_A_1.pdb
 43 50 0 0 0
SMALL
GASTEIGER

@<TRIPOS>ATOM
      1 FE          2.6020   19.0670    5.4280 Fe    200  HEM200      0.0000
      2  CHA        3.3270   17.8730    2.3090 C.2   200  HEM200      0.0000
      3  CHB        0.9570   16.1540    6.1560 C.2   200  HEM200      0.0000
      4  CHC        2.1820   20.0850    8.6750 C.2   200  HEM200      0.0000
      5  CHD        4.0020   22.0590    4.6480 C.2   200  HEM200      0.0000
      6  NA         2.2340   17.3230    4.4360 N.2   200  HEM200      0.0000
      7  C1A        2.6280   17.0220    3.1510 C.2   200  HEM200      0.0000
      8  C2A        2.1960   15.6700    2.8310 C.2   200  HEM200      0.0000
      9  C3A        1.5060   15.2010    3.9140 C.2   200  HEM200      0.0000
     10  C4A        1.5440   16.2500    4.9060 C.2   200  HEM200      0.0000
     11  CMA        0.8350   13.8630    4.1040 C.3   200  HEM200      0.0000
     12  CAA        2.4720   14.9530    1.5420 C.3   200  HEM200      0.0000
     13  CBA        1.2780   14.8890    0.6380 C.3   200  HEM200      0.0000
     14  CGA        1.5130   14.1420   -0.6570 C.2   200  HEM200      0.0000
     15  O1A        0.6260   14.2300   -1.5260 O.co2 200  HEM200      0.0000
     16  O2A        2.5690   13.4520   -0.7930 O.co2 200  HEM200      0.0000
     17  NB         1.7530   18.2500    7.1060 N.ar  200  HEM200      0.0000
     18  C1B        1.0470   17.0740    7.1720 C.ar  200  HEM200      0.0000
     19  C2B        0.4250   16.9320    8.4710 C.ar  200  HEM200      0.0000
     20  C3B        0.9010   17.9830    9.2020 C.ar  200  HEM200      0.0000
     21  C4B        1.6700   18.8270    8.3260 C.ar  200  HEM200      0.0000
     22  CMB       -0.5270   15.8210    8.8900 C.3   200  HEM200      0.0000
     23  CAB        0.6840   18.2920   10.6260 C.2   200  HEM200      0.0000
     24  CBB        1.2670   17.6670   11.6660 C.2   200  HEM200      0.0000
     25  NC         3.0390   20.7800    6.4870 N.2   200  HEM200      0.0000
     26  C1C        2.7590   21.0010    7.8030 C.2   200  HEM200      0.0000
     27  C2C        3.0700   22.3840    8.1240 C.2   200  HEM200      0.0000
     28  C3C        3.5550   22.9580    6.9700 C.2   200  HEM200      0.0000
     29  C4C        3.5490   21.9160    5.9550 C.2   200  HEM200      0.0000
     30  CMC        2.8450   22.9990    9.4860 C.3   200  HEM200      0.0000
     31  CAC        4.0040   24.3680    6.7270 C.2   200  HEM200      0.0000
     32  CBC        4.9220   25.0030    7.4950 C.2   200  HEM200      0.0000
     33  ND         3.5140   19.8180    3.7690 N.ar  200  HEM200      0.0000
     34  C1D        4.0190   21.0940    3.6480 C.ar  200  HEM200      0.0000
     35  C2D        4.5700   21.2790    2.3350 C.ar  200  HEM200      0.0000
     36  C3D        4.4020   20.0820    1.6710 C.ar  200  HEM200      0.0000
     37  C4D        3.7200   19.1800    2.5800 C.ar  200  HEM200      0.0000
     38  CMD        5.2160   22.5410    1.8300 C.3   200  HEM200      0.0000
     39  CAD        4.8580   19.7820    0.2780 C.3   200  HEM200      0.0000
     40  CBD        6.3330   19.3310    0.4520 C.3   200  HEM200      0.0000
     41  CGD        7.0560   18.9720   -0.8300 C.2   200  HEM200      0.0000
     42  O1D        6.4900   19.0660   -1.9450 O.co2 200  HEM200      0.0000
     43  O2D        8.2460   18.5980   -0.6620 O.co2 200  HEM200      0.0000
@<TRIPOS>BOND
     1    42    41   ar
     2    15    14   ar
     3    41    43   ar
     4    41    40    1
     5    16    14   ar
     6    14    13    1
     7    39    40    1
     8    39    36    1
     9    13    12    1
    10    12     8    1
    11    36    35   ar
    12    36    37   ar
    13    38    35    1
    14     2    37    2
    15     2     7    1
    16    35    34   ar
    17    37    33   ar
    18     8     7    1
    19     8     9    2
    20     7     6    2
    21    34    33   ar
    22    34     5    2
    23    33     1    1
    24     9    11    1
    25     9    10    1
    26     6    10    1
    27     6     1    1
    28     5    29    1
    29    10     3    2
    30     1    25    1
    31     1    17    1
    32    29    25    2
    33    29    28    1
    34     3    18    1
    35    25    26    1
    36    31    28    1
    37    31    32    2
    38    28    27    2
    39    17    18   ar
    40    17    21   ar
    41    18    19   ar
    42    26    27    1
    43    26     4    2
    44    27    30    1
    45    21     4    1
    46    21    20   ar
    47    19    22    1
    48    19    20   ar
    49    20    23    1
    50    23    24    2
