@<TRIPOS>MOLECULE
2aix_U1K_A_1.pdb
 16 16 0 0 0
SMALL
GASTEIGER

@<TRIPOS>ATOM
      1  O1        -0.6430   42.0240   14.4250 O.co2 261  U1K261     -0.2440
      2  C2        -1.4150   41.3490   15.1640 C.2   261  U1K261      0.3822
      3  O3        -2.2340   41.8350   15.9710 O.co2 261  U1K261     -0.2440
      4  C4        -1.3780   39.8350   15.0820 C.3   261  U1K261      0.1994
      5  C5        -1.0400   39.1540   16.4300 C.3   261  U1K261      0.0690
      6  C6        -1.1110   37.6250   16.3940 C.2   261  U1K261      0.0668
      7  C7        -0.1890   36.6050   16.3660 C.2   261  U1K261      0.0323
      8  S8        -1.0610   35.0670   16.3420 S.3   261  U1K261      0.0209
      9  N9        -2.5920   35.7710   16.3740 N.2   261  U1K261     -0.1387
     10  C10       -2.4810   37.1050   16.4000 C.1   261  U1K261      0.1571
     11  O11       -3.5010   37.8620   16.4300 O.2   261  U1K261     -0.2217
     12  C12        1.3540   36.5160   16.3650 C.3   261  U1K261      0.0264
     13  C13        1.8600   35.1440   15.9250 C.3   261  U1K261      0.0049
     14  C14        1.8410   36.7830   17.7840 C.3   261  U1K261      0.0049
     15  C15        1.9720   37.5480   15.4280 C.3   261  U1K261      0.0049
     16  N16       -0.3470   39.4280   14.0710 N.3   261  U1K261     -0.1204
@<TRIPOS>BOND
     1    16     4    1
     2     1     2   ar
     3     4     2    1
     4     4     5    1
     5     2     3   ar
     6    15    12    1
     7    13    12    1
     8     8     7    1
     9     8     9    1
    10    12     7    1
    11    12    14    1
    12     7     6    2
    13     9    10    2
    14     6    10    1
    15     6     5    1
    16    10    11    2
