@<TRIPOS>MOLECULE
2aiy_IPH_A_1.pdb
 13 13 0 0 0
SMALL
GASTEIGER

@<TRIPOS>ATOM
      1  C1        -9.1930    9.4540    7.5170 C.ar   22  IPH22       0.1169
      2  C2        -9.8920    8.7990    6.5270 C.ar   22  IPH22      -0.0202
      3  C3        -9.3170    7.7290    5.8780 C.ar   22  IPH22      -0.0583
      4  C4        -8.0460    7.3170    6.2190 C.ar   22  IPH22      -0.0615
      5  C5        -7.3490    7.9760    7.2120 C.ar   22  IPH22      -0.0583
      6  C6        -7.9230    9.0470    7.8650 C.ar   22  IPH22      -0.0202
      7  O1        -9.7640   10.5220    8.1580 O.3    22  IPH22      -0.5068
      8  H2       -10.8890    9.1160    6.2590 H      22  IPH22       0.0654
      9  H3        -9.8630    7.2120    5.1030 H      22  IPH22       0.0619
     10  H4        -7.5960    6.4800    5.7070 H      22  IPH22       0.0618
     11  H5        -6.3520    7.6520    7.4760 H      22  IPH22       0.0619
     12  H6        -7.3760    9.5590    8.6490 H      22  IPH22       0.0654
     13  HO1      -10.7280   10.4240    8.1550 H      22  IPH22       0.2921
@<TRIPOS>BOND
     1     9     3    1
     2    10     4    1
     3     3     4   ar
     4     3     2   ar
     5     4     5   ar
     6     8     2    1
     7     2     1   ar
     8     5    11    1
     9     5     6   ar
    10     1     6   ar
    11     1     7    1
    12     6    12    1
    13    13     7    1
