@<TRIPOS>MOLECULE
2aj4_GLA_A_1.pdb
 12 12 0 0 0
SMALL
GASTEIGER

@<TRIPOS>ATOM
      1  C1        10.8230    2.4520   21.3590 C.3   529  GLA529      0.3024
      2  C2        11.8360    1.6550   22.2110 C.3   529  GLA529      0.2434
      3  C3        11.3730    0.2170   22.4410 C.3   529  GLA529      0.2199
      4  C4         9.9180    0.1510   22.9250 C.3   529  GLA529      0.2144
      5  C5         9.0540    1.0340   22.0300 C.3   529  GLA529      0.1836
      6  C6         7.6340    1.1670   22.5310 C.3   529  GLA529      0.2142
      7  O1        10.6470    1.9530   20.0260 O.3   529  GLA529     -0.1869
      8  O2        13.1680    1.6390   21.6470 O.3   529  GLA529     -0.2148
      9  O3        12.2640   -0.4900   23.3090 O.3   529  GLA529     -0.2174
     10  O4         9.6650    0.4000   24.3240 O.3   529  GLA529     -0.2176
     11  O5         9.5400    2.3630   21.9740 O.3   529  GLA529     -0.3236
     12  O6         7.0790   -0.1380   22.5720 O.3   529  GLA529     -0.2176
@<TRIPOS>BOND
     1     7     1    1
     2     1    11    1
     3     1     2    1
     4     8     2    1
     5    11     5    1
     6     5     6    1
     7     5     4    1
     8     2     3    1
     9     3     4    1
    10     3     9    1
    11     6    12    1
    12     4    10    1
