@<TRIPOS>MOLECULE
2aj4_ANP_A_1.pdb
 31 33 0 0 0
SMALL
GASTEIGER

@<TRIPOS>ATOM
      1  PG        12.8140    5.6240   15.6610 P.3   532  ANP532      0.4884
      2  O1G       12.1630    4.3300   16.0770 O.3   532  ANP532     -0.1240
      3  O2G       11.7660    6.7090   15.6140 O.3   532  ANP532     -0.1240
      4  O3G       13.5520    5.5420   14.2540 O.2   532  ANP532     -0.2331
      5  PB        14.3390    7.3390   17.5020 P.3   532  ANP532      0.4669
      6  O1B       13.0350    7.8810   18.0450 O.2   532  ANP532     -0.2351
      7  O2B       15.3460    7.1430   18.6100 O.3   532  ANP532     -0.1253
      8  N3B       13.9760    5.9550   16.7380 N.3   532  ANP532     -0.0163
      9  PA        15.7790    8.2760   15.1570 P.3   532  ANP532      0.2220
     10  O1A       15.0210    7.5180   14.0750 O.2   532  ANP532     -0.5170
     11  O2A       16.0490    9.6630   14.6880 O.3   532  ANP532     -0.4370
     12  O3A       14.9450    8.4220   16.5130 O.3   532  ANP532     -0.2360
     13  O5'       17.1540    7.5040   15.4630 O.3   532  ANP532     -0.3111
     14  C5'       17.8650    7.9390   16.6180 C.3   532  ANP532      0.1813
     15  C4'       19.2030    8.5650   16.2450 C.3   532  ANP532      0.1821
     16  O4'       20.1150    7.5820   15.6420 O.3   532  ANP532     -0.3135
     17  C3'       19.1760    9.7240   15.2610 C.3   532  ANP532      0.2184
     18  O3'       18.7310   10.9390   15.8800 O.3   532  ANP532     -0.2174
     19  C2'       20.6340    9.7090   14.7780 C.3   532  ANP532      0.2570
     20  O2'       21.5060   10.4470   15.6690 O.3   532  ANP532     -0.2130
     21  C1'       20.9830    8.2070   14.7540 C.3   532  ANP532      0.3186
     22  N9        20.6420    7.6750   13.4600 N.pl3 532  ANP532     -0.1439
     23  C8        19.4670    7.0930   13.0880 C.3   532  ANP532      0.3377
     24  N7        19.4140    6.8100   11.7830 N.2   532  ANP532     -0.2095
     25  C5        20.6460    7.2320   11.3030 C.2   532  ANP532      0.2526
     26  C6        21.1810    7.1960   10.0000 C.2   532  ANP532      0.4393
     27  N6        20.6060    6.8090    8.9720 N.pl3 532  ANP532      0.2180
     28  N1        22.4510    7.6740    9.9380 N.2   532  ANP532      0.0021
     29  C2        23.1550    8.1730   11.0130 C.3   532  ANP532      0.5254
     30  N3        22.6770    8.2260   12.2280 N.2   532  ANP532     -0.0055
     31  C4        21.4200    7.7420   12.3220 C.2   532  ANP532      0.3518
@<TRIPOS>BOND
     1    27    26    1
     2    28    26    2
     3    28    29    1
     4    26    25    1
     5    29    30    1
     6    25    24    2
     7    25    31    1
     8    24    23    1
     9    30    31    2
    10    31    22    1
    11    23    22    1
    12    22    21    1
    13    10     9    2
    14     4     1    2
    15    11     9    1
    16    21    19    1
    17    21    16    1
    18    19    17    1
    19    19    20    1
    20     9    13    1
    21     9    12    1
    22    17    18    1
    23    17    15    1
    24    13    14    1
    25     3     1    1
    26    16    15    1
    27     1     2    1
    28     1     8    1
    29    15    14    1
    30    12     5    1
    31     8     5    1
    32     5     6    2
    33     5     7    1
