@<TRIPOS>MOLECULE
2aj8_SC3_A_1.pdb
 26 29 0 0 0
SMALL
GASTEIGER

@<TRIPOS>ATOM
      1  N1        -6.2400   22.0100   -0.6990 N.am  1601  SC31601    -0.2103
      2  C2        -5.2730   22.9530   -0.4650 C.2   1601  SC31601     0.3185
      3  N3        -4.9740   23.2790    0.8520 N.am  1601  SC31601    -0.2178
      4  C4        -5.6620   22.6430    1.8550 C.2   1601  SC31601     0.1973
      5  C5        -6.6170   21.7270    1.6780 C.3   1601  SC31601     0.2214
      6  C6        -6.9360   21.3690    0.2880 C.2   1601  SC31601     0.2591
      7  N7        -7.0880   21.3260    2.8570 N.pl3 1601  SC31601    -0.2542
      8  C8        -6.4250   21.9610    3.8260 C.cat 1601  SC31601     0.2436
      9  N9        -5.5730   22.7620    3.2880 N.2   1601  SC31601    -0.3599
     10  N10       -6.6580   21.7630    5.1810 N.pl3 1601  SC31601    -0.2686
     11  C11       -6.0860   22.8510    6.0470 C.3   1601  SC31601     0.1132
     12  C12       -4.6180   22.5440    6.4110 C.3   1601  SC31601     0.1102
     13  N13       -4.4940   21.2630    7.1640 N.3   1601  SC31601    -0.2144
     14  C14       -5.5730   20.2600    6.9490 C.3   1601  SC31601     0.1102
     15  C15       -6.2070   20.3620    5.5720 C.3   1601  SC31601     0.1132
     16  C16       -8.2980   20.5010    3.0460 C.3   1601  SC31601     0.1219
     17  C17       -8.1070   18.9950    3.0790 C.ar  1601  SC31601    -0.0023
     18  C18       -9.1970   18.1820    3.4290 C.ar  1601  SC31601    -0.0026
     19  C19       -9.0400   16.7800    3.4630 C.ar  1601  SC31601    -0.0003
     20  C20       -7.7810   16.1950    3.1470 C.ar  1601  SC31601    -0.0000
     21  C21       -6.6800   17.0130    2.7940 C.ar  1601  SC31601    -0.0003
     22  C22       -6.8350   18.4130    2.7570 C.ar  1601  SC31601    -0.0026
     23  O23       -7.7850   20.5360    0.0800 O.2   1601  SC31601    -0.2721
     24  C24       -6.5550   21.6660   -2.0930 C.3   1601  SC31601     0.1245
     25  O25       -4.6870   23.4910   -1.4050 O.2   1601  SC31601    -0.2515
     26  C26       -3.9430   24.2780    1.1810 C.3   1601  SC31601     0.1239
@<TRIPOS>BOND
     1    24     1    1
     2    25     2    2
     3     1     2   am
     4     1     6   am
     5     2     3   am
     6    23     6    2
     7     6     5    1
     8     3    26    1
     9     3     4    1
    10     5     4    1
    11     5     7    1
    12     4     9    2
    13    22    21   ar
    14    22    17   ar
    15    21    20   ar
    16     7    16    1
    17     7     8    1
    18    16    17    1
    19    17    18   ar
    20    20    19   ar
    21     9     8    2
    22    18    19   ar
    23     8    10    1
    24    10    15    1
    25    10    11    1
    26    15    14    1
    27    11    12    1
    28    12    13    1
    29    14    13    1
