@<TRIPOS>MOLECULE
2ajb_0QG_A_1.pdb
 24 24 0 0 0
SMALL
GASTEIGER

@<TRIPOS>ATOM
      1  N         -6.0990   19.4950    7.2280 N.3   802  0QG802     -0.1231
      2  CA        -6.8320   19.8800    6.0270 C.3   802  0QG802      0.1677
      3  CB        -6.3920   21.3060    5.6060 C.3   802  0QG802      0.0247
      4  CG1       -4.8890   21.4830    5.3160 C.3   802  0QG802      0.0019
      5  CG2       -6.8080   22.2970    6.7100 C.3   802  0QG802      0.0019
      6  CG3       -7.2150   21.5880    4.3290 C.3   802  0QG802      0.0019
      7  C         -6.5460   18.8790    4.9000 C.2   802  0QG802      0.2431
      8  O         -5.4100   18.4980    4.6830 O.2   802  0QG802     -0.2733
      9  N1        -7.5900   18.4360    4.1840 N.am  802  0QG802     -0.2760
     10  CA1       -7.4440   17.4730    3.0800 C.3   802  0QG802      0.1227
     11  C1        -6.9690   18.0450    1.7040 C.3   802  0QG802      0.2442
     12  O1        -7.8330   18.8560    1.2800 O.3   802  0QG802     -0.2018
     13  CB1       -8.8310   16.8330    2.9990 C.3   802  0QG802      0.0257
     14  CG        -9.7300   17.9440    3.4290 C.3   802  0QG802      0.0233
     15  CD        -8.9960   18.5210    4.6100 C.3   802  0QG802      0.0936
     16  N2        -5.6850   18.7340    1.8780 N.3   802  0QG802     -0.1777
     17  CA2       -5.1680   19.6300    0.8390 C.3   802  0QG802      0.1779
     18  C2        -3.6640   19.4320    0.6520 C.2   802  0QG802      0.3803
     19  O2        -2.9500   19.3300    1.6720 O.co2 802  0QG802     -0.2441
     20  CB2       -5.4470   21.1160    1.1710 C.3   802  0QG802      0.0271
     21 CG11       -5.3680   21.9600   -0.1010 C.3   802  0QG802      0.0020
     22 CG21       -4.4400   21.6300    2.1870 C.3   802  0QG802      0.0020
     23  CD1       -5.6710   23.4290    0.1200 C.3   802  0QG802      0.0001
     24  OXT       -3.2190   19.3800   -0.5140 O.co2 802  0QG802     -0.2441
@<TRIPOS>BOND
     1    24    18   ar
     2    21    23    1
     3    21    20    1
     4    18    17    1
     5    18    19   ar
     6    17    20    1
     7    17    16    1
     8    20    22    1
     9    12    11    1
    10    11    16    1
    11    11    10    1
    12    13    10    1
    13    13    14    1
    14    10     9    1
    15    14    15    1
    16     9    15    1
    17     9     7   am
    18     6     3    1
    19     8     7    2
    20     7     2    1
    21     4     3    1
    22     3     2    1
    23     3     5    1
    24     2     1    1
