@<TRIPOS>MOLECULE
2ajc_AES_A_1.pdb
 12 12 0 0 0
SMALL
GASTEIGER

@<TRIPOS>ATOM
      1  C3        -7.4150   23.1850    5.3930 C.ar  801  AES801     -0.0029
      2  C2        -7.8330   24.0760    4.3870 C.ar  801  AES801      0.0178
      3  C1        -6.9690   24.4400    3.3250 C.ar  801  AES801      0.1034
      4  S         -7.5890   25.5680    2.0810 S.3   801  AES801      0.0045
      5  O1S       -6.5210   25.7680    1.0720 O.3   801  AES801     -0.0734
      6  O2S       -8.0990   26.7860    2.7050 O.3   801  AES801     -0.0734
      7  C6        -5.6430   23.8920    3.2690 C.ar  801  AES801      0.0178
      8  C5        -5.2120   22.9770    4.2940 C.ar  801  AES801     -0.0029
      9  C4        -6.1140   22.6270    5.3590 C.ar  801  AES801     -0.0206
     10  C7        -5.6990   21.6510    6.4590 C.3   801  AES801      0.0468
     11  C8        -6.5250   20.3550    6.2920 C.3   801  AES801      0.1140
     12  N8        -5.9680   19.2950    7.1150 N.3   801  AES801     -0.1310
@<TRIPOS>BOND
     1     5     4    1
     2     4     6    1
     3     4     3    1
     4     7     3   ar
     5     7     8   ar
     6     3     2   ar
     7     8     9   ar
     8     2     1   ar
     9     9     1   ar
    10     9    10    1
    11    11    10    1
    12    11    12    1
