@<TRIPOS>MOLECULE
2ajd_BPR_A_1.pdb
 15 16 0 0 0
SMALL
GASTEIGER

@<TRIPOS>ATOM
      1  N         -5.9800   19.5500    6.4420 N.3   801  BPR801      0.0000
      2  CA        -6.9750   19.3260    5.3640 C.3   801  BPR801      0.0000
      3  C         -6.4720   18.3750    4.2770 C.2   801  BPR801      0.0000
      4  O         -5.2780   18.1380    4.1510 O.2   801  BPR801      0.0000
      5  CB        -7.3030   20.6790    4.7650 C.3   801  BPR801      0.0000
      6  CG        -6.1070   21.5300    5.2000 C.3   801  BPR801      0.0000
      7  CD        -5.6470   20.9810    6.5400 C.3   801  BPR801      0.0000
      8  O1        -7.9130   18.3590    0.5990 O.3   801  BPR801      0.0000
      9  N1        -7.3950   17.7950    3.4980 N.am  801  BPR801      0.0000
     10  C1        -8.8460   17.8090    3.7730 C.3   801  BPR801      0.0000
     11  C2        -7.0500   16.8670    2.4190 C.3   801  BPR801      0.0000
     12  C3        -8.3100   16.0260    2.3030 C.3   801  BPR801      0.0000
     13  C4        -9.4020   17.0160    2.6360 C.3   801  BPR801      0.0000
     14  O2        -5.5820   18.5300    1.2000 O.3   801  BPR801      0.0000
     15  B         -6.7200   17.5760    1.0530 B     801  BPR801      0.0000
@<TRIPOS>BOND
     1     8    15    1
     2    15    14    1
     3    15    11    1
     4    12    11    1
     5    12    13    1
     6    11     9    1
     7    13    10    1
     8     9    10    1
     9     9     3   am
    10     4     3    2
    11     3     2    1
    12     5     6    1
    13     5     2    1
    14     6     7    1
    15     2     1    1
    16     1     7    1
