@<TRIPOS>MOLECULE
2ajl_JNH_I_1.pdb
 24 26 0 0 0
SMALL
GASTEIGER

@<TRIPOS>ATOM
      1  N1       111.4360  -77.8720  -54.5300 N.am    1  JNH1       -0.2746
      2  C1       111.8970  -78.6710  -55.6500 C.3     1  JNH1        0.1186
      3  C2       112.9700  -77.7680  -56.2170 C.3     1  JNH1        0.0278
      4  C3       112.3440  -76.4060  -56.0210 C.3     1  JNH1        0.0236
      5  C4       111.9190  -76.5330  -54.5830 C.3     1  JNH1        0.0938
      6  C5       110.3970  -78.2460  -53.7940 C.2     1  JNH1        0.2436
      7  C6       110.2140  -77.3510  -52.5820 C.3     1  JNH1        0.1721
      8  O1       109.6850  -79.2100  -54.0640 O.2     1  JNH1       -0.2733
      9  N2       108.8180  -76.9090  -52.4810 N.3     1  JNH1       -0.1228
     10  C7       110.6220  -78.2600  -51.4130 C.3     1  JNH1        0.0547
     11  C8       110.0470  -76.7200  -47.3950 C.ar    1  JNH1       -0.0000
     12  C9       108.9310  -77.0970  -48.1690 C.ar    1  JNH1       -0.0003
     13  C10      109.0960  -77.6010  -49.4730 C.ar    1  JNH1       -0.0042
     14  C11      110.4040  -77.7100  -50.0140 C.ar    1  JNH1       -0.0202
     15  C12      111.5330  -77.3560  -49.2720 C.ar    1  JNH1       -0.0042
     16  C13      111.3320  -76.8610  -47.9780 C.ar    1  JNH1       -0.0003
     17  C14      109.6580  -75.1680  -43.4050 C.ar    1  JNH1        0.0000
     18  C15      108.4970  -75.3570  -44.1960 C.ar    1  JNH1        0.0000
     19  C16      108.6260  -75.8780  -45.5180 C.ar    1  JNH1       -0.0000
     20  C17      109.9070  -76.2130  -46.0680 C.ar    1  JNH1       -0.0000
     21  C18      111.0520  -76.0150  -45.2190 C.ar    1  JNH1       -0.0000
     22  C19      110.9380  -75.4980  -43.9040 C.ar    1  JNH1        0.0000
     23  C20      112.4500  -80.0580  -55.5000 C.2     1  JNH1        0.1152
     24  N3       112.4210  -80.8840  -54.5080 N.2     1  JNH1       -0.1496
@<TRIPOS>BOND
     1     3     4    1
     2     3     2    1
     3     4     5    1
     4     2    23    1
     5     2     1    1
     6    23    24    2
     7     5     1    1
     8     1     6   am
     9     8     6    2
    10     6     7    1
    11     7     9    1
    12     7    10    1
    13    10    14    1
    14    14    13   ar
    15    14    15   ar
    16    13    12   ar
    17    15    16   ar
    18    12    11   ar
    19    16    11   ar
    20    11    20    1
    21    20    19   ar
    22    20    21   ar
    23    19    18   ar
    24    21    22   ar
    25    18    17   ar
    26    22    17   ar
