@<TRIPOS>MOLECULE
2ajp_ANP_A_1.pdb
 31 33 0 0 0
SMALL
GASTEIGER

@<TRIPOS>ATOM
      1  PG       -18.8580   -1.4270  -46.1120 P.3   501  ANP501      0.4884
      2  O1G      -18.5490   -0.9230  -44.6690 O.3   501  ANP501     -0.1240
      3  O2G      -19.8660   -2.6670  -46.0660 O.3   501  ANP501     -0.1240
      4  O3G      -17.5340   -1.6290  -46.9160 O.2   501  ANP501     -0.2331
      5  PB       -19.5540    1.5480  -46.4670 P.3   501  ANP501      0.4669
      6  O1B      -18.1540    1.9000  -46.0450 O.3   501  ANP501     -0.1253
      7  O2B      -20.2480    2.4190  -47.4590 O.2   501  ANP501     -0.2351
      8  N3B      -19.6640   -0.1200  -47.0090 N.3   501  ANP501     -0.0163
      9  PA       -20.4110    2.9420  -44.1420 P.3   501  ANP501      0.2220
     10  O1A      -20.6570    2.4660  -42.7570 O.3   501  ANP501     -0.4370
     11  O2A      -19.1440    3.7170  -44.3910 O.2   501  ANP501     -0.5170
     12  O3A      -20.4840    1.6870  -45.1440 O.3   501  ANP501     -0.2360
     13  O5'      -21.6320    3.8370  -44.6940 O.3   501  ANP501     -0.3111
     14  C5'      -22.9710    3.3320  -44.8570 C.3   501  ANP501      0.1813
     15  C4'      -23.9800    4.3360  -44.2990 C.3   501  ANP501      0.1821
     16  O4'      -23.6780    4.7850  -42.9360 O.3   501  ANP501     -0.3135
     17  C3'      -23.9890    5.6220  -45.0990 C.3   501  ANP501      0.2184
     18  O3'      -24.7520    5.5480  -46.3110 O.3   501  ANP501     -0.2174
     19  C2'      -24.6550    6.5730  -44.1420 C.3   501  ANP501      0.2570
     20  O2'      -26.0490    6.4140  -44.2350 O.3   501  ANP501     -0.2130
     21  C1'      -24.3530    6.0520  -42.7650 C.3   501  ANP501      0.3186
     22  N9       -23.6190    7.1290  -42.0000 N.pl3 501  ANP501     -0.1439
     23  C8       -24.0140    8.4490  -41.7930 C.3   501  ANP501      0.3377
     24  N7       -23.0910    9.1320  -41.0460 N.2   501  ANP501     -0.2095
     25  C5       -22.1280    8.2410  -40.7810 C.2   501  ANP501      0.2526
     26  C6       -20.8760    8.2640  -40.0520 C.2   501  ANP501      0.4393
     27  N6       -20.4860    9.3770  -39.4600 N.pl3 501  ANP501      0.2180
     28  N1       -20.1370    7.1090  -39.9970 N.2   501  ANP501      0.0021
     29  C2       -20.5370    5.9470  -40.5990 C.3   501  ANP501      0.5254
     30  N3       -21.6890    5.8830  -41.2950 N.2   501  ANP501     -0.0055
     31  C4       -22.4750    6.9490  -41.4020 C.2   501  ANP501      0.3518
@<TRIPOS>BOND
     1     7     5    2
     2     8     5    1
     3     8     1    1
     4     4     1    2
     5     5     6    1
     6     5    12    1
     7    18    17    1
     8     1     3    1
     9     1     2    1
    10    12     9    1
    11    17    15    1
    12    17    19    1
    13    14    13    1
    14    14    15    1
    15    13     9    1
    16    11     9    2
    17    15    16    1
    18    20    19    1
    19     9    10    1
    20    19    21    1
    21    16    21    1
    22    21    22    1
    23    22    23    1
    24    22    31    1
    25    23    24    1
    26    31    30    2
    27    31    25    1
    28    30    29    1
    29    24    25    2
    30    25    26    1
    31    29    28    1
    32    26    28    2
    33    26    27    1
