@<TRIPOS>MOLECULE
2ajs_P33_H_1.pdb
 22 21 0 0 0
SMALL
GASTEIGER

@<TRIPOS>ATOM
      1  O22       23.0930   78.4970  -21.2920 O.3   701  P33701     -0.2176
      2  C21       22.9000   77.5410  -22.3670 C.3   701  P33701      0.2140
      3  C20       23.3890   78.1670  -23.6910 C.3   701  P33701      0.1777
      4  O19       23.1770   77.1370  -24.6620 O.3   701  P33701     -0.3483
      5  C18       24.1400   77.0620  -25.7320 C.3   701  P33701      0.1742
      6  C17       25.5600   77.3260  -25.1620 C.3   701  P33701      0.1742
      7  O16       26.5430   77.7340  -26.0960 O.3   701  P33701     -0.3484
      8  C15       27.8300   77.9890  -25.4670 C.3   701  P33701      0.1742
      9  C14       27.5000   79.1150  -24.4550 C.3   701  P33701      0.1742
     10  O13       28.6140   80.0890  -24.2180 O.3   701  P33701     -0.3484
     11  C12       28.5530   80.8090  -22.9240 C.3   701  P33701      0.1742
     12  C11       27.7260   82.0550  -22.9100 C.3   701  P33701      0.1742
     13  O10       27.0790   82.1180  -21.6420 O.3   701  P33701     -0.3484
     14  C9        25.7560   81.7010  -21.5270 C.3   701  P33701      0.1742
     15  C8        25.2100   81.6480  -20.1340 C.3   701  P33701      0.1742
     16  O7        25.1540   80.2450  -19.7830 O.3   701  P33701     -0.3484
     17  C6        24.1230   79.9530  -18.8060 C.3   701  P33701      0.1742
     18  C5        24.7680   79.1390  -17.6460 C.3   701  P33701      0.1742
     19  O4        23.8210   78.1550  -17.1710 O.3   701  P33701     -0.3483
     20  C3        22.8400   78.4280  -16.2000 C.3   701  P33701      0.1777
     21  C2        22.5980   77.2830  -15.1690 C.3   701  P33701      0.2140
     22  O1        22.5980   77.9320  -13.9450 O.3   701  P33701     -0.2176
@<TRIPOS>BOND
     1     7     8    1
     2     7     6    1
     3     5     6    1
     4     5     4    1
     5     8     9    1
     6     4     3    1
     7     9    10    1
     8    10    11    1
     9     3     2    1
    10    11    12    1
    11    12    13    1
    12     2     1    1
    13    13    14    1
    14    14    15    1
    15    15    16    1
    16    16    17    1
    17    17    18    1
    18    18    19    1
    19    19    20    1
    20    20    21    1
    21    21    22    1
