@<TRIPOS>MOLECULE
2ajv_COC_L_1.pdb
 22 24 0 0 0
SMALL
GASTEIGER

@<TRIPOS>ATOM
      1  C1        43.1250   25.1010   -7.0370 C.3   501  COC501      0.2556
      2  O5        43.1000   23.8590   -6.2830 O.3   501  COC501     -0.4443
      3  C6        41.8550   23.3460   -6.0310 C.2   501  COC501      0.3215
      4  O7        40.8260   23.9900   -6.1880 O.2   501  COC501     -0.2499
      5  C8        41.8540   21.9260   -5.4780 C.3   501  COC501      0.1535
      6  C10       40.7820   21.0240   -6.1830 C.3   501  COC501      0.0716
      7  N12       39.4430   21.6110   -5.8590 N.3   501  COC501     -0.2733
      8  C14       38.3770   21.1750   -6.8480 C.3   501  COC501      0.0896
      9  C18       40.7090   19.6630   -5.4690 C.3   501  COC501      0.0180
     10  C21       39.6530   19.7930   -4.3470 C.3   501  COC501      0.0175
     11  C24       39.2010   21.2710   -4.4320 C.3   501  COC501      0.0612
     12  C26       40.1470   22.2030   -3.6030 C.3   501  COC501      0.0602
     13  C29       41.6190   21.8960   -3.9410 C.3   501  COC501      0.1823
     14  O1        42.4050   22.9320   -3.3180 O.3   501  COC501     -0.4485
     15  C2        43.6800   22.6070   -2.9380 C.2   501  COC501      0.3411
     16  O3        44.2850   21.5970   -3.3310 O.2   501  COC501     -0.2449
     17  C4        44.2800   23.5670   -1.9790 C.ar  501  COC501      0.0756
     18  C5        45.6630   23.5210   -1.7180 C.ar  501  COC501      0.0064
     19  C7        46.2090   24.4230   -0.7910 C.ar  501  COC501      0.0002
     20  C9        45.3700   25.3470   -0.1940 C.ar  501  COC501      0.0000
     21  C11       44.0050   25.4230   -0.4550 C.ar  501  COC501      0.0002
     22  C13       43.4430   24.5140   -1.3640 C.ar  501  COC501      0.0064
@<TRIPOS>BOND
     1     1     2    1
     2     8     7    1
     3     2     3    1
     4     4     3    2
     5     6     7    1
     6     6     5    1
     7     6     9    1
     8     3     5    1
     9     7    11    1
    10     5    13    1
    11     9    10    1
    12    11    10    1
    13    11    12    1
    14    13    12    1
    15    13    14    1
    16    16    15    2
    17    14    15    1
    18    15    17    1
    19    17    18   ar
    20    17    22   ar
    21    18    19   ar
    22    22    21   ar
    23    19    20   ar
    24    21    20   ar
