@<TRIPOS>MOLECULE
2ajx_TGN_L_1.pdb
 23 25 0 0 0
SMALL
GASTEIGER

@<TRIPOS>ATOM
      1  C8        11.2650  -10.3240  -17.0320 C.3   501  TGN501      0.1411
      2  C10       12.7680   -9.9700  -17.3950 C.3   501  TGN501      0.0705
      3  N12       13.3700   -9.3160  -16.1790 N.3   501  TGN501     -0.2734
      4  C14       14.8690   -9.4090  -16.0630 C.3   501  TGN501      0.0896
      5  C18       12.9410   -8.8800  -18.4950 C.3   501  TGN501      0.0180
      6  C21       12.9680   -7.5240  -17.7040 C.3   501  TGN501      0.0174
      7  C24       12.8040   -7.9160  -16.2050 C.3   501  TGN501      0.0600
      8  C26       11.2970   -8.0330  -15.7320 C.3   501  TGN501      0.0466
      9  C29       10.4760   -9.0020  -16.6500 C.3   501  TGN501      0.1374
     10  O1         9.2360   -9.2850  -16.0200 O.3   501  TGN501     -0.2917
     11  P2         7.8370   -9.1440  -16.8100 P.3   501  TGN501      0.3920
     12  O17        8.0700   -9.6420  -18.2310 O.2   501  TGN501     -0.2507
     13  O3         6.8460  -10.0700  -16.1370 O.3   501  TGN501     -0.1363
     14  C4         7.4610   -7.4730  -16.6810 C.ar  501  TGN501      0.0823
     15  C5         7.3210   -6.8620  -15.4050 C.ar  501  TGN501      0.0074
     16  C13        7.2640   -6.6960  -17.8560 C.ar  501  TGN501      0.0074
     17  C7         6.9990   -5.4820  -15.3070 C.ar  501  TGN501      0.0003
     18  C9         6.8000   -4.7130  -16.4820 C.ar  501  TGN501      0.0000
     19  C11        6.9400   -5.3120  -17.7570 C.ar  501  TGN501      0.0003
     20  C6        11.2430  -11.3970  -15.8910 C.2   501  TGN501      0.3203
     21  O7        11.9170  -11.2770  -14.8530 O.2   501  TGN501     -0.2500
     22  O5        10.3890  -12.4550  -16.1820 O.3   501  TGN501     -0.4443
     23  C1        10.3850  -13.5950  -15.2840 C.3   501  TGN501      0.2556
@<TRIPOS>BOND
     1     5     6    1
     2     5     2    1
     3    12    11    2
     4    16    19   ar
     5    16    14   ar
     6    19    18   ar
     7     6     7    1
     8     2     1    1
     9     2     3    1
    10     1     9    1
    11     1    20    1
    12    11    14    1
    13    11    13    1
    14    11    10    1
    15    14    15   ar
    16     9    10    1
    17     9     8    1
    18    18    17   ar
    19     7     3    1
    20     7     8    1
    21    22    20    1
    22    22    23    1
    23     3     4    1
    24    20    21    2
    25    15    17   ar
