@<TRIPOS>MOLECULE
2ajy_ECG_L_1.pdb
 14 15 0 0 0
SMALL
GASTEIGER

@<TRIPOS>ATOM
      1  C21       15.3090   -3.6980   31.7000 C.3   304  ECG304      0.0174
      2  C24       16.5790   -3.1570   32.4030 C.3   304  ECG304      0.0601
      3  C26       17.0530   -4.0670   33.6230 C.3   304  ECG304      0.0494
      4  C29       17.3940   -5.5650   33.2080 C.3   304  ECG304      0.1652
      5  O1        18.2510   -6.1400   34.1810 O.3   304  ECG304     -0.2225
      6  C18       15.8560   -4.6530   30.5940 C.3   304  ECG304      0.0180
      7  C10       17.4180   -4.5970   30.7190 C.3   304  ECG304      0.0706
      8  N12       17.6040   -3.2270   31.3290 N.3   304  ECG304     -0.2734
      9  C8        18.0510   -5.6590   31.7410 C.3   304  ECG304      0.1438
     10  C6        19.5980   -5.4510   31.7290 C.2   304  ECG304      0.3204
     11  O5        20.3060   -6.6560   31.7520 O.3   304  ECG304     -0.4443
     12  C1        21.7580   -6.6300   31.7490 C.3   304  ECG304      0.2556
     13  O7        20.0990   -4.3150   31.7100 O.2   304  ECG304     -0.2500
     14  C14       17.5640   -2.0940   30.3190 C.3   304  ECG304      0.0896
@<TRIPOS>BOND
     1    14     8    1
     2     6     7    1
     3     6     1    1
     4     7     8    1
     5     7     9    1
     6     8     2    1
     7     1     2    1
     8    13    10    2
     9    10     9    1
    10    10    11    1
    11     9     4    1
    12    12    11    1
    13     2     3    1
    14     4     3    1
    15     4     5    1
