@<TRIPOS>MOLECULE
2ajz_ECG_A_1.pdb
 14 15 0 0 0
SMALL
GASTEIGER

@<TRIPOS>ATOM
      1  C21       31.8160   28.2480   47.2130 C.3   302  ECG302      0.0174
      2  C24       32.0250   28.3550   48.7340 C.3   302  ECG302      0.0601
      3  C26       33.4490   27.8490   49.1960 C.3   302  ECG302      0.0494
      4  C29       34.6380   28.6290   48.5050 C.3   302  ECG302      0.1652
      5  O1        35.8330   28.4320   49.2570 O.3   302  ECG302     -0.2225
      6  C18       32.3210   29.6010   46.6480 C.3   302  ECG302      0.0180
      7  C10       32.7810   30.4180   47.8850 C.3   302  ECG302      0.0706
      8  N12       31.9470   29.8100   48.9820 N.3   302  ECG302     -0.2734
      9  C8        34.2950   30.2000   48.3090 C.3   302  ECG302      0.1438
     10  C6        34.4900   31.1010   49.5640 C.2   302  ECG302      0.3204
     11  O5        35.0970   32.3280   49.2800 O.3   302  ECG302     -0.4443
     12  C1        35.3140   33.2650   50.3710 C.3   302  ECG302      0.2556
     13  O7        34.1050   30.7230   50.6810 O.2   302  ECG302     -0.2500
     14  C14       30.5430   30.3660   49.0890 C.3   302  ECG302      0.0896
@<TRIPOS>BOND
     1     6     1    1
     2     6     7    1
     3     1     2    1
     4     7     9    1
     5     7     8    1
     6     9     4    1
     7     9    10    1
     8     4     3    1
     9     4     5    1
    10     2     8    1
    11     2     3    1
    12     8    14    1
    13    11    10    1
    14    11    12    1
    15    10    13    2
