@<TRIPOS>MOLECULE
2ak3_AMP_A_1.pdb
 23 25 0 0 0
SMALL
GASTEIGER

@<TRIPOS>ATOM
      1  P          3.1560   35.5340   64.3880 P.3   226  AMP226      0.5327
      2  O1P        3.8070   34.1810   63.8480 O.3   226  AMP226     -0.1145
      3  O2P        1.7190   35.5850   64.6380 O.3   226  AMP226     -0.1145
      4  O3P        3.7290   36.4700   63.4160 O.2   226  AMP226     -0.2224
      5  O5'        3.8250   35.7000   65.7240 O.3   226  AMP226     -0.2675
      6  C5'        3.2130   35.0970   66.9810 C.3   226  AMP226      0.1860
      7  C4'        3.5010   35.9360   68.2150 C.3   226  AMP226      0.1823
      8  O4'        4.9240   36.1220   68.3030 O.3   226  AMP226     -0.3135
      9  C3'        2.8850   37.3660   68.1690 C.3   226  AMP226      0.2184
     10  O3'        1.6180   37.4580   68.8110 O.3   226  AMP226     -0.2174
     11  C2'        3.8330   38.1810   68.9870 C.3   226  AMP226      0.2570
     12  O2'        3.6610   37.7870   70.3380 O.3   226  AMP226     -0.2130
     13  C1'        5.0720   37.5160   68.3870 C.3   226  AMP226      0.3186
     14  N9         5.9950   38.2150   67.5160 N.pl3 226  AMP226     -0.1439
     15  C8         6.4140   37.8410   66.2710 C.3   226  AMP226      0.3377
     16  N7         6.9600   38.8240   65.6160 N.2   226  AMP226     -0.2095
     17  C5         6.9390   39.9260   66.4650 C.2   226  AMP226      0.2526
     18  C6         7.4230   41.2400   66.3670 C.2   226  AMP226      0.4393
     19  N6         7.9550   41.7430   65.2280 N.pl3 226  AMP226      0.2180
     20  N1         7.3160   41.9930   67.4760 N.2   226  AMP226      0.0021
     21  C2         6.8500   41.4750   68.5960 C.3   226  AMP226      0.5254
     22  N3         6.3370   40.2610   68.8270 N.2   226  AMP226     -0.0055
     23  C4         6.4230   39.4910   67.7140 C.2   226  AMP226      0.3518
@<TRIPOS>BOND
     1     4     1    2
     2     2     1    1
     3     1     3    1
     4     1     5    1
     5    19    18    1
     6    16    15    1
     7    16    17    2
     8     5     6    1
     9    15    14    1
    10    18    17    1
    11    18    20    2
    12    17    23    1
    13     6     7    1
    14    20    21    1
    15    14    23    1
    16    14    13    1
    17    23    22    2
    18     9     7    1
    19     9    10    1
    20     9    11    1
    21     7     8    1
    22     8    13    1
    23    13    11    1
    24    21    22    1
    25    11    12    1
