@<TRIPOS>MOLECULE
2ake_TRP_A_1.pdb
 15 16 0 0 0
SMALL
GASTEIGER

@<TRIPOS>ATOM
      1  N         13.1840   33.5690   92.7370 N.3   479  TRP479     -0.1205
      2  CA        11.9270   33.9480   93.4260 C.3   479  TRP479      0.1987
      3  C         12.1600   34.0570   94.8710 C.2   479  TRP479      0.3822
      4  O         13.2430   33.8430   95.3870 O.co2 479  TRP479     -0.2440
      5  CB        10.8860   32.8400   93.2360 C.3   479  TRP479      0.0585
      6  CG        10.4830   32.5770   91.8000 C.2   479  TRP479      0.0001
      7  CD1       10.9600   31.5050   91.0540 C.2   479  TRP479      0.0942
      8  CD2        9.6180   33.3570   91.0900 C.2   479  TRP479      0.0115
      9  NE1       10.3850   31.6130   89.8500 N.2   479  TRP479     -0.2482
     10  CE2        9.5850   32.6900   89.8180 C.2   479  TRP479      0.0631
     11  CE3        8.8350   34.5610   91.3400 C.2   479  TRP479      0.0006
     12  CZ2        8.7330   33.2620   88.7580 C.3   479  TRP479      0.0717
     13  CZ3        8.0170   35.1090   90.3200 C.2   479  TRP479     -0.0042
     14  CH2        7.9540   34.4740   89.0250 C.2   479  TRP479     -0.0198
     15  OXT       11.0330   34.4320   95.6540 O.co2 479  TRP479     -0.2440
@<TRIPOS>BOND
     1    12    14    1
     2    12    10    1
     3    14    13    2
     4    10     9    2
     5    10     8    1
     6     9     7    1
     7    13    11    1
     8     7     6    2
     9     8    11    2
    10     8     6    1
    11     6     5    1
    12     1     2    1
    13     5     2    1
    14     2     3    1
    15     3     4   ar
    16     3    15   ar
