@<TRIPOS>MOLECULE
2ako_ADP_A_1.pdb
 27 29 0 0 0
SMALL
GASTEIGER

@<TRIPOS>ATOM
      1  PB       -11.7670  -20.1860   11.1340 P.3   852  ADP852      0.5373
      2  O1B      -12.0190  -21.5440   10.5460 O.3   852  ADP852     -0.1143
      3  O2B      -11.2770  -19.2010   10.1130 O.2   852  ADP852     -0.2221
      4  O3B      -10.9810  -20.2250   12.4180 O.3   852  ADP852     -0.1143
      5  PA       -14.1350  -20.6190   12.5190 P.3   852  ADP852      0.2231
      6  O1A      -14.6460  -21.7300   11.6300 O.2   852  ADP852     -0.5169
      7  O2A      -13.3180  -20.9550   13.7440 O.3   852  ADP852     -0.4370
      8  O3A      -13.2160  -19.6540   11.6110 O.3   852  ADP852     -0.2261
      9  O5'      -15.4440  -19.7780   12.9590 O.3   852  ADP852     -0.3111
     10  C5'      -16.5520  -20.4980   13.5240 C.3   852  ADP852      0.1813
     11  C4'      -17.9230  -19.8280   13.4000 C.3   852  ADP852      0.1821
     12  O4'      -18.1070  -18.7190   14.2910 O.3   852  ADP852     -0.3135
     13  C3'      -18.3020  -19.2860   12.0240 C.3   852  ADP852      0.2184
     14  O3'      -19.0250  -20.2610   11.2630 O.3   852  ADP852     -0.2174
     15  C2'      -19.1650  -18.0670   12.3360 C.3   852  ADP852      0.2570
     16  O2'      -20.4360  -18.1090   11.6790 O.3   852  ADP852     -0.2130
     17  C1'      -19.3400  -18.1430   13.8490 C.3   852  ADP852      0.3186
     18  N9       -19.6840  -16.8770   14.5600 N.pl3 852  ADP852     -0.1439
     19  C8       -20.3080  -16.8820   15.7580 C.3   852  ADP852      0.3377
     20  N7       -20.5240  -15.6250   16.2070 N.2   852  ADP852     -0.2095
     21  C5       -20.0350  -14.7820   15.2850 C.2   852  ADP852      0.2526
     22  C6       -19.9490  -13.3110   15.1510 C.2   852  ADP852      0.4393
     23  N6       -20.4380  -12.5090   16.1230 N.pl3 852  ADP852      0.2180
     24  N1       -19.3650  -12.8120   14.0370 N.2   852  ADP852      0.0021
     25  C2       -18.8770  -13.6210   13.0720 C.3   852  ADP852      0.5254
     26  N3       -18.9240  -14.9680   13.1340 N.2   852  ADP852     -0.0055
     27  C4       -19.4820  -15.6040   14.1940 C.2   852  ADP852      0.3518
@<TRIPOS>BOND
     1     3     1    2
     2     2     1    1
     3     1     8    1
     4     1     4    1
     5    14    13    1
     6     8     5    1
     7     6     5    2
     8    16    15    1
     9    13    15    1
    10    13    11    1
    11    15    17    1
    12     5     9    1
    13     5     7    1
    14     9    10    1
    15    25    26    1
    16    25    24    1
    17    26    27    2
    18    11    10    1
    19    11    12    1
    20    17    12    1
    21    17    18    1
    22    24    22    2
    23    27    18    1
    24    27    21    1
    25    18    19    1
    26    22    21    1
    27    22    23    1
    28    21    20    2
    29    19    20    1
