@<TRIPOS>MOLECULE
2akr_NAG_A_1.pdb
 14 14 0 0 0
SMALL
GASTEIGER

@<TRIPOS>ATOM
      1  C1         6.0400  -10.9320   -2.0150 C.3   500  NAG500      0.1665
      2  C2         6.6100  -11.9470   -3.0320 C.3   500  NAG500      0.1576
      3  C3         8.0330  -12.4810   -2.7870 C.3   500  NAG500      0.2069
      4  C4         8.7710  -12.0320   -1.5250 C.3   500  NAG500      0.2134
      5  C5         8.0150  -11.0560   -0.6050 C.3   500  NAG500      0.1809
      6  C6         9.0290  -10.0850   -0.0170 C.3   500  NAG500      0.2141
      7  C7         5.5330  -13.7620   -4.2910 C.2   500  NAG500      0.2420
      8  C8         6.1650  -15.1190   -4.5030 C.3   500  NAG500      0.0964
      9  N2         5.7520  -13.1230   -3.1350 N.am  500  NAG500     -0.2019
     10  O3         8.8410  -12.2120   -3.9190 O.3   500  NAG500     -0.2184
     11  O4         9.1450  -13.1930   -0.8090 O.3   500  NAG500     -0.2176
     12  O5         7.0620  -10.2720   -1.2940 O.3   500  NAG500     -0.3489
     13  O6         8.7630   -9.8960    1.3500 O.3   500  NAG500     -0.2176
     14  O7         4.8320  -13.2710   -5.1740 O.2   500  NAG500     -0.2733
@<TRIPOS>BOND
     1    14     7    2
     2     8     7    1
     3     7     9   am
     4    10     3    1
     5     9     2    1
     6     2     3    1
     7     2     1    1
     8     3     4    1
     9     1    12    1
    10     4    11    1
    11     4     5    1
    12    12     5    1
    13     5     6    1
    14     6    13    1
