@<TRIPOS>MOLECULE
2akw_200_A_1.pdb
 13 13 0 0 0
SMALL
GASTEIGER

@<TRIPOS>ATOM
      1  N         19.6090   61.4890   18.8810 N.3   999  200999     -0.1205
      2  CA        18.9040   62.8090   18.9590 C.3   999  200999      0.1986
      3  C         17.4490   62.5750   19.5040 C.2   999  200999      0.3822
      4  O         16.6210   63.5160   19.4260 O.co2 999  200999     -0.2440
      5  OXT       17.1670   61.4490   20.0000 O.co2 999  200999     -0.2440
      6  CB        18.8660   63.4870   17.5760 C.3   999  200999      0.0569
      7  CG        20.2050   64.1610   17.2690 C.ar  999  200999     -0.0201
      8  CD1       21.3590   63.3860   16.8240 C.ar  999  200999     -0.0033
      9  CD2       20.3620   65.5820   17.4260 C.ar  999  200999     -0.0033
     10  CE1       22.6090   64.0150   16.5570 C.ar  999  200999      0.0111
     11  CE2       21.6180   66.2050   17.1550 C.ar  999  200999      0.0111
     12  CZ        22.7350   65.4200   16.7260 C.ar  999  200999      0.0577
     13 CL         24.2730   66.2030   16.4090 Cl    999  200999     -0.0822
@<TRIPOS>BOND
     1    13    12    1
     2    10    12   ar
     3    10     8   ar
     4    12    11   ar
     5     8     7   ar
     6    11     9   ar
     7     7     9   ar
     8     7     6    1
     9     6     2    1
    10     1     2    1
    11     2     3    1
    12     4     3   ar
    13     3     5   ar
