@<TRIPOS>MOLECULE
2al0_HEM_X_1.pdb
 43 50 0 0 0
SMALL
GASTEIGER

@<TRIPOS>ATOM
      1 FE         17.5870   13.4530  116.2990 Fe    201  HEM201      0.0000
      2  CHA       17.9660   14.2130  119.5830 C.2   201  HEM201      0.0000
      3  CHB       20.6340   11.8690  116.2900 C.2   201  HEM201      0.0000
      4  CHC       17.1770   12.6460  113.0470 C.2   201  HEM201      0.0000
      5  CHD       14.9940   15.7610  116.0060 C.2   201  HEM201      0.0000
      6  NA        19.0650   13.1620  117.7040 N.2   201  HEM201      0.0000
      7  C1A       18.9770   13.4950  119.0250 C.2   201  HEM201      0.0000
      8  C2A       20.1730   13.0130  119.6780 C.2   201  HEM201      0.0000
      9  C3A       20.9040   12.3630  118.7880 C.2   201  HEM201      0.0000
     10  C4A       20.2400   12.4490  117.4790 C.2   201  HEM201      0.0000
     11  CMA       22.2610   11.6300  118.9590 C.3   201  HEM201      0.0000
     12  CAA       20.4880   13.1230  121.1700 C.3   201  HEM201      0.0000
     13  CBA       19.8390   11.8950  121.7970 C.3   201  HEM201      0.0000
     14  CGA       20.2410   11.6430  123.2350 C.2   201  HEM201      0.0000
     15  O1A       20.6210   10.4770  123.5730 O.co2 201  HEM201      0.0000
     16  O2A       20.1160   12.6060  124.0110 O.co2 201  HEM201      0.0000
     17  NB        18.7030   12.3940  114.9210 N.ar  201  HEM201      0.0000
     18  C1B       19.8870   11.7680  115.1270 C.ar  201  HEM201      0.0000
     19  C2B       20.1950   10.9280  113.9850 C.ar  201  HEM201      0.0000
     20  C3B       19.2220   11.1150  113.0610 C.ar  201  HEM201      0.0000
     21  C4B       18.2590   12.0830  113.6630 C.ar  201  HEM201      0.0000
     22  CMB       21.4670   10.0810  113.8060 C.3   201  HEM201      0.0000
     23  CAB       19.1540   10.4880  111.6990 C.2   201  HEM201      0.0000
     24  CBB       19.3510    9.1720  111.5170 C.2   201  HEM201      0.0000
     25  NC        16.3880   14.1440  114.7760 N.2   201  HEM201      0.0000
     26  C1C       16.3450   13.6150  113.5030 C.2   201  HEM201      0.0000
     27  C2C       15.2320   14.2350  112.7630 C.2   201  HEM201      0.0000
     28  C3C       14.6590   15.1140  113.6160 C.2   201  HEM201      0.0000
     29  C4C       15.3690   15.0570  114.8800 C.2   201  HEM201      0.0000
     30  CMC       14.8150   13.9030  111.3010 C.3   201  HEM201      0.0000
     31  CAC       13.4360   15.9960  113.4190 C.2   201  HEM201      0.0000
     32  CBC       12.6660   15.8620  112.3910 C.2   201  HEM201      0.0000
     33  ND        16.6410   14.7890  117.5790 N.ar  201  HEM201      0.0000
     34  C1D       15.5410   15.5560  117.2460 C.ar  201  HEM201      0.0000
     35  C2D       15.0030   16.0560  118.5060 C.ar  201  HEM201      0.0000
     36  C3D       15.9160   15.6080  119.5880 C.ar  201  HEM201      0.0000
     37  C4D       16.9140   14.8020  118.9420 C.ar  201  HEM201      0.0000
     38  CMD       13.7430   16.9200  118.6810 C.3   201  HEM201      0.0000
     39  CAD       15.7660   15.8940  121.1320 C.3   201  HEM201      0.0000
     40  CBD       14.9230   14.8190  121.7850 C.3   201  HEM201      0.0000
     41  CGD       14.7520   14.8440  123.3250 C.2   201  HEM201      0.0000
     42  O1D       15.7170   15.2230  123.9800 O.co2 201  HEM201      0.0000
     43  O2D       13.6080   14.5330  123.8140 O.co2 201  HEM201      0.0000
@<TRIPOS>BOND
     1    30    27    1
     2    24    23    2
     3    23    20    1
     4    32    31    2
     5    27    26    1
     6    27    28    2
     7     4    26    2
     8     4    21    1
     9    20    21   ar
    10    20    19   ar
    11    31    28    1
    12    26    25    1
    13    28    29    1
    14    21    17   ar
    15    22    19    1
    16    19    18   ar
    17    25    29    2
    18    25     1    1
    19    29     5    1
    20    17    18   ar
    21    17     1    1
    22    18     3    1
    23     5    34    2
    24     3    10    2
    25     1    33    1
    26     1     6    1
    27    34    33   ar
    28    34    35   ar
    29    10     6    1
    30    10     9    1
    31    33    37   ar
    32     6     7    2
    33    35    38    1
    34    35    36   ar
    35     9    11    1
    36     9     8    2
    37    37     2    2
    38    37    36   ar
    39     7     2    1
    40     7     8    1
    41    36    39    1
    42     8    12    1
    43    39    40    1
    44    12    13    1
    45    40    41    1
    46    13    14    1
    47    14    15   ar
    48    14    16   ar
    49    41    43   ar
    50    41    42   ar
