@<TRIPOS>MOLECULE
2al1_2PG_A_1.pdb
 11 10 0 0 0
SMALL
GASTEIGER

@<TRIPOS>ATOM
      1  C1        29.3050    3.8790   11.9210 C.2   441  2PG441      0.3946
      2  C2        27.9060    4.2710   12.4070 C.3   441  2PG441      0.2610
      3  C3        27.0690    3.0140   12.6450 C.3   441  2PG441      0.2237
      4  P         27.5630    6.5550   13.6890 P.3   441  2PG441      0.5331
      5  O1        30.2500    4.6590   12.0570 O.co2 441  2PG441     -0.2428
      6  O2        29.4490    2.9100   11.1700 O.co2 441  2PG441     -0.2428
      7  O3        27.6310    2.2440   13.7100 O.3   441  2PG441     -0.2170
      8  O1P       28.0060    5.0230   13.6160 O.3   441  2PG441     -0.2583
      9  O2P       27.8590    7.1650   14.9860 O.3   441  2PG441     -0.1145
     10  O3P       26.0120    6.5780   13.3210 O.3   441  2PG441     -0.1145
     11  O4P       28.3080    7.2720   12.4740 O.2   441  2PG441     -0.2224
@<TRIPOS>BOND
     1     6     1   ar
     2     1     5   ar
     3     1     2    1
     4     2     3    1
     5     2     8    1
     6    11     4    2
     7     3     7    1
     8    10     4    1
     9     8     4    1
    10     4     9    1
