@<TRIPOS>MOLECULE
2al1_PEP_A_1.pdb
 10 9 0 0 0
SMALL
GASTEIGER

@<TRIPOS>ATOM
      1  C1        29.5590    4.1010   11.9050 C.2   440  PEP440      0.3919
      2  O1        29.4860    3.2400   10.9930 O.co2 440  PEP440     -0.2429
      3  O2'       30.5640    4.8340   12.0830 O.co2 440  PEP440     -0.2429
      4  C2        28.3580    4.2620   12.8470 C.3   440  PEP440      0.2285
      5  C3        27.2330    3.4660   12.6750 C.3   440  PEP440      0.0450
      6  O2        28.3970    5.1820   13.8460 O.3   440  PEP440     -0.2611
      7  P         27.6870    6.5410   13.4000 P.3   440  PEP440      0.5330
      8  O1P       28.3460    7.1850   12.2630 O.2   440  PEP440     -0.2224
      9  O2P       27.6650    7.4520   14.7090 O.3   440  PEP440     -0.1145
     10  O3P       26.1640    6.1640   13.1170 O.3   440  PEP440     -0.1145
@<TRIPOS>BOND
     1     2     1   ar
     2     1     3   ar
     3     1     4    1
     4     8     7    2
     5     5     4    1
     6     4     6    1
     7    10     7    1
     8     7     6    1
     9     7     9    1
