@<TRIPOS>MOLECULE
2al2_PEP_A_1.pdb
 10 9 0 0 0
SMALL
GASTEIGER

@<TRIPOS>ATOM
      1  C1        29.4000    4.0790   11.5970 C.2   440  PEP440      0.3919
      2  O1        29.3210    3.2730   10.6370 O.co2 440  PEP440     -0.2429
      3  O2'       30.3640    4.8660   11.7630 O.co2 440  PEP440     -0.2429
      4  C2        28.2580    4.1040   12.6220 C.3   440  PEP440      0.2285
      5  C3        27.1740    3.2470   12.4720 C.3   440  PEP440      0.0450
      6  O2        28.3120    4.9640   13.6730 O.3   440  PEP440     -0.2611
      7  P         27.7470    6.3950   13.2520 P.3   440  PEP440      0.5330
      8  O1P       28.3650    6.9200   12.0340 O.2   440  PEP440     -0.2224
      9  O2P       27.9680    7.3340   14.5230 O.3   440  PEP440     -0.1145
     10  O3P       26.1670    6.2130   13.1240 O.3   440  PEP440     -0.1145
@<TRIPOS>BOND
     1     2     1   ar
     2     1     3   ar
     3     1     4    1
     4     8     7    2
     5     5     4    1
     6     4     6    1
     7    10     7    1
     8     7     6    1
     9     7     9    1
