@<TRIPOS>MOLECULE
2al2_2PG_A_1.pdb
 11 10 0 0 0
SMALL
GASTEIGER

@<TRIPOS>ATOM
      1  C1        29.3120    3.8560   11.4860 C.2   441  2PG441      0.3946
      2  C2        27.9070    4.2210   11.9740 C.3   441  2PG441      0.2610
      3  C3        27.0640    2.9520   12.1100 C.3   441  2PG441      0.2237
      4  P         27.6210    6.4190   13.3980 P.3   441  2PG441      0.5331
      5  O1        30.2550    4.6280   11.6760 O.co2 441  2PG441     -0.2428
      6  O2        29.4850    2.8670   10.7710 O.co2 441  2PG441     -0.2428
      7  O3        27.5030    2.1990   13.2430 O.3   441  2PG441     -0.2170
      8  O1P       27.9990    4.8760   13.2420 O.3   441  2PG441     -0.2583
      9  O2P       27.8180    6.9200   14.7580 O.3   441  2PG441     -0.1145
     10  O3P       26.1130    6.5440   12.8910 O.3   441  2PG441     -0.1145
     11  O4P       28.5020    7.1880   12.3130 O.2   441  2PG441     -0.2224
@<TRIPOS>BOND
     1     6     1   ar
     2     1     5   ar
     3     1     2    1
     4     2     3    1
     5     2     8    1
     6     3     7    1
     7    11     4    2
     8    10     4    1
     9     8     4    1
    10     4     9    1
