@<TRIPOS>MOLECULE
2al4_CX6_C_1.pdb
 18 21 0 0 0
SMALL
GASTEIGER

@<TRIPOS>ATOM
      1  O1        34.1980  -12.4230   18.5600 O.3   801  CX6801     -0.4601
      2  O2        30.4160  -12.6060   19.9070 O.2   801  CX6801     -0.2697
      3  N1        32.0440  -11.4200   18.8160 N.am  801  CX6801     -0.2436
      4  C1        33.2610  -11.4590   18.0080 C.3   801  CX6801      0.2467
      5  C2        33.7890  -10.0460   18.0560 C.3   801  CX6801      0.0674
      6  C3        33.0760   -9.3910   19.2000 C.3   801  CX6801      0.0272
      7  C4        31.7010  -10.0760   19.2750 C.3   801  CX6801      0.0971
      8  C5        31.4580  -12.5910   19.2640 C.2   801  CX6801      0.2545
      9  C6        32.2180  -13.8230   18.9110 C.ar  801  CX6801      0.0908
     10  C7        33.6130  -13.6860   18.6200 C.ar  801  CX6801      0.1481
     11  C8        34.4120  -14.8260   18.3870 C.ar  801  CX6801      0.0771
     12  C9        33.8210  -16.0960   18.4410 C.ar  801  CX6801      0.1754
     13  C10       32.4520  -16.2560   18.7150 C.ar  801  CX6801      0.1727
     14  C11       31.6500  -15.1120   18.9500 C.ar  801  CX6801      0.0476
     15  O3        34.6440  -17.2090   18.2080 O.3   801  CX6801     -0.4683
     16  O4        31.8300  -17.4990   18.7760 O.3   801  CX6801     -0.4684
     17  C12       32.5840  -18.5390   18.0840 C.3   801  CX6801      0.2526
     18  C13       34.0550  -18.5170   18.4200 C.3   801  CX6801      0.2526
@<TRIPOS>BOND
     1     4     5    1
     2     4     1    1
     3     4     3    1
     4     5     6    1
     5    17    18    1
     6    17    16    1
     7    15    18    1
     8    15    12    1
     9    11    12   ar
    10    11    10   ar
    11    12    13   ar
    12     1    10    1
    13    10     9   ar
    14    13    16    1
    15    13    14   ar
    16     3     8   am
    17     3     7    1
    18     9    14   ar
    19     9     8    1
    20     6     7    1
    21     8     2    2
