@<TRIPOS>MOLECULE
2al4_QUS_A_1.pdb
 13 13 0 0 0
SMALL
GASTEIGER

@<TRIPOS>ATOM
      1  C01       48.1850  -14.8930   21.1540 C.2   807  QUS807      0.3838
      2  C02       48.0880  -14.6060   19.6530 C.3   807  QUS807      0.2184
      3  C03       49.5110  -14.2460   19.1990 C.3   807  QUS807      0.1793
      4  C04       49.8670  -15.9970   17.3590 C.1   807  QUS807      0.3141
      5  C05       49.2960  -14.6340   15.6510 C.1   807  QUS807      0.4071
      6  NP3       47.0650  -13.5210   19.5260 N.3   807  QUS807     -0.1188
      7  N14       49.7830  -14.7000   17.8230 N.am  807  QUS807     -0.0527
      8  N15       49.5710  -15.9170   16.0380 N.2   807  QUS807     -0.2120
      9  O16       47.4320  -14.2800   21.9340 O.co2 807  QUS807     -0.2440
     10  O17       49.0250  -15.7470   21.5230 O.co2 807  QUS807     -0.2440
     11  O18       50.1510  -16.9530   18.0420 O.2   807  QUS807     -0.1893
     12  O19       48.9910  -14.1840   14.5570 O.2   807  QUS807     -0.1667
     13  O20       49.4120  -13.8300   16.7450 O.3   807  QUS807     -0.2752
@<TRIPOS>BOND
     1    12     5    2
     2     5     8    2
     3     5    13    1
     4     8     4    2
     5    13     7    1
     6     4     7   am
     7     4    11    2
     8     7     3    1
     9     3     2    1
    10     6     2    1
    11     2     1    1
    12     1    10   ar
    13     1     9   ar
