@<TRIPOS>MOLECULE
2al5_4MP_A_1.pdb
 16 17 0 0 0
SMALL
GASTEIGER

@<TRIPOS>ATOM
      1  O1        21.7420   78.1590   29.7690 O.2   801  4MP801     -0.2695
      2  O2        17.9840   80.0620   29.0590 O.2   801  4MP801     -0.2695
      3  O3        20.6390   76.7420   24.2610 O.3   801  4MP801     -0.4714
      4  N1        19.7830   79.3420   30.2670 N.am  801  4MP801     -0.2186
      5  C1        21.0340   78.7310   30.5450 C.2   801  4MP801      0.2551
      6  C2        21.3090   78.9340   31.9970 C.2   801  4MP801      0.0555
      7  C3        20.2000   79.6590   32.5630 C.2   801  4MP801      0.0004
      8  C4        19.2630   80.0250   31.4820 C.3   801  4MP801      0.1279
      9  C5        19.0360   79.4380   29.0520 C.2   801  4MP801      0.2552
     10  C6        19.4730   78.7470   27.7870 C.ar  801  4MP801      0.0542
     11  C7        19.4950   77.3230   27.6850 C.ar  801  4MP801      0.0076
     12  C8        19.8960   76.6950   26.4790 C.ar  801  4MP801      0.0370
     13  C9        20.2800   77.4770   25.3580 C.ar  801  4MP801      0.1387
     14  C10       20.2590   78.9080   25.4580 C.ar  801  4MP801      0.0370
     15  C11       19.8570   79.5380   26.6700 C.ar  801  4MP801      0.0076
     16  C12       21.0520   77.4170   23.0420 C.3   801  4MP801      0.2525
@<TRIPOS>BOND
     1    16     3    1
     2     3    13    1
     3    13    14   ar
     4    13    12   ar
     5    14    15   ar
     6    12    11   ar
     7    15    10   ar
     8    11    10   ar
     9    10     9    1
    10     9     2    2
    11     9     4   am
    12     1     5    2
    13     4     5   am
    14     4     8    1
    15     5     6    1
    16     8     7    1
    17     6     7    2
