@<TRIPOS>MOLECULE
2al5_FWD_A_1.pdb
 15 15 0 0 0
SMALL
GASTEIGER

@<TRIPOS>ATOM
      1  N1        20.6200   61.7740   28.7660 N.am  901  FWD901     -0.1990
      2  C2        21.1390   61.6000   27.4630 C.1   901  FWD901      0.2828
      3  O2        20.4630   61.5270   26.4690 O.2   901  FWD901     -0.1919
      4  N3        22.5480   61.5090   27.4200 N.2   901  FWD901     -0.2430
      5  C4        23.4370   61.5780   28.4750 C.1   901  FWD901      0.2454
      6  O4        24.6420   61.4710   28.3450 O.2   901  FWD901     -0.2062
      7  C5        22.7720   61.7620   29.8090 C.2   901  FWD901      0.2498
      8  F5        23.5570   61.8630   30.9020 F     901  FWD901     -0.1891
      9  C6        21.4210   61.8750   29.8600 C.2   901  FWD901      0.1198
     10  C7        19.1740   61.9480   28.9370 C.3   901  FWD901      0.1396
     11  C8        18.6210   63.2550   28.3840 C.3   901  FWD901      0.2151
     12  N8        18.9270   64.3890   29.3200 N.3   901  FWD901     -0.1189
     13  C9        17.1310   63.2100   28.0560 C.2   901  FWD901      0.3836
     14  O91       16.4070   64.0560   28.5290 O.co2 901  FWD901     -0.2440
     15  O92       16.7790   62.2140   27.3260 O.co2 901  FWD901     -0.2440
@<TRIPOS>BOND
     1     3     2    2
     2    15    13   ar
     3     4     2    2
     4     4     5    2
     5     2     1   am
     6    13    11    1
     7    13    14   ar
     8     6     5    2
     9    11    10    1
    10    11    12    1
    11     5     7    1
    12     1    10    1
    13     1     9    1
    14     7     9    2
    15     7     8    1
