@<TRIPOS>MOLECULE
2al7_GDP_A_1.pdb
 28 30 0 0 0
SMALL
GASTEIGER

@<TRIPOS>ATOM
      1  PB         1.7230    1.3010    5.6340 P.3   201  GDP201      0.5373
      2  O1B        0.5040    2.0550    6.0420 O.3   201  GDP201     -0.1143
      3  O2B        2.0580    0.1420    6.5400 O.3   201  GDP201     -0.1143
      4  O3B        2.9730    2.1360    5.4200 O.2   201  GDP201     -0.2221
      5  O3A        1.4370    0.5910    4.2170 O.3   201  GDP201     -0.2261
      6  PA         0.3110    0.9610    3.1490 P.3   201  GDP201      0.2231
      7  O1A       -1.0710    0.5520    3.5160 O.3   201  GDP201     -0.4370
      8  O2A        0.5660    2.3930    2.7890 O.2   201  GDP201     -0.5169
      9  O5'        0.7690   -0.0110    1.9430 O.3   201  GDP201     -0.3111
     10  C5'        2.0830    0.1010    1.3960 C.3   201  GDP201      0.1813
     11  C4'        2.0410   -0.4190   -0.0450 C.3   201  GDP201      0.1799
     12  O4'        1.7500   -1.8140   -0.0120 O.3   201  GDP201     -0.3326
     13  C3'        0.9530    0.2020   -0.9050 C.3   201  GDP201      0.2158
     14  O3'        1.4680    0.3060   -2.2460 O.3   201  GDP201     -0.2175
     15  C2'       -0.1440   -0.8330   -0.8740 C.3   201  GDP201      0.2310
     16  O2'       -0.9960   -0.7470   -2.0070 O.3   201  GDP201     -0.2158
     17  C1'        0.6600   -2.1320   -0.8330 C.3   201  GDP201      0.2293
     18  N9        -0.0890   -3.2470   -0.2350 N.pl3 201  GDP201     -0.2354
     19  C8        -0.7820   -3.2410    0.9260 C.3   201  GDP201      0.2246
     20  N7        -1.3440   -4.4460    1.1630 N.2   201  GDP201     -0.2322
     21  C5        -1.0240   -5.2490    0.1180 C.2   201  GDP201      0.2182
     22  C6        -1.2910   -6.6400   -0.3000 C.1   201  GDP201      0.2372
     23  O6        -1.9820   -7.4000    0.3920 O.2   201  GDP201     -0.2069
     24  N1        -0.7390   -7.0830   -1.4600 N.2   201  GDP201     -0.2485
     25  C2         0.0030   -6.2900   -2.2520 C.1   201  GDP201      0.2531
     26  N2         0.5030   -6.8010   -3.4010 N.pl3 201  GDP201     -0.0226
     27  N3         0.2790   -4.9870   -1.9470 N.2   201  GDP201     -0.3074
     28  C4        -0.1870   -4.4480   -0.7920 C.2   201  GDP201      0.2300
@<TRIPOS>BOND
     1    26    25    1
     2    25    27    2
     3    25    24    2
     4    14    13    1
     5    16    15    1
     6    27    28    2
     7    24    22    2
     8    13    15    1
     9    13    11    1
    10    15    17    1
    11    17    18    1
    12    17    12    1
    13    28    18    1
    14    28    21    1
    15    22    21    1
    16    22    23    2
    17    18    19    1
    18    11    12    1
    19    11    10    1
    20    21    20    2
    21    19    20    1
    22    10     9    1
    23     9     6    1
    24     8     6    2
    25     6     7    1
    26     6     5    1
    27     5     1    1
    28     4     1    2
    29     1     2    1
    30     1     3    1
