@<TRIPOS>MOLECULE
2all_HEM_X_1.pdb
 43 50 0 0 0
SMALL
GASTEIGER

@<TRIPOS>ATOM
      1 FE         24.1440   78.7740   27.7050 Fe    201  HEM201      0.0000
      2  CHA       26.5910   76.4710   28.0460 C.2   201  HEM201      0.0000
      3  CHB       24.9660   80.1520   30.6890 C.2   201  HEM201      0.0000
      4  CHC       22.0490   81.4070   27.1200 C.2   201  HEM201      0.0000
      5  CHD       22.7710   77.0440   25.0990 C.2   201  HEM201      0.0000
      6  NA        25.5200   78.3970   29.0840 N.2   201  HEM201      0.0000
      7  C1A       26.4370   77.3840   29.0530 C.2   201  HEM201      0.0000
      8  C2A       27.2180   77.4010   30.2700 C.2   201  HEM201      0.0000
      9  C3A       26.7570   78.3990   30.9790 C.2   201  HEM201      0.0000
     10  C4A       25.6820   79.0560   30.2670 C.2   201  HEM201      0.0000
     11  CMA       27.2720   78.8650   32.3740 C.3   201  HEM201      0.0000
     12  CAA       28.4180   76.4380   30.5930 C.3   201  HEM201      0.0000
     13  CBA       29.7180   77.0850   30.0840 C.3   201  HEM201      0.0000
     14  CGA       30.9150   76.1770   30.2970 C.2   201  HEM201      0.0000
     15  O1A       31.5190   75.6510   29.3250 O.co2 201  HEM201      0.0000
     16  O2A       31.2040   75.9570   31.4910 O.co2 201  HEM201      0.0000
     17  NB        23.6460   80.4470   28.6890 N.ar  201  HEM201      0.0000
     18  C1B       24.0800   80.8280   29.9390 C.ar  201  HEM201      0.0000
     19  C2B       23.5640   82.1500   30.2520 C.ar  201  HEM201      0.0000
     20  C3B       22.7670   82.5260   29.2290 C.ar  201  HEM201      0.0000
     21  C4B       22.8130   81.4470   28.2390 C.ar  201  HEM201      0.0000
     22  CMB       23.7360   82.8290   31.6090 C.3   201  HEM201      0.0000
     23  CAB       21.9410   83.7940   29.0290 C.2   201  HEM201      0.0000
     24  CBB       22.4800   84.9900   29.3370 C.2   201  HEM201      0.0000
     25  NC        22.6410   79.1320   26.3910 N.2   201  HEM201      0.0000
     26  C1C       21.9440   80.2880   26.3030 C.2   201  HEM201      0.0000
     27  C2C       21.1220   80.1860   25.1370 C.2   201  HEM201      0.0000
     28  C3C       21.2870   78.9730   24.5920 C.2   201  HEM201      0.0000
     29  C4C       22.2710   78.2790   25.3770 C.2   201  HEM201      0.0000
     30  CMC       20.2150   81.3170   24.6700 C.3   201  HEM201      0.0000
     31  CAC       20.6180   78.3510   23.3370 C.2   201  HEM201      0.0000
     32  CBC       19.9570   79.0140   22.4270 C.2   201  HEM201      0.0000
     33  ND        24.6060   77.0720   26.7810 N.ar  201  HEM201      0.0000
     34  C1D       23.9080   76.5430   25.6870 C.ar  201  HEM201      0.0000
     35  C2D       24.6270   75.3690   25.2350 C.ar  201  HEM201      0.0000
     36  C3D       25.7900   75.1690   26.1040 C.ar  201  HEM201      0.0000
     37  C4D       25.7240   76.2840   27.0250 C.ar  201  HEM201      0.0000
     38  CMD       24.2140   74.5230   24.0350 C.3   201  HEM201      0.0000
     39  CAD       26.8600   74.1120   25.9330 C.3   201  HEM201      0.0000
     40  CBD       27.9680   74.6920   25.0710 C.3   201  HEM201      0.0000
     41  CGD       29.1580   73.7870   24.9230 C.2   201  HEM201      0.0000
     42  O1D       29.8110   73.8600   23.8450 O.co2 201  HEM201      0.0000
     43  O2D       29.5040   73.0340   25.8540 O.co2 201  HEM201      0.0000
@<TRIPOS>BOND
     1    32    31    2
     2    31    28    1
     3    42    41   ar
     4    38    35    1
     5    28    27    2
     6    28    29    1
     7    30    27    1
     8    41    40    1
     9    41    43   ar
    10    40    39    1
    11     5    29    1
    12     5    34    2
    13    27    26    1
    14    35    34   ar
    15    35    36   ar
    16    29    25    2
    17    34    33   ar
    18    39    36    1
    19    36    37   ar
    20    26    25    1
    21    26     4    2
    22    25     1    1
    23    33    37   ar
    24    33     1    1
    25    37     2    2
    26     4    21    1
    27     1    17    1
    28     1     6    1
    29     2     7    1
    30    21    17   ar
    31    21    20   ar
    32    17    18   ar
    33    23    20    1
    34    23    24    2
    35     7     6    2
    36     7     8    1
    37     6    10    1
    38    20    19   ar
    39    15    14   ar
    40    18    19   ar
    41    18     3    1
    42    13    14    1
    43    13    12    1
    44    19    22    1
    45    10     3    2
    46    10     9    1
    47     8    12    1
    48     8     9    2
    49    14    16   ar
    50     9    11    1
