@<TRIPOS>MOLECULE
2alu_MAN_A_1.pdb
 11 11 0 0 0
SMALL
GASTEIGER

@<TRIPOS>ATOM
      1  C1        21.7820    1.3850   -6.0190 C.3     9  MAN9        0.1777
      2  C2        20.7650    0.5010   -5.2990 C.3     9  MAN9        0.2141
      3  C3        20.8190   -0.9570   -5.7750 C.3     9  MAN9        0.2173
      4  C4        21.9580   -1.2520   -6.7690 C.3     9  MAN9        0.2142
      5  C5        22.1410   -0.1540   -7.8210 C.3     9  MAN9        0.1810
      6  C6        21.3970   -0.5320   -9.1010 C.3     9  MAN9        0.2141
      7  O2        19.4600    1.0140   -5.4800 O.3     9  MAN9       -0.2176
      8  O3        19.5740   -1.3780   -6.3070 O.3     9  MAN9       -0.2175
      9  O4        23.1380   -1.6580   -6.0580 O.3     9  MAN9       -0.2176
     10  O5        21.6710    1.1180   -7.4010 O.3     9  MAN9       -0.3481
     11  O6        20.2680    0.2970   -9.2720 O.3     9  MAN9       -0.2176
@<TRIPOS>BOND
     1    11     6    1
     2     6     5    1
     3     5    10    1
     4     5     4    1
     5    10     1    1
     6     4     9    1
     7     4     3    1
     8     8     3    1
     9     1     2    1
    10     3     2    1
    11     7     2    1
