@<TRIPOS>MOLECULE
2alw_MNM_A_1.pdb
 11 11 0 0 0
SMALL
GASTEIGER

@<TRIPOS>ATOM
      1  C1        32.3870   66.3340    7.8490 C.3   4001  MNM4001     0.2291
      2  C2        32.1140   65.7290    9.2440 C.3   4001  MNM4001     0.2586
      3  C3        31.2040   66.1610    6.9160 C.3   4001  MNM4001     0.1901
      4  O4        33.5420   65.8350    7.1670 O.3   4001  MNM4001    -0.2161
      5  O5        33.2440   65.0570    9.7380 O.3   4001  MNM4001    -0.2007
      6  N6        30.9580   64.8120    9.1390 N.3   4001  MNM4001    -0.1868
      7  O7        31.3880   67.1150    5.8700 O.3   4001  MNM4001    -0.2201
      8  C8        29.8280   66.4720    7.5440 C.3   4001  MNM4001     0.0836
      9  C9        28.6300   66.3510    6.5980 C.3   4001  MNM4001     0.1861
     10  C10       29.6950   65.4140    8.6530 C.3   4001  MNM4001     0.0966
     11  O11       27.4210   66.5640    7.3160 O.3   4001  MNM4001    -0.2203
@<TRIPOS>BOND
     1     7     3    1
     2     9    11    1
     3     9     8    1
     4     3     8    1
     5     3     1    1
     6     4     1    1
     7     8    10    1
     8     1     2    1
     9    10     6    1
    10     6     2    1
    11     2     5    1
