@<TRIPOS>MOLECULE
2aly_YSA_A_1.pdb
 35 38 0 0 0
SMALL
GASTEIGER

@<TRIPOS>ATOM
      1  CD1       21.0260   66.4670   17.2440 C.ar  999  YSA999     -0.0009
      2  CE1       22.3480   66.9330   17.0260 C.ar  999  YSA999      0.0417
      3  CZ        23.4160   66.0150   16.8380 C.ar  999  YSA999      0.1957
      4  OH        24.6440   66.5010   16.6380 O.3   999  YSA999     -0.2866
      5  CE2       23.1480   64.6230   16.8650 C.ar  999  YSA999      0.0417
      6  CD2       21.8350   64.1490   17.0810 C.ar  999  YSA999     -0.0009
      7  CG        20.7450   65.0580   17.2770 C.ar  999  YSA999     -0.0200
      8  CB        19.3880   64.5600   17.5160 C.3   999  YSA999      0.0548
      9  CA        19.1150   64.1410   18.9760 C.3   999  YSA999      0.1753
     10  N         19.9860   63.0590   19.4020 N.3   999  YSA999     -0.1226
     11  C         17.6560   63.7700   19.0540 C.2   999  YSA999      0.2801
     12  O         17.3550   62.8590   19.6310 O.2   999  YSA999     -0.2701
     13  NAT       16.7330   64.6810   18.3340 N.am  999  YSA999     -0.0576
     14  SBI       15.1970   64.2110   18.4390 S.3   999  YSA999      0.0852
     15  OAD       14.7720   63.8650   19.8090 O.3   999  YSA999     -0.0508
     16  OAE       14.4080   65.2630   17.8160 O.3   999  YSA999     -0.0508
     17  O5'       15.1390   62.9180   17.4720 O.3   999  YSA999     -0.2230
     18  C5'       15.6070   62.9950   16.1000 C.3   999  YSA999      0.2064
     19  C4'       14.6180   62.3620   15.0980 C.3   999  YSA999      0.1842
     20  O4'       13.9710   61.2320   15.7600 O.3   999  YSA999     -0.3135
     21  C3'       13.4840   63.2540   14.6930 C.3   999  YSA999      0.2185
     22  O3'       13.8400   64.1540   13.6570 O.3   999  YSA999     -0.2174
     23  C2'       12.3350   62.2970   14.3810 C.3   999  YSA999      0.2570
     24  O2'       12.1530   62.1040   12.9850 O.3   999  YSA999     -0.2130
     25  C1'       12.6860   61.0120   15.1510 C.3   999  YSA999      0.3186
     26  N9        11.7840   60.7060   16.3330 N.pl3 999  YSA999     -0.1439
     27  C8        11.8000   61.3420   17.5690 C.3   999  YSA999      0.3377
     28  N7        10.9520   60.9330   18.4450 N.2   999  YSA999     -0.2095
     29  C5        10.2810   59.9260   17.7680 C.2   999  YSA999      0.2526
     30  C4        10.7700   59.7620   16.4610 C.2   999  YSA999      0.3518
     31  N3        10.3650   58.8770   15.4950 N.2   999  YSA999     -0.0055
     32  C2         9.3490   58.0760   15.9250 C.3   999  YSA999      0.5254
     33  N1         8.7490   58.0910   17.1660 N.2   999  YSA999      0.0021
     34  C6         9.1870   59.0050   18.1200 C.2   999  YSA999      0.4393
     35  N6         8.6000   59.0270   19.3530 N.pl3 999  YSA999      0.2180
@<TRIPOS>BOND
     1    24    23    1
     2    22    21    1
     3    23    21    1
     4    23    25    1
     5    21    19    1
     6    19    20    1
     7    19    18    1
     8    25    20    1
     9    25    26    1
    10    31    32    1
    11    31    30    2
    12    32    33    1
    13    18    17    1
    14    26    30    1
    15    26    27    1
    16    30    29    1
    17     4     3    1
    18     3     5   ar
    19     3     2   ar
    20     5     6   ar
    21     2     1   ar
    22     6     7   ar
    23    33    34    2
    24     1     7   ar
    25     7     8    1
    26    17    14    1
    27     8     9    1
    28    27    28    1
    29    29    34    1
    30    29    28    2
    31    16    14    1
    32    34    35    1
    33    13    14    1
    34    13    11   am
    35    14    15    1
    36     9    11    1
    37     9    10    1
    38    11    12    2
