@<TRIPOS>MOLECULE
2alz_DCP_A_1.pdb
 28 29 0 0 0
SMALL
GASTEIGER

@<TRIPOS>ATOM
      1  N1         1.6690   25.2900   19.3620 N.am  875  DCP875     -0.1802
      2  C2         1.0170   26.2660   20.0890 C.1   875  DCP875      0.2756
      3  N3         0.3090   27.2720   19.4670 N.2   875  DCP875     -0.3024
      4  C4         0.2160   27.3580   18.0850 C.2   875  DCP875      0.2346
      5  C5         0.9620   26.4350   17.3320 C.2   875  DCP875      0.0687
      6  C6         1.5730   25.3450   18.0060 C.2   875  DCP875      0.0835
      7  O2         1.0190   26.1860   21.3160 O.2   875  DCP875     -0.1925
      8  N4        -0.5480   28.3460   17.5750 N.pl3 875  DCP875     -0.0921
      9  C1'        2.5010   24.3350   20.1630 C.3   875  DCP875      0.2090
     10  C2'        1.7650   23.0090   20.3700 C.3   875  DCP875      0.0874
     11  C3'        2.4720   21.9940   19.4190 C.3   875  DCP875      0.1857
     12  C4'        3.7870   22.7150   19.0000 C.3   875  DCP875      0.1773
     13  O4'        3.6300   24.0520   19.3410 O.3   875  DCP875     -0.3339
     14  O3'        2.7240   20.7630   20.0370 O.3   875  DCP875     -0.2203
     15  C5'        4.2530   22.5030   17.5840 C.3   875  DCP875      0.1812
     16  O5'        3.3820   23.1070   16.6090 O.3   875  DCP875     -0.3112
     17  PA         2.8910   22.2430   15.3480 P.3   875  DCP875      0.2189
     18  O1A        3.9310   21.4130   14.8840 O.3   875  DCP875     -0.4371
     19  O2A        2.0220   22.9700   14.3430 O.2   875  DCP875     -0.5170
     20  O3A        1.8950   21.1100   15.9760 O.3   875  DCP875     -0.2700
     21  PB         2.2600   19.6000   16.2750 P.3   875  DCP875      0.2277
     22  O1B        1.8430   19.4230   17.6510 O.3   875  DCP875     -0.4368
     23  O2B        3.7660   19.1670   16.3470 O.2   875  DCP875     -0.5168
     24  O3B        1.4650   18.6620   15.2810 O.3   875  DCP875     -0.2258
     25  PG         1.9640   17.9620   13.9290 P.3   875  DCP875      0.5373
     26  O1G        3.2360   18.6010   13.3330 O.3   875  DCP875     -0.1143
     27  O2G        0.6580   18.1370   13.0260 O.2   875  DCP875     -0.2221
     28  O3G        2.3200   16.5130   14.4860 O.3   875  DCP875     -0.1143
@<TRIPOS>BOND
     1    27    25    2
     2    26    25    1
     3    25    28    1
     4    25    24    1
     5    19    17    2
     6    18    17    1
     7    24    21    1
     8    17    20    1
     9    17    16    1
    10    20    21    1
    11    21    23    2
    12    21    22    1
    13    16    15    1
    14     5     6    2
    15     5     4    1
    16     8     4    1
    17    15    12    1
    18     6     1    1
    19     4     3    2
    20    12    13    1
    21    12    11    1
    22    13     9    1
    23     1     2   am
    24     1     9    1
    25    11    14    1
    26    11    10    1
    27     3     2    2
    28     2     7    2
    29     9    10    1
