@<TRIPOS>MOLECULE
2am1_1LG_A_1.pdb
 31 34 0 0 0
SMALL
GASTEIGER

@<TRIPOS>ATOM
      1  C4        11.5680   46.4530   55.3810 C.3   1000  1LG1000     0.0273
      2  C5        14.6700   44.8410   53.8220 C.ar  1000  1LG1000     0.1120
      3  C6        14.3680   45.4210   56.1870 C.1   1000  1LG1000     0.1019
      4  C8        10.9550   46.1540   52.4260 C.3   1000  1LG1000     0.0327
      5  C13       16.5720   43.7390   52.8740 C.2   1000  1LG1000     0.2703
      6  C17       18.3420   42.3170   54.1080 C.ar  1000  1LG1000     0.0630
      7  C22       20.6910   42.5100   53.3390 C.ar  1000  1LG1000     0.0771
      8  C28       23.4070   43.3850   49.5310 C.3   1000  1LG1000     0.1279
      9  C1        12.5640   45.8460   54.4010 C.ar  1000  1LG1000    -0.0088
     10  C2        13.9060   45.3520   54.8150 C.ar  1000  1LG1000     0.0860
     11  C3        12.2740   45.7120   53.0500 C.ar  1000  1LG1000     0.0052
     12  S7        13.7060   44.9740   52.3510 S.2   1000  1LG1000    -0.0744
     13  C9        10.1030   46.3400   54.8910 C.3   1000  1LG1000     0.0051
     14  N10       15.9320   44.3280   53.9170 N.am  1000  1LG1000    -0.1681
     15  N11       14.7370   45.4690   57.2830 N.1   1000  1LG1000    -0.1908
     16  C12        9.9650   46.8500   53.4210 C.3   1000  1LG1000     0.0055
     17  C14       17.9550   43.2620   53.0860 C.ar  1000  1LG1000     0.0673
     18  O15       16.0510   43.6290   51.7450 O.2   1000  1LG1000    -0.2680
     19  C16       18.9260   43.7920   52.2170 C.ar  1000  1LG1000     0.0262
     20  C18       20.2710   43.4330   52.3300 C.ar  1000  1LG1000     0.1329
     21  C19       19.7220   41.9520   54.2280 C.ar  1000  1LG1000     0.0243
     22 CL20       17.1920   41.6230   55.2020 Cl    1000  1LG1000    -0.0821
     23  S21       21.4620   44.1650   51.1550 S.O2  1000  1LG1000     0.0643
     24  N23       22.3910   42.8510   50.4710 N.3   1000  1LG1000    -0.1504
     25  O24       22.3510   45.0410   51.8710 O.2   1000  1LG1000    -0.1527
     26  O25       20.7710   44.8860   50.1300 O.2   1000  1LG1000    -0.1527
     27 CL26       22.3770   42.0700   53.4870 Cl    1000  1LG1000    -0.0808
     28  C27       21.4890   41.9180   49.7510 C.3   1000  1LG1000     0.1279
     29  C29       22.3170   40.7510   49.1590 C.3   1000  1LG1000     0.1613
     30  C30       24.2350   42.2250   48.9220 C.3   1000  1LG1000     0.1613
     31  O31       23.7390   40.9410   49.3770 O.3   1000  1LG1000    -0.3507
@<TRIPOS>BOND
     1    30    31    1
     2    30     8    1
     3    29    31    1
     4    29    28    1
     5     8    24    1
     6    28    24    1
     7    26    23    2
     8    24    23    1
     9    23    25    2
    10    23    20    1
    11    18     5    2
    12    19    20   ar
    13    19    17   ar
    14    20     7   ar
    15    12    11   ar
    16    12     2   ar
    17     4    11    1
    18     4    16    1
    19     5    17    1
    20     5    14   am
    21    11     9   ar
    22    17     6   ar
    23     7    27    1
    24     7    21   ar
    25    16    13    1
    26     2    14    1
    27     2    10   ar
    28     6    21   ar
    29     6    22    1
    30     9    10   ar
    31     9     1    1
    32    10     3    1
    33    13     1    1
    34     3    15    3
