@<TRIPOS>MOLECULE
2am2_2LG_A_1.pdb
 28 30 0 0 0
SMALL
GASTEIGER

@<TRIPOS>ATOM
      1  C4        11.9860   46.5450   55.9120 C.3   1000  2LG1000     0.0276
      2  C6        11.4760   46.4450   53.6050 C.3   1000  2LG1000     0.0330
      3  C7        15.1220   44.7260   54.5920 C.ar  1000  2LG1000     0.1120
      4  C8        14.8400   45.2570   56.9680 C.1   1000  2LG1000     0.1019
      5  C13       18.2250   42.7950   53.9370 C.ar  1000  2LG1000     0.0673
      6  C15       19.2600   43.3190   53.1500 C.ar  1000  2LG1000     0.0253
      7  C17       20.5750   42.8510   53.2700 C.ar  1000  2LG1000     0.1224
      8  C21       20.8880   41.8250   54.1980 C.ar  1000  2LG1000     0.0208
      9  C26       22.3220   41.3530   50.7970 C.3   1000  2LG1000     0.0958
     10  C28       21.5470   41.8520   49.5700 C.3   1000  2LG1000     0.0206
     11  C1        13.1010   45.8600   55.1740 C.ar  1000  2LG1000    -0.0087
     12  C2        12.8120   45.8030   53.8720 C.ar  1000  2LG1000     0.0052
     13  C3        14.3910   45.2640   55.5810 C.ar  1000  2LG1000     0.0860
     14  S5        14.1810   44.9820   53.1210 S.2   1000  2LG1000    -0.0744
     15  C9        10.7810   46.4570   54.9660 C.3   1000  2LG1000     0.0099
     16  N10       16.3430   44.1090   54.7050 N.am  1000  2LG1000    -0.1681
     17  N11       15.2050   45.2590   58.0750 N.1   1000  2LG1000    -0.1908
     18  C12       16.8900   43.3680   53.7300 C.2   1000  2LG1000     0.2703
     19  O14       16.3290   43.1970   52.6520 O.2   1000  2LG1000    -0.2680
     20  C16       18.5080   41.7510   54.8950 C.ar  1000  2LG1000     0.0622
     21  C18       19.8520   41.2730   55.0120 C.ar  1000  2LG1000     0.0129
     22 CL19       17.2650   41.0630   55.9150 Cl    1000  2LG1000    -0.0821
     23  S20       21.8400   43.6260   52.2040 S.O2  1000  2LG1000     0.0633
     24  N22       23.0150   42.4590   51.6020 N.3   1000  2LG1000    -0.1555
     25  O23       22.5550   44.5900   52.9760 O.2   1000  2LG1000    -0.1528
     26  O24       21.1950   44.3070   51.1160 O.2   1000  2LG1000    -0.1528
     27  C25       23.9890   43.2380   50.7450 C.3   1000  2LG1000     0.0958
     28  C27       25.1080   42.3720   50.1430 C.3   1000  2LG1000     0.0206
@<TRIPOS>BOND
     1    10     9    1
     2    28    27    1
     3    27    24    1
     4     9    24    1
     5    26    23    2
     6    24    23    1
     7    23    25    2
     8    23     7    1
     9    19    18    2
    10    14    12   ar
    11    14     3   ar
    12     6     7   ar
    13     6     5   ar
    14     7     8   ar
    15     2    12    1
    16     2    15    1
    17    18     5    1
    18    18    16   am
    19    12    11   ar
    20     5    20   ar
    21     8    21   ar
    22     3    16    1
    23     3    13   ar
    24    20    21   ar
    25    20    22    1
    26    15     1    1
    27    11    13   ar
    28    11     1    1
    29    13     4    1
    30     4    17    3
