@<TRIPOS>MOLECULE
2am3_UPG_A_1.pdb
 36 38 0 0 0
SMALL
GASTEIGER

@<TRIPOS>ATOM
      1  N1        -0.5690   19.4550    6.9750 N.am  449  UPG449     -0.1766
      2  C2        -1.7850   19.8490    6.3810 C.1   449  UPG449      0.2845
      3  N3        -1.7280   21.0320    5.6420 N.2   449  UPG449     -0.2452
      4  C4        -0.5910   21.8510    5.4460 C.1   449  UPG449      0.2182
      5  C5         0.5960   21.3610    6.0970 C.2   449  UPG449      0.1242
      6  C6         0.5820   20.2320    6.8110 C.2   449  UPG449      0.0929
      7  O2        -2.8250   19.2220    6.4830 O.2   449  UPG449     -0.1918
      8  O4        -0.6920   22.8660    4.7710 O.2   449  UPG449     -0.2085
      9  C1C       -0.5300   18.2090    7.7780 C.3   449  UPG449      0.2401
     10  C2C        0.5540   17.1960    7.4620 C.3   449  UPG449      0.2319
     11  O2C        0.2500   16.4010    6.3000 O.3   449  UPG449     -0.2157
     12  C3C        0.6600   16.3870    8.7730 C.3   449  UPG449      0.2158
     13  C4C        0.2990   17.4440    9.8180 C.3   449  UPG449      0.1799
     14  O4C       -0.3970   18.5260    9.1250 O.3   449  UPG449     -0.3320
     15  O3C       -0.2920   15.3350    8.8320 O.3   449  UPG449     -0.2175
     16  C5C        1.4730   18.0430   10.5730 C.3   449  UPG449      0.1813
     17  O5C        2.3590   18.6770    9.6350 O.3   449  UPG449     -0.3112
     18  PA         3.9370   18.6720    9.8530 P.3   449  UPG449      0.2189
     19  O1A        4.6820   19.3110    8.7710 O.2   449  UPG449     -0.5170
     20  O2A        4.3590   17.2860   10.0850 O.3   449  UPG449     -0.4371
     21  O3A        4.1790   19.6110   11.1590 O.3   449  UPG449     -0.2703
     22  PB         4.5390   19.3840   12.6940 P.3   449  UPG449      0.2208
     23  O1B        5.6230   20.2610   13.1360 O.3   449  UPG449     -0.4371
     24  O2B        4.8750   17.9330   12.9230 O.2   449  UPG449     -0.5170
     25  O3B        3.2040   19.9160   13.4970 O.3   449  UPG449     -0.2857
     26  C1'        3.0210   19.9470   14.9300 C.3   449  UPG449      0.2742
     27  C2'        2.6140   18.5510   15.4960 C.3   449  UPG449      0.2409
     28  C3'        1.3660   18.0600   14.7230 C.3   449  UPG449      0.2198
     29  C4'        0.2260   19.0750   14.8840 C.3   449  UPG449      0.2144
     30  C5'        0.6860   20.4740   14.4530 C.3   449  UPG449      0.1835
     31  C6'       -0.4410   21.5010   14.7280 C.3   449  UPG449      0.2142
     32  O2'        3.6420   17.5330   15.3160 O.3   449  UPG449     -0.2149
     33  O3'        0.8890   16.7640   15.1810 O.3   449  UPG449     -0.2174
     34  O4'       -0.9230   18.7400   14.0670 O.3   449  UPG449     -0.2176
     35  O5'        1.9060   20.8570   15.1880 O.3   449  UPG449     -0.3254
     36  O6'       -0.0610   22.8430   14.3420 O.3   449  UPG449     -0.2176
@<TRIPOS>BOND
     1     8     4    2
     2     4     3    2
     3     4     5    1
     4     3     2    2
     5     5     6    2
     6    11    10    1
     7     2     7    2
     8     2     1   am
     9     6     1    1
    10     1     9    1
    11    10     9    1
    12    10    12    1
    13     9    14    1
    14    19    18    2
    15    12    15    1
    16    12    13    1
    17    14    13    1
    18    17    18    1
    19    17    16    1
    20    13    16    1
    21    18    20    1
    22    18    21    1
    23    21    22    1
    24    22    24    2
    25    22    23    1
    26    22    25    1
    27    25    26    1
    28    34    29    1
    29    36    31    1
    30    30    31    1
    31    30    29    1
    32    30    35    1
    33    28    29    1
    34    28    33    1
    35    28    27    1
    36    26    35    1
    37    26    27    1
    38    32    27    1
