@<TRIPOS>MOLECULE
2am4_U2F_A_1.pdb
 36 38 0 0 0
SMALL
GASTEIGER

@<TRIPOS>ATOM
      1  C1         2.8570   20.5620   13.3920 C.3   449  U2F449      0.2764
      2  O1         4.3390   20.1930   13.4440 O.3   449  U2F449     -0.2856
      3  PB         4.8540   19.4600   12.2400 P.3   449  U2F449      0.2208
      4  O1B        6.2360   19.9900   11.9730 O.2   449  U2F449     -0.5170
      5  O2B        4.9730   18.0790   12.7660 O.3   449  U2F449     -0.4371
      6  O3A        4.0350   19.5390   10.9040 O.3   449  U2F449     -0.2703
      7  PA         3.7200   18.5240    9.7620 P.3   449  U2F449      0.2189
      8  O1A        4.0470   17.2030   10.1860 O.3   449  U2F449     -0.4371
      9  O2A        4.5050   19.0630    8.5950 O.2   449  U2F449     -0.5170
     10  O5'        2.1480   18.6230    9.5240 O.3   449  U2F449     -0.3112
     11  C5'        1.2800   18.1470   10.5360 C.3   449  U2F449      0.1813
     12  C4'        0.0470   17.6080    9.7490 C.3   449  U2F449      0.1799
     13  O4'       -0.6530   18.6400    9.0290 O.3   449  U2F449     -0.3320
     14  C1'       -0.7600   18.2440    7.6610 C.3   449  U2F449      0.2401
     15  C2'        0.3770   17.3040    7.3720 C.3   449  U2F449      0.2319
     16  C3'        0.4250   16.5470    8.7030 C.3   449  U2F449      0.2158
     17  O3'       -0.5110   15.4740    8.7220 O.3   449  U2F449     -0.2175
     18  O2'        0.0440   16.5120    6.2820 O.3   449  U2F449     -0.2157
     19  N1        -0.7540   19.4880    6.8680 N.am  449  U2F449     -0.1766
     20  C6'       -1.9790   19.9270    6.2950 C.1   449  U2F449      0.2845
     21  O6'       -3.0160   19.3220    6.4440 O.2   449  U2F449     -0.1918
     22  N3        -1.9890   21.1100    5.5290 N.2   449  U2F449     -0.2452
     23  C7'       -0.8270   21.8560    5.3230 C.1   449  U2F449      0.2182
     24  O7'       -0.8890   22.8040    4.6920 O.2   449  U2F449     -0.2085
     25  C8'        0.3820   21.4210    5.8950 C.2   449  U2F449      0.1242
     26  C9'        0.4260   20.2380    6.6660 C.2   449  U2F449      0.0929
     27  C2         2.2130   21.7220   13.9410 C.3   449  U2F449      0.2498
     28  F1         2.8270   22.8550   13.3520 F     449  U2F449     -0.2290
     29  C3         2.4800   21.8920   15.5030 C.3   449  U2F449      0.2220
     30  O3         2.0010   23.1810   16.2120 O.3   449  U2F449     -0.2172
     31  C4         1.8680   20.6310   16.2410 C.3   449  U2F449      0.2146
     32  O4         2.4130   20.6520   17.6620 O.3   449  U2F449     -0.2176
     33  C5         2.3730   19.2270   15.4630 C.3   449  U2F449      0.1835
     34  C6         1.5830   18.0250   16.0670 C.3   449  U2F449      0.2142
     35  O6         1.9560   16.7720   15.4850 O.3   449  U2F449     -0.2176
     36  O5         2.0690   19.4440   14.0660 O.3   449  U2F449     -0.3253
@<TRIPOS>BOND
     1    24    23    2
     2    23    22    2
     3    23    25    1
     4    22    20    2
     5    25    26    2
     6    18    15    1
     7    20    21    2
     8    20    19   am
     9    26    19    1
    10    19    14    1
    11    15    14    1
    12    15    16    1
    13    14    13    1
    14     9     7    2
    15    16    17    1
    16    16    12    1
    17    13    12    1
    18    10     7    1
    19    10    11    1
    20    12    11    1
    21     7     8    1
    22     7     6    1
    23     6     3    1
    24     4     3    2
    25     3     5    1
    26     3     2    1
    27    28    27    1
    28     1     2    1
    29     1    27    1
    30     1    36    1
    31    27    29    1
    32    36    33    1
    33    33    34    1
    34    33    31    1
    35    35    34    1
    36    29    30    1
    37    29    31    1
    38    31    32    1
