@<TRIPOS>MOLECULE
2am5_UDP_A_1.pdb
 25 26 0 0 0
SMALL
GASTEIGER

@<TRIPOS>ATOM
      1  N1        -0.8030   19.4060    6.8330 N.am  449  UDP449     -0.1766
      2  C2        -2.0210   19.8300    6.2470 C.1   449  UDP449      0.2845
      3  N3        -1.9830   21.0010    5.4990 N.2   449  UDP449     -0.2452
      4  C4        -0.8390   21.8280    5.2520 C.1   449  UDP449      0.2182
      5  C5         0.4990   21.3660    5.9020 C.2   449  UDP449      0.1242
      6  C6         0.3970   20.1110    6.6820 C.2   449  UDP449      0.0929
      7  O2        -3.0870   19.1930    6.3970 O.2   449  UDP449     -0.1918
      8  O4        -0.9650   22.8190    4.5680 O.2   449  UDP449     -0.2085
      9  C1'       -0.8370   18.1770    7.6110 C.3   449  UDP449      0.2401
     10  C2'        0.2590   17.1230    7.3570 C.3   449  UDP449      0.2319
     11  O2'       -0.0490   16.3280    6.2140 O.3   449  UDP449     -0.2157
     12  C3'        0.3570   16.3790    8.6810 C.3   449  UDP449      0.2158
     13  C4'       -0.0350   17.4480    9.7230 C.3   449  UDP449      0.1799
     14  O4'       -0.8790   18.4040    9.0130 O.3   449  UDP449     -0.3320
     15  O3'       -0.5950   15.3090    8.6480 O.3   449  UDP449     -0.2175
     16  C5'        1.0790   18.2290   10.4310 C.3   449  UDP449      0.1813
     17  O5'        2.0610   18.6090    9.5040 O.3   449  UDP449     -0.3111
     18  PA         3.5780   18.5530    9.7540 P.3   449  UDP449      0.2231
     19  O1A        3.9010   17.1460   10.1570 O.3   449  UDP449     -0.4370
     20  O2A        4.2600   19.0780    8.5190 O.2   449  UDP449     -0.5169
     21  O3A        3.7130   19.4840   11.0270 O.3   449  UDP449     -0.2261
     22  PB         4.8990   19.4900   12.0960 P.3   449  UDP449      0.5373
     23  O1B        4.4500   20.5900   13.1450 O.3   449  UDP449     -0.1143
     24  O2B        6.1170   19.8730   11.3240 O.2   449  UDP449     -0.2221
     25  O3B        4.9160   18.1550   12.8240 O.3   449  UDP449     -0.1143
@<TRIPOS>BOND
     1     8     4    2
     2     4     3    2
     3     4     5    1
     4     3     2    2
     5     5     6    2
     6    11    10    1
     7     2     7    2
     8     2     1   am
     9     6     1    1
    10     1     9    1
    11    10     9    1
    12    10    12    1
    13     9    14    1
    14    20    18    2
    15    15    12    1
    16    12    13    1
    17    14    13    1
    18    17    18    1
    19    17    16    1
    20    13    16    1
    21    18    19    1
    22    18    21    1
    23    21    22    1
    24    24    22    2
    25    22    25    1
    26    22    23    1
