@<TRIPOS>MOLECULE
2am9_TES_A_1.pdb
 21 24 0 0 0
SMALL
GASTEIGER

@<TRIPOS>ATOM
      1  C1        26.9610    5.2750    4.7480 C.3   1000  TES1000     0.0084
      2  C2        26.0870    6.5150    5.0500 C.3   1000  TES1000     0.0688
      3  C3        24.7140    6.3800    4.4550 C.2   1000  TES1000     0.1689
      4  O3        24.0440    7.4060    3.9390 O.2   1000  TES1000    -0.2917
      5  C4        24.1250    5.0470    4.4570 C.2   1000  TES1000     0.0109
      6  C5        24.8080    3.9090    4.8030 C.3   1000  TES1000     0.0249
      7  C6        24.0890    2.5690    4.7900 C.3   1000  TES1000     0.0044
      8  C7        24.8770    1.4740    4.0590 C.3   1000  TES1000     0.0003
      9  C8        26.3060    1.3630    4.6670 C.3   1000  TES1000     0.0001
     10  C9        27.0680    2.7200    4.5650 C.3   1000  TES1000     0.0003
     11  C10       26.3230    3.9250    5.2440 C.3   1000  TES1000     0.0043
     12  C11       28.5550    2.7000    5.0980 C.3   1000  TES1000     0.0001
     13  C12       29.3370    1.5340    4.4490 C.3   1000  TES1000     0.0024
     14  C13       28.6170    0.1640    4.6020 C.3   1000  TES1000     0.0282
     15  C14       27.1900    0.2970    3.9730 C.3   1000  TES1000     0.0024
     16  C15       26.6680   -1.1630    3.8940 C.3   1000  TES1000     0.0027
     17  C16       27.9500   -1.9990    3.6690 C.3   1000  TES1000     0.0329
     18  C17       29.1270   -0.9850    3.6840 C.3   1000  TES1000     0.1519
     19  O17       30.3270   -1.5900    4.2060 O.3   1000  TES1000    -0.2232
     20  C18       28.5870   -0.2730    6.1200 C.3   1000  TES1000     0.0025
     21  C19       26.3440    3.8460    6.7980 C.3   1000  TES1000     0.0003
@<TRIPOS>BOND
     1    17    18    1
     2    17    16    1
     3    18    19    1
     4    18    14    1
     5    16    15    1
     6     4     3    1
     7    15    14    1
     8    15     9    1
     9     8     9    1
    10     8     7    1
    11    13    14    1
    12    13    12    1
    13     3     5    2
    14     3     2    1
    15     5     6    1
    16    10     9    1
    17    10    12    1
    18    10    11    1
    19    14    20    1
    20     1     2    1
    21     1    11    1
    22     7     6    1
    23     6    11    1
    24    11    21    1
