@<TRIPOS>MOLECULE
2ama_DHT_A_1.pdb
 21 24 0 0 0
SMALL
GASTEIGER

@<TRIPOS>ATOM
      1  C1        27.3330    5.1460    4.3910 C.3   1001  DHT1001     0.0078
      2  C2        26.4290    6.3160    4.8430 C.3   1001  DHT1001     0.0645
      3  C3        24.9960    6.0700    4.2170 C.2   1001  DHT1001     0.1506
      4  O3        24.6070    7.0270    3.5420 O.2   1001  DHT1001    -0.2961
      5  C4        24.4570    4.9470    4.4700 C.3   1001  DHT1001     0.0645
      6  C5        25.2980    3.7110    3.9910 C.3   1001  DHT1001     0.0073
      7  C6        24.6020    2.3300    4.2660 C.3   1001  DHT1001     0.0004
      8  C7        25.4890    1.1780    3.7360 C.3   1001  DHT1001     0.0000
      9  C8        26.9030    1.1550    4.4180 C.3   1001  DHT1001     0.0001
     10  C9        27.5950    2.5460    4.1760 C.3   1001  DHT1001     0.0000
     11  C10       26.7230    3.7620    4.7090 C.3   1001  DHT1001     0.0008
     12  C11       29.0140    2.4940    4.8300 C.3   1001  DHT1001     0.0001
     13  C12       29.9300    1.3520    4.3990 C.3   1001  DHT1001     0.0024
     14  C13       29.2430   -0.0370    4.5080 C.3   1001  DHT1001     0.0282
     15  C14       27.8190    0.0360    3.8480 C.3   1001  DHT1001     0.0024
     16  C15       27.3370   -1.4250    3.9770 C.3   1001  DHT1001     0.0027
     17  C16       28.6190   -2.2230    3.5900 C.3   1001  DHT1001     0.0329
     18  C17       29.7780   -1.1910    3.6800 C.3   1001  DHT1001     0.1519
     19  O17       30.9260   -1.8170    4.2640 O.3   1001  DHT1001    -0.2232
     20  C18       29.1640   -0.4420    6.0350 C.3   1001  DHT1001     0.0025
     21  C19       26.5610    3.6230    6.2790 C.3   1001  DHT1001     0.0000
@<TRIPOS>BOND
     1     4     3    2
     2    17    18    1
     3    17    16    1
     4    18    19    1
     5    18    14    1
     6     8     7    1
     7     8     9    1
     8    15    16    1
     9    15     9    1
    10    15    14    1
    11     6     7    1
    12     6     5    1
    13     6    11    1
    14    10     9    1
    15    10    11    1
    16    10    12    1
    17     3     5    1
    18     3     2    1
    19     1    11    1
    20     1     2    1
    21    13    14    1
    22    13    12    1
    23    14    20    1
    24    11    21    1
