@<TRIPOS>MOLECULE
2amb_17H_A_1.pdb
 23 26 0 0 0
SMALL
GASTEIGER

@<TRIPOS>ATOM
      1  C2        26.1860    6.5660    4.2300 C.ar  1001  17H1001     0.0417
      2  C4        23.9360    5.3010    4.5210 C.ar  1001  17H1001     0.0375
      3  C7        24.8950    1.5880    4.3350 C.3   1001  17H1001     0.0053
      4  C6        24.1130    2.7540    4.9660 C.3   1001  17H1001     0.0262
      5  C9        27.0300    2.9390    4.5530 C.3   1001  17H1001     0.0436
      6  C11       28.5290    2.8900    4.2100 C.2   1001  17H1001    -0.0266
      7  C1        26.9780    5.4000    4.0800 C.ar  1001  17H1001    -0.0010
      8  C3        24.7530    6.4030    4.2380 C.ar  1001  17H1001     0.1954
      9  C5        24.7280    4.1340    4.6640 C.ar  1001  17H1001    -0.0227
     10  C8        26.3520    1.5620    4.9090 C.3   1001  17H1001     0.0088
     11  C10       26.2640    4.1210    4.4800 C.ar  1001  17H1001    -0.0222
     12  C12       29.3230    1.7300    4.1900 C.2   1001  17H1001    -0.0286
     13  C13       28.7190    0.4120    4.5790 C.3   1001  17H1001     0.0441
     14  C14       27.2050    0.4630    4.2080 C.3   1001  17H1001     0.0067
     15  C15       26.6720   -0.9750    4.3500 C.3   1001  17H1001     0.0029
     16  C16       27.9280   -1.7590    3.8640 C.3   1001  17H1001     0.0307
     17  C17       29.1750   -0.7790    3.7760 C.3   1001  17H1001     0.1299
     18  C18       28.7820    0.2990    6.2170 C.3   1001  17H1001     0.0064
     19  C22       30.1120    0.7600    7.0210 C.3   1001  17H1001     0.0004
     20  C21       30.2000   -1.7920    1.7320 C.3   1001  17H1001     0.0026
     21  C20       29.3560   -0.5200    2.2780 C.3   1001  17H1001     0.0307
     22  O3        24.0530    7.5960    3.9480 O.3   1001  17H1001    -0.2866
     23  O17       30.3170   -1.3240    4.4910 O.3   1001  17H1001    -0.2254
@<TRIPOS>BOND
     1    20    21    1
     2    21    17    1
     3    17    16    1
     4    17    23    1
     5    17    13    1
     6    16    15    1
     7    22     8    1
     8     7     1   ar
     9     7    11   ar
    10    12     6    2
    11    12    13    1
    12    14    15    1
    13    14    13    1
    14    14    10    1
    15     6     5    1
    16     1     8   ar
    17     8     2   ar
    18     3    10    1
    19     3     4    1
    20    11     5    1
    21    11     9   ar
    22     2     9   ar
    23     5    10    1
    24    13    18    1
    25     9     4    1
    26    18    19    1
