@<TRIPOS>MOLECULE
2amc_TYR_A_1.pdb
 13 13 0 0 0
SMALL
GASTEIGER

@<TRIPOS>ATOM
      1  N         19.9710   62.3710   19.6620 N.3   888  TYR888     -0.1205
      2  CA        18.8360   63.3330   19.3950 C.3   888  TYR888      0.1986
      3  C         17.4560   62.7040   19.6540 C.2   888  TYR888      0.3822
      4  O         16.4730   63.3470   19.1770 O.co2 888  TYR888     -0.2440
      5  CB        18.8780   63.8270   17.9300 C.3   888  TYR888      0.0569
      6  CG        20.2280   64.3970   17.5450 C.ar  888  TYR888     -0.0200
      7  CD1       21.3000   63.5470   17.2090 C.ar  888  TYR888     -0.0009
      8  CD2       20.4570   65.7810   17.5860 C.ar  888  TYR888     -0.0009
      9  CE1       22.5700   64.0570   16.9300 C.ar  888  TYR888      0.0417
     10  CE2       21.7220   66.3080   17.3050 C.ar  888  TYR888      0.0417
     11  CZ        22.7770   65.4380   16.9830 C.ar  888  TYR888      0.1957
     12  OH        24.0480   65.9660   16.7410 O.3   888  TYR888     -0.2866
     13  OXT       17.3730   61.6180   20.2900 O.co2 888  TYR888     -0.2440
@<TRIPOS>BOND
     1    12    11    1
     2     9    11   ar
     3     9     7   ar
     4    11    10   ar
     5     7     6   ar
     6    10     8   ar
     7     6     8   ar
     8     6     5    1
     9     5     2    1
    10     4     3   ar
    11     2     3    1
    12     2     1    1
    13     3    13   ar
