@<TRIPOS>MOLECULE
2amm_HEM_X_1.pdb
 43 50 0 0 0
SMALL
GASTEIGER

@<TRIPOS>ATOM
      1 FE         17.2800   13.8810  116.5120 Fe    201  HEM201      0.0000
      2  CHA       17.6610   14.5180  119.7690 C.2   201  HEM201      0.0000
      3  CHB       20.2930   12.2180  116.4650 C.2   201  HEM201      0.0000
      4  CHC       16.6430   12.7560  113.3640 C.2   201  HEM201      0.0000
      5  CHD       14.7230   16.1120  116.2170 C.2   201  HEM201      0.0000
      6  NA        18.7170   13.4860  117.8240 N.2   201  HEM201      0.0000
      7  C1A       18.6560   13.8010  119.1610 C.2   201  HEM201      0.0000
      8  C2A       19.8620   13.2980  119.8290 C.2   201  HEM201      0.0000
      9  C3A       20.6050   12.6630  118.9230 C.2   201  HEM201      0.0000
     10  C4A       19.8970   12.7780  117.6420 C.2   201  HEM201      0.0000
     11  CMA       22.0200   12.0350  119.0780 C.3   201  HEM201      0.0000
     12  CAA       20.1590   13.5250  121.3310 C.3   201  HEM201      0.0000
     13  CBA       19.5040   12.3690  122.1240 C.3   201  HEM201      0.0000
     14  CGA       19.7160   12.4340  123.6190 C.2   201  HEM201      0.0000
     15  O1A       20.9000   12.2540  124.0670 O.co2 201  HEM201      0.0000
     16  O2A       18.7420   12.6610  124.3830 O.co2 201  HEM201      0.0000
     17  NB        18.2390   12.7000  115.2180 N.ar  201  HEM201      0.0000
     18  C1B       19.4910   12.1230  115.3700 C.ar  201  HEM201      0.0000
     19  C2B       19.7400   11.2750  114.2800 C.ar  201  HEM201      0.0000
     20  C3B       18.7510   11.4520  113.4080 C.ar  201  HEM201      0.0000
     21  C4B       17.7470   12.2900  114.0170 C.ar  201  HEM201      0.0000
     22  CMB       21.0830   10.5870  114.0050 C.3   201  HEM201      0.0000
     23  CAB       18.6190   10.8030  112.0420 C.2   201  HEM201      0.0000
     24  CBB       18.8300    9.5110  111.8850 C.2   201  HEM201      0.0000
     25  NC        15.9920   14.4160  115.0500 N.2   201  HEM201      0.0000
     26  C1C       15.8290   13.7640  113.8240 C.2   201  HEM201      0.0000
     27  C2C       14.6110   14.1890  113.1780 C.2   201  HEM201      0.0000
     28  C3C       14.1470   15.2170  113.9460 C.2   201  HEM201      0.0000
     29  C4C       14.9390   15.3060  115.1270 C.2   201  HEM201      0.0000
     30  CMC       14.2440   13.8010  111.7130 C.3   201  HEM201      0.0000
     31  CAC       12.9280   16.1140  113.7010 C.2   201  HEM201      0.0000
     32  CBC       12.1000   15.9440  112.7120 C.2   201  HEM201      0.0000
     33  ND        16.3550   15.1340  117.8040 N.ar  201  HEM201      0.0000
     34  C1D       15.2860   15.9610  117.4670 C.ar  201  HEM201      0.0000
     35  C2D       14.8200   16.5880  118.6920 C.ar  201  HEM201      0.0000
     36  C3D       15.7310   16.0870  119.7910 C.ar  201  HEM201      0.0000
     37  C4D       16.6560   15.2000  119.1480 C.ar  201  HEM201      0.0000
     38  CMD       13.6830   17.5800  118.9300 C.3   201  HEM201      0.0000
     39  CAD       15.6700   16.4500  121.2810 C.3   201  HEM201      0.0000
     40  CBD       14.9040   15.3530  121.9970 C.3   201  HEM201      0.0000
     41  CGD       15.0060   15.4300  123.5290 C.2   201  HEM201      0.0000
     42  O1D       15.6980   16.2830  124.0390 O.co2 201  HEM201      0.0000
     43  O2D       14.3690   14.6300  124.2160 O.co2 201  HEM201      0.0000
@<TRIPOS>BOND
     1    30    27    1
     2    24    23    2
     3    23    20    1
     4    32    31    2
     5    27    26    1
     6    27    28    2
     7     4    26    2
     8     4    21    1
     9    20    21   ar
    10    20    19   ar
    11    31    28    1
    12    26    25    1
    13    28    29    1
    14    22    19    1
    15    21    17   ar
    16    19    18   ar
    17    25    29    2
    18    25     1    1
    19    29     5    1
    20    17    18   ar
    21    17     1    1
    22    18     3    1
    23     5    34    2
    24     3    10    2
    25     1    33    1
    26     1     6    1
    27    34    33   ar
    28    34    35   ar
    29    10     6    1
    30    10     9    1
    31    33    37   ar
    32     6     7    2
    33    35    38    1
    34    35    36   ar
    35     9    11    1
    36     9     8    2
    37    37     2    2
    38    37    36   ar
    39     7     2    1
    40     7     8    1
    41    36    39    1
    42     8    12    1
    43    39    40    1
    44    12    13    1
    45    40    41    1
    46    13    14    1
    47    41    42   ar
    48    41    43   ar
    49    14    15   ar
    50    14    16   ar
