@<TRIPOS>MOLECULE
2amo_HEM_A_1.pdb
 43 50 0 0 0
SMALL
GASTEIGER

@<TRIPOS>ATOM
      1 FE         -0.4030   29.2360    8.9020 Fe    1901  HEM1901     0.0000
      2  CHA        1.6720   31.7750    9.8050 C.2   1901  HEM1901     0.0000
      3  CHB       -0.9690   30.7550    5.8390 C.2   1901  HEM1901     0.0000
      4  CHC       -1.5100   26.3570    7.5050 C.2   1901  HEM1901     0.0000
      5  CHD        0.4840   27.5410   11.7990 C.2   1901  HEM1901     0.0000
      6  NA         0.3230   30.8750    7.9730 N.ar  1901  HEM1901     0.0000
      7  C1A        1.1240   31.8420    8.5120 C.ar  1901  HEM1901     0.0000
      8  C2A        1.2360   32.9710    7.5600 C.ar  1901  HEM1901     0.0000
      9  C3A        0.4680   32.6980    6.5240 C.ar  1901  HEM1901     0.0000
     10  C4A       -0.1110   31.4000    6.7460 C.ar  1901  HEM1901     0.0000
     11  CMA        0.2300   33.6020    5.3560 C.3   1901  HEM1901     0.0000
     12  CAA        2.1420   34.1650    7.5840 C.3   1901  HEM1901     0.0000
     13  CBA        3.5860   33.7320    7.6960 C.3   1901  HEM1901     0.0000
     14  CGA        4.5560   34.8760    7.5120 C.2   1901  HEM1901     0.0000
     15  O1A        5.7800   34.6340    7.5950 O.co2 1901  HEM1901     0.0000
     16  O2A        4.1040   36.0180    7.2790 O.co2 1901  HEM1901     0.0000
     17  NB        -1.1470   28.7200    7.0230 N.2   1901  HEM1901     0.0000
     18  C1B       -1.4570   29.5090    5.9740 C.2   1901  HEM1901     0.0000
     19  C2B       -2.1820   28.8020    4.9600 C.2   1901  HEM1901     0.0000
     20  C3B       -2.2580   27.5270    5.3970 C.2   1901  HEM1901     0.0000
     21  C4B       -1.6210   27.4870    6.6800 C.2   1901  HEM1901     0.0000
     22  CMB       -2.7700   29.3540    3.6430 C.3   1901  HEM1901     0.0000
     23  CAB       -2.7350   26.4540    4.7120 C.2   1901  HEM1901     0.0000
     24  CBB       -4.0130   26.0360    4.8960 C.2   1901  HEM1901     0.0000
     25  NC        -0.5980   27.3120    9.5430 N.ar  1901  HEM1901     0.0000
     26  C1C       -1.0060   26.2430    8.8020 C.ar  1901  HEM1901     0.0000
     27  C2C       -0.8330   24.9770    9.5410 C.ar  1901  HEM1901     0.0000
     28  C3C       -0.3410   25.3230   10.8070 C.ar  1901  HEM1901     0.0000
     29  C4C       -0.1870   26.8030   10.7770 C.ar  1901  HEM1901     0.0000
     30  CMC       -1.0740   23.5810    8.9740 C.3   1901  HEM1901     0.0000
     31  CAC       -0.0590   24.5170   11.9360 C.3   1901  HEM1901     0.0000
     32  CBC       -0.6240   23.2920   12.2840 C.3   1901  HEM1901     0.0000
     33  ND         0.7980   29.6340   10.5420 N.2   1901  HEM1901     0.0000
     34  C1D        0.9400   28.8630   11.7060 C.2   1901  HEM1901     0.0000
     35  C2D        1.7680   29.5440   12.6940 C.2   1901  HEM1901     0.0000
     36  C3D        2.1600   30.6760   12.1120 C.2   1901  HEM1901     0.0000
     37  C4D        1.5370   30.7540   10.7620 C.2   1901  HEM1901     0.0000
     38  CMD        2.0990   29.1340   14.1300 C.3   1901  HEM1901     0.0000
     39  CAD        3.1650   31.6000   12.7250 C.3   1901  HEM1901     0.0000
     40  CBD        4.3890   31.5680   11.8280 C.3   1901  HEM1901     0.0000
     41  CGD        5.6020   32.2530   12.4400 C.2   1901  HEM1901     0.0000
     42  O1D        6.7270   31.7910   12.1760 O.co2 1901  HEM1901     0.0000
     43  O2D        5.4420   33.2420   13.1770 O.co2 1901  HEM1901     0.0000
@<TRIPOS>BOND
     1    22    19    1
     2    23    24    2
     3    23    20    1
     4    19    20    2
     5    19    18    1
     6    11     9    1
     7    20    21    1
     8     3    18    1
     9     3    10    2
    10    18    17    2
    11     9    10   ar
    12     9     8   ar
    13    21    17    1
    14    21     4    2
    15    10     6   ar
    16    17     1    1
    17    16    14   ar
    18     4    26    1
    19    14    15   ar
    20    14    13    1
    21     8    12    1
    22     8     7   ar
    23    12    13    1
    24     6     7   ar
    25     6     1    1
    26     7     2    2
    27    26    27   ar
    28    26    25   ar
    29     1    25    1
    30     1    33    1
    31    30    27    1
    32    27    28   ar
    33    25    29   ar
    34     2    37    1
    35    33    37    2
    36    33    34    1
    37    37    36    1
    38    29    28   ar
    39    29     5    1
    40    28    31    1
    41    34     5    2
    42    34    35    1
    43    40    41    1
    44    40    39    1
    45    31    32    1
    46    36    35    2
    47    36    39    1
    48    42    41   ar
    49    41    43   ar
    50    35    38    1
