@<TRIPOS>MOLECULE
2amp_I12_A_1.pdb
 44 45 0 0 0
SMALL
GASTEIGER

@<TRIPOS>ATOM
      1  N1        -2.2710   17.4670  -17.1440 N.ar  1001  I121001    -0.0726
      2  C1        -1.1630   17.0940  -17.8180 C.ar  1001  I121001     0.1774
      3  C2        -0.0860   17.7010  -17.0840 C.ar  1001  I121001     0.0627
      4  C3        -0.5800   18.3980  -15.9830 C.ar  1001  I121001     0.1550
      5  C4         0.2130   19.1190  -15.0260 C.3   1001  I121001     0.0754
      6  O1        -1.9720   18.3270  -15.9020 O.2   1001  I121001    -0.3576
      7  C5        -1.7160   16.2280  -19.0730 C.2   1001  I121001     0.2859
      8  O2        -1.2690   15.5310  -20.1170 O.2   1001  I121001    -0.2666
      9  N2        -3.2520   16.3640  -18.8150 N.am  1001  I121001    -0.1979
     10  C6        -4.4840   15.9130  -18.7820 C.3   1001  I121001     0.1429
     11  C7        -5.1490   16.5340  -17.5260 C.3   1001  I121001     0.2459
     12  O3        -4.8850   16.0930  -16.4540 O.3   1001  I121001    -0.2017
     13  C8        -4.5360   14.4570  -18.5890 C.3   1001  I121001     0.0277
     14  N3        -6.4510   16.6500  -17.3780 N.3   1001  I121001    -0.1799
     15  C9        -6.8250   17.9250  -16.7040 C.3   1001  I121001     0.1529
     16  C10       -6.8750   19.1840  -17.7060 C.3   1001  I121001     0.0250
     17  C11       -7.2870   20.5330  -17.0000 C.3   1001  I121001     0.0019
     18  C12       -5.5140   19.4060  -18.3690 C.3   1001  I121001     0.0019
     19  C13       -8.1440   17.6400  -16.0270 C.2   1001  I121001     0.2577
     20  O4        -9.1180   17.2220  -16.7700 O.2   1001  I121001    -0.2718
     21  N4        -8.1620   17.8400  -14.8080 N.am  1001  I121001    -0.1966
     22  C14       -9.4730   17.5920  -13.9450 C.3   1001  I121001     0.1727
     23  C15       -9.2050   17.4620  -12.4350 C.3   1001  I121001     0.0311
     24  C16       -8.2590   16.3280  -11.9460 C.3   1001  I121001     0.0022
     25  C17       -8.7630   14.9400  -12.3310 C.3   1001  I121001     0.0001
     26  C18       -8.1340   16.4050  -10.4190 C.3   1001  I121001     0.0001
     27  C19      -10.5040   18.9310  -14.2340 C.2   1001  I121001     0.2612
     28  O5       -10.1120   20.1780  -14.2280 O.2   1001  I121001    -0.2715
     29  N5       -11.5620   18.7380  -14.8490 N.am  1001  I121001    -0.2057
     30  C20      -12.9800   18.7010  -15.1360 C.3   1001  I121001     0.0970
     31  C21      -14.1870   19.4150  -14.5110 C.3   1001  I121001     0.0333
     32  C22      -13.7570   20.3940  -13.4410 C.3   1001  I121001     0.1113
     33  C23      -13.5240   21.8290  -13.0390 C.2   1001  I121001     0.3170
     34  O6       -14.5100   22.4260  -12.5240 O.2   1001  I121001    -0.2501
     35  O7       -12.2700   22.2960  -13.0490 O.3   1001  I121001    -0.4485
     36  C24      -12.0780   23.3870  -12.2640 C.3   1001  I121001     0.2086
     37  C25      -10.6100   23.5170  -12.5150 C.3   1001  I121001     0.0513
     38  C26      -13.0810   19.3450  -16.5040 C.3   1001  I121001     0.0383
     39  C27      -12.4020   19.3820  -17.7950 C.3   1001  I121001     0.1100
     40  C28      -12.0090   20.7550  -18.2230 C.3   1001  I121001     0.0438
     41  C29      -11.8810   20.5920  -19.7230 C.3   1001  I121001     0.1387
     42  N6       -12.9040   19.5980  -19.9810 N.2   1001  I121001    -0.2063
     43  C30      -13.2220   18.9050  -18.9200 C.1   1001  I121001     0.1250
     44  O8       -13.9600   18.0200  -18.9370 O.2   1001  I121001    -0.2271
@<TRIPOS>BOND
     1     8     7    2
     2    42    41    1
     3    42    43    2
     4    41    40    1
     5     7     9   am
     6     7     2    1
     7    44    43    2
     8    43    39    1
     9     9    10    1
    10    10    13    1
    11    10    11    1
    12    18    16    1
    13    40    39    1
    14     2     1   ar
    15     2     3   ar
    16    39    38    1
    17    16    17    1
    18    16    15    1
    19    11    14    1
    20    11    12    1
    21    14    15    1
    22     1     6   ar
    23     3     4   ar
    24    20    19    2
    25    15    19    1
    26    38    30    1
    27    19    21   am
    28     4     6   ar
    29     4     5    1
    30    30    29    1
    31    30    31    1
    32    29    27   am
    33    21    22    1
    34    31    32    1
    35    27    28    2
    36    27    22    1
    37    22    23    1
    38    32    33    1
    39    35    33    1
    40    35    36    1
    41    33    34    2
    42    37    36    1
    43    23    24    1
    44    25    24    1
    45    24    26    1
