@<TRIPOS>MOLECULE
2amq_3IH_A_1.pdb
 49 51 0 0 0
SMALL
GASTEIGER

@<TRIPOS>ATOM
      1  N1       101.2920    5.7850   -3.3500 N.2   1145  3IH1145    -0.0828
      2  C1       100.5730    6.7780   -3.1380 C.2   1145  3IH1145     0.1554
      3  C2        99.3360    6.3950   -4.2010 C.3   1145  3IH1145     0.1002
      4  C3        99.8470    5.4250   -5.0190 C.3   1145  3IH1145     0.2026
      5  O1       101.0520    5.0000   -4.5550 O.2   1145  3IH1145    -0.3810
      6  C4       100.0650    7.2820   -1.7540 C.2   1145  3IH1145     0.2821
      7  O2        98.8640    7.2030   -1.4470 O.2   1145  3IH1145    -0.2669
      8  N2       100.9760    7.7930   -0.9200 N.am  1145  3IH1145    -0.1929
      9  C5       100.6400    8.2670    0.4340 C.3   1145  3IH1145     0.1731
     10  C6       101.9270    8.5930    1.1990 C.3   1145  3IH1145     0.0334
     11  C7        99.6740    9.4590    0.5190 C.2   1145  3IH1145     0.2616
     12  O3        99.7900   10.4300   -0.2380 O.2   1145  3IH1145    -0.2715
     13  N3        98.7350    9.3640    1.4620 N.am  1145  3IH1145    -0.1963
     14  C8        97.7190   10.3870    1.7140 C.3   1145  3IH1145     0.1727
     15  C9        96.3060    9.8050    1.5190 C.3   1145  3IH1145     0.0290
     16  C10       95.2780   10.8930    1.6690 C.3   1145  3IH1145     0.0023
     17  C11       96.2090    9.1200    0.1580 C.3   1145  3IH1145     0.0023
     18  C12       97.8510   10.8740    3.1660 C.2   1145  3IH1145     0.2616
     19  O4        97.8160   10.0810    4.1120 O.2   1145  3IH1145    -0.2715
     20  N4        98.0190   12.1790    3.3420 N.am  1145  3IH1145    -0.1963
     21  C13       98.1710   12.7600    4.6760 C.3   1145  3IH1145     0.1728
     22  C14       98.6620   14.1980    4.5400 C.3   1145  3IH1145     0.0311
     23  C15       99.9810   14.5830    5.2250 C.3   1145  3IH1145     0.0022
     24  C16      101.0670   13.5590    4.9300 C.3   1145  3IH1145     0.0001
     25  C17      100.4070   15.9710    4.7180 C.3   1145  3IH1145     0.0001
     26  C19       95.5230   12.1470    7.3250 C.3   1145  3IH1145     0.0970
     27  C20       95.2020   13.0320    8.5520 C.3   1145  3IH1145     0.0333
     28  C21       94.8480   14.3730    7.8410 C.3   1145  3IH1145     0.1113
     29  C22       93.7950   14.9980    8.7450 C.2   1145  3IH1145     0.3174
     30  O6        93.4970   14.8580    9.9200 O.2   1145  3IH1145    -0.2501
     31  O7        93.4860   16.0650    8.0300 O.3   1145  3IH1145    -0.4435
     32  C23       92.8020   17.3290    8.1530 C.3   1145  3IH1145     0.2350
     33  C24       92.8420   18.1780    6.8970 C.ar  1145  3IH1145     0.0213
     34  C25       94.7090   10.8090    7.9180 C.3   1145  3IH1145     0.0383
     35  C26       94.3680    9.8390    6.7710 C.3   1145  3IH1145     0.1100
     36  C27       92.9360   10.0150    6.2050 C.3   1145  3IH1145     0.0438
     37  C28       92.4370    8.6060    5.8420 C.3   1145  3IH1145     0.1387
     38  N6        93.2910    7.7570    6.6660 N.2   1145  3IH1145    -0.2063
     39  C29       94.3560    8.3900    7.1950 C.1   1145  3IH1145     0.1250
     40  O8        94.9200    7.9620    8.2080 O.2   1145  3IH1145    -0.2271
     41  C30       93.8140   17.9610    5.8750 C.ar  1145  3IH1145    -0.0007
     42  C31       93.8360   18.7730    4.7050 C.ar  1145  3IH1145    -0.0002
     43  C32       92.8790   19.8170    4.5370 C.ar  1145  3IH1145    -0.0000
     44  C33       91.8970   20.0500    5.5460 C.ar  1145  3IH1145    -0.0002
     45  C34       91.8790   19.2330    6.7190 C.ar  1145  3IH1145    -0.0007
     46  C35       99.2030    4.8900   -6.2600 C.3   1145  3IH1145     0.0506
     47  C18       96.8340   12.7300    5.4240 C.2   1145  3IH1145     0.2612
     48  O5        95.8230   13.2120    4.8960 O.2   1145  3IH1145    -0.2715
     49  N5        96.7980   12.1760    6.6370 N.am  1145  3IH1145    -0.2057
@<TRIPOS>BOND
     1    46     4    1
     2     4     5    1
     3     4     3    1
     4     5     1    1
     5     3     2    1
     6     1     2    2
     7     2     6    1
     8     6     7    2
     9     6     8   am
    10     8     9    1
    11    12    11    2
    12    17    15    1
    13     9    11    1
    14     9    10    1
    15    11    13   am
    16    13    14    1
    17    15    16    1
    18    15    14    1
    19    14    18    1
    20    18    20   am
    21    18    19    2
    22    20    21    1
    23    43    42   ar
    24    43    44   ar
    25    22    21    1
    26    22    23    1
    27    21    47    1
    28    42    41   ar
    29    25    23    1
    30    48    47    2
    31    24    23    1
    32    47    49   am
    33    44    45   ar
    34    37    36    1
    35    37    38    1
    36    41    33   ar
    37    36    35    1
    38    49    26    1
    39    38    39    2
    40    45    33   ar
    41    35    39    1
    42    35    34    1
    43    33    32    1
    44    39    40    2
    45    26    34    1
    46    26    27    1
    47    28    27    1
    48    28    29    1
    49    31    32    1
    50    31    29    1
    51    29    30    2
