@<TRIPOS>MOLECULE
2amt_1AA_A_1.pdb
 37 39 0 0 0
SMALL
GASTEIGER

@<TRIPOS>ATOM
      1  O1         4.7270    4.8630   15.1430 O.2   1901  1AA1901    -0.1925
      2  C1         3.7620    5.6210   15.0730 C.1   1901  1AA1901     0.2756
      3  N4         3.4470    6.4200   16.1820 N.2   1901  1AA1901    -0.3024
      4  C9'        2.3540    7.2940   16.1370 C.2   1901  1AA1901     0.2346
      5  N3         2.0660    8.0440   17.1960 N.pl3 1901  1AA1901    -0.0921
      6  C8'        1.5750    7.3740   14.9870 C.2   1901  1AA1901     0.0687
      7  C7'        1.8800    6.5880   13.8780 C.2   1901  1AA1901     0.0836
      8  N2         2.9760    5.6970   13.9030 N.am  1901  1AA1901    -0.1778
      9  C2         3.3060    4.8530   12.7090 C.3   1901  1AA1901     0.2400
     10  O2'        3.2360    5.6570   11.4910 O.3   1901  1AA1901    -0.3320
     11  C3         2.3420    3.6720   12.5190 C.3   1901  1AA1901     0.2319
     12  O4'        3.0800    2.5090   12.1220 O.3   1901  1AA1901    -0.2157
     13  C4         1.4280    4.1350   11.3910 C.3   1901  1AA1901     0.2158
     14  O3'        0.9520    3.0170   10.6330 O.3   1901  1AA1901    -0.2175
     15  C5         2.3650    4.9960   10.5450 C.3   1901  1AA1901     0.1799
     16  C6         1.5780    6.0850    9.8130 C.3   1901  1AA1901     0.1813
     17  O2         0.8740    6.9350   10.7380 O.3   1901  1AA1901    -0.3112
     18  P1        -0.3880    7.8150   10.2670 P.3   1901  1AA1901     0.2189
     19  O1'        0.1250    9.0480    9.6290 O.2   1901  1AA1901    -0.5170
     20  O9        -1.3440    7.9170   11.3880 O.3   1901  1AA1901    -0.4371
     21  O3        -1.0550    6.8460    9.1530 O.3   1901  1AA1901    -0.2703
     22  P2        -1.6890    7.3550    7.7500 P.3   1901  1AA1901     0.2189
     23  O8        -1.1870    8.7030    7.3930 O.2   1901  1AA1901    -0.5170
     24  O7        -3.1520    7.1150    7.7900 O.3   1901  1AA1901    -0.4371
     25  O4        -1.0370    6.3120    6.6970 O.3   1901  1AA1901    -0.3099
     26  C7        -1.2440    4.8950    6.8140 C.3   1901  1AA1901     0.1964
     27  C8         0.0910    4.1500    6.7590 C.3   1901  1AA1901     0.2411
     28  O5         0.2910    3.5620    5.4520 O.3   1901  1AA1901    -0.4426
     29  C9         1.3570    4.0900    4.7730 C.2   1901  1AA1901     0.3426
     30  O6         2.2660    4.6590    5.3820 O.2   1901  1AA1901    -0.2448
     31  C1'        1.4120    3.9610    3.2400 C.ar  1901  1AA1901     0.0923
     32  C2'        0.2290    3.7710    2.5230 C.ar  1901  1AA1901     0.0078
     33  C3'        0.2650    3.6530    1.1330 C.ar  1901  1AA1901     0.0003
     34  C4'        1.4790    3.7210    0.4510 C.ar  1901  1AA1901     0.0014
     35  C5'        2.6630    3.9110    1.1620 C.ar  1901  1AA1901     0.0183
     36  C6'        2.6310    4.0320    2.5520 C.ar  1901  1AA1901     0.0953
     37  N1         3.7750    4.2140    3.2060 N.pl3 1901  1AA1901    -0.1278
@<TRIPOS>BOND
     1    34    33   ar
     2    34    35   ar
     3    33    32   ar
     4    35    36   ar
     5    32    31   ar
     6    36    37    1
     7    36    31   ar
     8    31    29    1
     9    29    30    2
    10    29    28    1
    11    28    27    1
    12    25    26    1
    13    25    22    1
    14    27    26    1
    15    23    22    2
    16    22    24    1
    17    22    21    1
    18    21    18    1
    19    19    18    2
    20    16    15    1
    21    16    17    1
    22    18    17    1
    23    18    20    1
    24    15    13    1
    25    15    10    1
    26    14    13    1
    27    13    11    1
    28    10     9    1
    29    12    11    1
    30    11     9    1
    31     9     8    1
    32     7     8    1
    33     7     6    2
    34     8     2   am
    35     6     4    1
    36     2     1    2
    37     2     3    2
    38     4     3    2
    39     4     5    1
