@<TRIPOS>MOLECULE
2amt_GPP_A_1.pdb
 19 18 0 0 0
SMALL
GASTEIGER

@<TRIPOS>ATOM
      1  C1       -13.5710   13.8480   17.3350 C.3   7903  GPP7903     0.1747
      2  O1       -12.2990   14.2950   17.7950 O.3   7903  GPP7903    -0.3089
      3  C2       -13.8780   12.4790   17.8990 C.2   7903  GPP7903    -0.0024
      4  C3       -14.3080   11.4550   17.1420 C.2   7903  GPP7903    -0.0454
      5  C4       -14.5090   11.6090   15.6610 C.3   7903  GPP7903     0.0261
      6  C5       -14.6000   10.1290   17.8070 C.3   7903  GPP7903     0.0264
      7  C6       -13.8570    8.9780   17.1320 C.3   7903  GPP7903     0.0297
      8  C7       -12.4460    8.9130   17.6730 C.2   7903  GPP7903    -0.0342
      9  C8       -12.0810    8.1270   18.7010 C.2   7903  GPP7903    -0.0478
     10  C9       -10.6510    8.1560   19.1480 C.3   7903  GPP7903     0.0260
     11  C10      -13.0530    7.2240   19.4100 C.3   7903  GPP7903     0.0260
     12  PA       -12.1300   15.3460   19.0060 P.3   7903  GPP7903     0.2233
     13  O1A      -13.2030   15.1180   20.0420 O.3   7903  GPP7903    -0.4370
     14  O2A      -10.6840   15.2880   19.4140 O.2   7903  GPP7903    -0.5169
     15  O3A      -12.3850   16.7650   18.3010 O.3   7903  GPP7903    -0.2261
     16  PB       -12.1940   18.1640   19.0810 P.3   7903  GPP7903     0.5373
     17  O1B      -11.4840   19.0080   18.0550 O.2   7903  GPP7903    -0.2221
     18  O2B      -13.6110   18.5840   19.3720 O.3   7903  GPP7903    -0.1143
     19  O3B      -11.3700   17.8760   20.3060 O.3   7903  GPP7903    -0.1143
@<TRIPOS>BOND
     1     5     4    1
     2     7     8    1
     3     7     6    1
     4     4     6    1
     5     4     3    2
     6     1     2    1
     7     1     3    1
     8     8     9    2
     9     2    12    1
    10    17    16    2
    11    15    12    1
    12    15    16    1
    13     9    10    1
    14     9    11    1
    15    12    14    2
    16    12    13    1
    17    16    18    1
    18    16    19    1
