@<TRIPOS>MOLECULE
2amv_BIN_A_1.pdb
 28 29 0 0 0
SMALL
GASTEIGER

@<TRIPOS>ATOM
      1  C1        28.1030    2.4370   52.8170 C.ar  930  BIN930     -0.0032
      2  C2        27.4550    3.8220   53.2110 C.ar  930  BIN930      0.0543
      3  C3        27.6440    4.3340   54.6160 C.ar  930  BIN930      0.0111
      4  C4        28.4830    3.5460   55.5770 C.ar  930  BIN930      0.0008
      5  C5        29.0730    2.3630   55.2320 C.ar  930  BIN930     -0.0002
      6  C6        28.9040    1.7820   53.8950 C.ar  930  BIN930     -0.0028
      7  C7        27.9610    1.7570   51.3900 C.3   930  BIN930      0.0827
      8  C8        27.0460    0.3760   51.4150 C.2   930  BIN930      0.0710
      9  C9        29.9990    0.3290   50.5870 C.2   930  BIN930      0.1351
     10  C11       27.6410   -0.9080   51.1770 C.2   930  BIN930      0.0321
     11  C12       29.3400    1.6580   50.7470 C.2   930  BIN930      0.0857
     12  C13       30.0280    3.0170   50.3770 C.2   930  BIN930      0.3859
     13  C14       31.3790    0.2200   50.1020 C.2   930  BIN930      0.4011
     14  C15       26.9570   -2.2800   51.0880 C.3   930  BIN930      0.0473
     15  C16       30.3800   -2.2620   52.9380 C.3   930  BIN930      0.0236
     16  C17       29.9660   -2.1000   51.5030 C.3   930  BIN930      0.0955
     17  C18       25.4960    0.5740   51.6760 C.2   930  BIN930      0.3386
     18  C19       23.5260    2.1670   51.4330 C.3   930  BIN930      0.1694
     19  C20       23.2920    2.5980   52.9070 C.3   930  BIN930      0.0473
     20  C21       23.2690    3.2190   50.3990 C.3   930  BIN930      0.0473
     21  N10       29.1850   -0.9100   51.0350 N.pl3 930  BIN930     -0.2853
     22  O3A       29.3430    4.1010   50.2600 O.co2 930  BIN930     -0.2408
     23  O3B       31.2440    3.1440   50.3610 O.co2 930  BIN930     -0.2408
     24  O4A       32.2790    0.5670   50.9110 O.co2 930  BIN930     -0.2392
     25  O4B       31.5460   -0.1460   48.9130 O.co2 930  BIN930     -0.2392
     26  O8A       24.7800   -0.2850   52.1400 O.2   930  BIN930     -0.2452
     27  O8        25.0850    1.8260   51.3370 O.3   930  BIN930     -0.4494
     28 CL2        26.6050    4.8260   52.2430 Cl    930  BIN930     -0.0826
@<TRIPOS>BOND
     1    25    13   ar
     2    13     9    1
     3    13    24   ar
     4    22    12   ar
     5    23    12   ar
     6    12    11    1
     7    20    18    1
     8     9    11    2
     9     9    21    1
    10    11     7    1
    11    21    10    1
    12    21    16    1
    13    14    10    1
    14    10     8    2
    15    27    18    1
    16    27    17    1
    17     7     8    1
    18     7     1    1
    19     8    17    1
    20    18    19    1
    21    16    15    1
    22    17    26    2
    23    28     2    1
    24     1     2   ar
    25     1     6   ar
    26     2     3   ar
    27     6     5   ar
    28     3     4   ar
    29     5     4   ar
