@<TRIPOS>MOLECULE
2amv_PLP_A_1.pdb
 15 15 0 0 0
SMALL
GASTEIGER

@<TRIPOS>ATOM
      1  N1        24.8490   25.5690   30.1120 N.ar  999  PLP999     -0.2452
      2  C2        23.7630   24.8050   30.3820 C.ar  999  PLP999      0.0978
      3  C2A       22.8180   25.2760   31.4660 C.3   999  PLP999      0.0555
      4  C3        23.5630   23.6210   29.6800 C.ar  999  PLP999      0.2049
      5  O3        22.3980   22.9080   29.8260 O.3   999  PLP999     -0.2857
      6  C4        24.4690   23.1950   28.7480 C.ar  999  PLP999      0.0182
      7  C4A       24.1480   21.8980   27.9190 C.3   999  PLP999      0.0342
      8  C5        25.5930   23.9830   28.4800 C.ar  999  PLP999      0.0261
      9  C6        25.7590   25.1650   29.1590 C.ar  999  PLP999      0.0965
     10  C5A       26.5410   23.7060   27.3000 C.3   999  PLP999      0.1815
     11  O4P       26.0170   24.3210   26.1170 O.3   999  PLP999     -0.2653
     12  P         26.9390   24.6230   24.8150 P.3   999  PLP999      0.5329
     13  O1P       27.4180   23.2830   24.3220 O.3   999  PLP999     -0.1145
     14  O2P       26.0990   25.5180   23.9940 O.2   999  PLP999     -0.2224
     15  O3P       28.1610   25.4800   25.2740 O.3   999  PLP999     -0.1145
@<TRIPOS>BOND
     1    14    12    2
     2    13    12    1
     3    12    15    1
     4    12    11    1
     5    11    10    1
     6    10     8    1
     7     7     6    1
     8     8     6   ar
     9     8     9   ar
    10     6     4   ar
    11     9     1   ar
    12     4     5    1
    13     4     2   ar
    14     1     2   ar
    15     2     3    1
