@<TRIPOS>MOLECULE
2an0_HEM_A_1.pdb
 43 50 0 0 0
SMALL
GASTEIGER

@<TRIPOS>ATOM
      1  CHA        1.5160   32.1430    9.4150 C.2   901  HEM901      0.0000
      2  CHB       -1.2130   31.1200    5.6610 C.2   901  HEM901      0.0000
      3  CHC       -1.8030   26.6350    7.3090 C.2   901  HEM901      0.0000
      4  CHD        0.2130   27.9630   11.4700 C.2   901  HEM901      0.0000
      5  C1A        0.8580   32.2670    8.2300 C.ar  901  HEM901      0.0000
      6  C2A        1.0400   33.3890    7.2690 C.ar  901  HEM901      0.0000
      7  C3A        0.1950   33.0860    6.2330 C.ar  901  HEM901      0.0000
      8  C4A       -0.4330   31.8180    6.5370 C.ar  901  HEM901      0.0000
      9  CMA        0.0380   33.8930    4.9570 C.3   901  HEM901      0.0000
     10  CAA        2.1160   34.4580    7.2440 C.3   901  HEM901      0.0000
     11  CBA        3.4700   33.8580    6.8620 C.3   901  HEM901      0.0000
     12  CGA        4.5360   34.9890    6.7440 C.2   901  HEM901      0.0000
     13  O1A        5.7600   34.6960    7.0330 O.co2 901  HEM901      0.0000
     14  O2A        4.1630   36.1470    6.4750 O.co2 901  HEM901      0.0000
     15  C1B       -1.6890   29.8290    5.7880 C.2   901  HEM901      0.0000
     16  C2B       -2.3900   29.1100    4.7270 C.2   901  HEM901      0.0000
     17  C3B       -2.5080   27.8140    5.1410 C.2   901  HEM901      0.0000
     18  C4B       -1.8780   27.7460    6.4740 C.2   901  HEM901      0.0000
     19  CMB       -2.9910   29.6390    3.4210 C.3   901  HEM901      0.0000
     20  CAB       -3.2290   26.8560    4.4260 C.3   901  HEM901      0.0000
     21  CBB       -3.7760   25.6720    4.9260 C.3   901  HEM901      0.0000
     22  C1C       -1.2790   26.5680    8.5930 C.ar  901  HEM901      0.0000
     23  C2C       -1.2270   25.3490    9.3660 C.ar  901  HEM901      0.0000
     24  C3C       -0.7590   25.7110   10.5900 C.ar  901  HEM901      0.0000
     25  C4C       -0.4680   27.1680   10.5120 C.ar  901  HEM901      0.0000
     26  CMC       -1.3420   23.9510    8.7760 C.3   901  HEM901      0.0000
     27  CAC       -0.4280   24.8950   11.7110 C.3   901  HEM901      0.0000
     28  CBC       -1.0100   23.6610   12.0260 C.3   901  HEM901      0.0000
     29  C1D        0.6410   29.3110   11.3660 C.2   901  HEM901      0.0000
     30  C2D        1.5630   29.9170   12.2870 C.2   901  HEM901      0.0000
     31  C3D        2.0270   31.0080   11.6880 C.2   901  HEM901      0.0000
     32  C4D        1.3600   31.1100   10.3870 C.2   901  HEM901      0.0000
     33  CMD        1.9110   29.5920   13.7170 C.3   901  HEM901      0.0000
     34  CAD        3.0460   32.0280   12.1800 C.3   901  HEM901      0.0000
     35  CBD        4.4260   31.5110   11.8040 C.3   901  HEM901      0.0000
     36  CGD        5.5140   32.5730   11.9170 C.2   901  HEM901      0.0000
     37  O1D        6.5530   32.4440   11.1880 O.co2 901  HEM901      0.0000
     38  O2D        5.3820   33.4060   12.8350 O.co2 901  HEM901      0.0000
     39  NA        -0.0270   31.3830    7.7530 N.ar  901  HEM901      0.0000
     40  NB        -1.3920   28.9870    6.8310 N.2   901  HEM901      0.0000
     41  NC        -0.7860   27.6580    9.3050 N.ar  901  HEM901      0.0000
     42  ND         0.5100   30.0720   10.2380 N.2   901  HEM901      0.0000
     43 FE         -0.3750   29.4980    8.5080 Fe    901  HEM901      0.0000
@<TRIPOS>BOND
     1    19    16    1
     2    20    21    1
     3    20    17    1
     4    16    17    2
     5    16    15    1
     6     9     7    1
     7    17    18    1
     8     2    15    1
     9     2     8    2
    10    15    40    2
    11     7     8   ar
    12     7     6   ar
    13    18    40    1
    14    18     3    2
    15    14    12   ar
    16     8    39   ar
    17    12    11    1
    18    12    13   ar
    19    40    43    1
    20    11    10    1
    21    10     6    1
    22     6     5   ar
    23     3    22    1
    24    39     5   ar
    25    39    43    1
    26     5     1    2
    27    43    41    1
    28    43    42    1
    29    22    41   ar
    30    22    23   ar
    31    26    23    1
    32    41    25   ar
    33    23    24   ar
    34     1    32    1
    35    42    32    2
    36    42    29    1
    37    32    31    1
    38    25    24   ar
    39    25     4    1
    40    24    27    1
    41    37    36   ar
    42    29     4    2
    43    29    30    1
    44    31    34    1
    45    31    30    2
    46    27    28    1
    47    35    36    1
    48    35    34    1
    49    36    38   ar
    50    30    33    1
