@<TRIPOS>MOLECULE
2an2_HEM_A_1.pdb
 43 50 0 0 0
SMALL
GASTEIGER

@<TRIPOS>ATOM
      1 FE         -0.1190   29.5420    8.7360 Fe    901  HEM901      0.0000
      2  CHA        1.8190   31.9830    9.5870 C.2   901  HEM901      0.0000
      3  CHB       -0.8830   30.8010    5.8030 C.2   901  HEM901      0.0000
      4  CHC       -1.2970   26.5090    7.3430 C.2   901  HEM901      0.0000
      5  CHD        0.5750   27.7680   11.6210 C.2   901  HEM901      0.0000
      6  NA         0.2110   31.2580    7.9620 N.ar  901  HEM901      0.0000
      7  C1A        1.1480   32.1240    8.3750 C.ar  901  HEM901      0.0000
      8  C2A        1.4250   33.1060    7.3470 C.ar  901  HEM901      0.0000
      9  C3A        0.6090   32.7730    6.2910 C.ar  901  HEM901      0.0000
     10  C4A       -0.1370   31.5880    6.7020 C.ar  901  HEM901      0.0000
     11  CMA        0.3040   33.6210    5.0680 C.3   901  HEM901      0.0000
     12  CAA        2.3620   34.2370    7.4450 C.3   901  HEM901      0.0000
     13  CBA        3.7060   33.5760    7.2050 C.3   901  HEM901      0.0000
     14  CGA        4.8090   34.6010    7.0990 C.2   901  HEM901      0.0000
     15  O1A        6.0070   34.2780    7.2910 O.co2 901  HEM901      0.0000
     16  O2A        4.4540   35.7600    6.8320 O.co2 901  HEM901      0.0000
     17  NB        -0.9760   28.7980    6.8670 N.2   901  HEM901      0.0000
     18  C1B       -1.3270   29.5620    5.8460 C.2   901  HEM901      0.0000
     19  C2B       -2.1910   28.9220    4.8530 C.2   901  HEM901      0.0000
     20  C3B       -2.2900   27.6730    5.3400 C.2   901  HEM901      0.0000
     21  C4B       -1.5080   27.6220    6.5880 C.2   901  HEM901      0.0000
     22  CMB       -2.8710   29.6280    3.6460 C.3   901  HEM901      0.0000
     23  CAB       -2.7680   26.5720    4.6710 C.3   901  HEM901      0.0000
     24  CBB       -3.6170   25.5420    5.0930 C.3   901  HEM901      0.0000
     25  NC        -0.3560   27.5910    9.3240 N.ar  901  HEM901      0.0000
     26  C1C       -0.6960   26.5000    8.5910 C.ar  901  HEM901      0.0000
     27  C2C       -0.5730   25.1870    9.4360 C.ar  901  HEM901      0.0000
     28  C3C       -0.2220   25.5730   10.8000 C.ar  901  HEM901      0.0000
     29  C4C       -0.0750   27.1190   10.5930 C.ar  901  HEM901      0.0000
     30  CMC       -0.8740   23.7690    8.8370 C.3   901  HEM901      0.0000
     31  CAC       -0.0820   24.8020   12.0790 C.3   901  HEM901      0.0000
     32  CBC       -0.5300   23.4490   12.1240 C.3   901  HEM901      0.0000
     33  ND         1.0140   29.8150   10.3590 N.2   901  HEM901      0.0000
     34  C1D        1.1120   29.0630   11.5090 C.2   901  HEM901      0.0000
     35  C2D        1.9910   29.7720   12.5230 C.2   901  HEM901      0.0000
     36  C3D        2.3760   30.8880   11.8960 C.2   901  HEM901      0.0000
     37  C4D        1.7650   30.9270   10.5720 C.2   901  HEM901      0.0000
     38  CMD        2.2000   29.5540   14.0400 C.3   901  HEM901      0.0000
     39  CAD        3.2610   31.9560   12.3680 C.3   901  HEM901      0.0000
     40  CBD        4.5530   31.5920   11.6730 C.3   901  HEM901      0.0000
     41  CGD        5.6390   32.5410   12.0450 C.2   901  HEM901      0.0000
     42  O1D        6.7940   32.3600   11.6070 O.co2 901  HEM901      0.0000
     43  O2D        5.3320   33.4990   12.7800 O.co2 901  HEM901      0.0000
@<TRIPOS>BOND
     1    22    19    1
     2    23    24    1
     3    23    20    1
     4    19    20    2
     5    19    18    1
     6    11     9    1
     7    20    21    1
     8     3    18    1
     9     3    10    2
    10    18    17    2
    11     9    10   ar
    12     9     8   ar
    13    21    17    1
    14    21     4    2
    15    10     6   ar
    16    16    14   ar
    17    17     1    1
    18    14    13    1
    19    14    15   ar
    20    13    12    1
    21     4    26    1
    22     8    12    1
    23     8     7   ar
    24     6     7   ar
    25     6     1    1
    26     7     2    2
    27    26    25   ar
    28    26    27   ar
    29     1    25    1
    30     1    33    1
    31    30    27    1
    32    25    29   ar
    33    27    28   ar
    34     2    37    1
    35    33    37    2
    36    33    34    1
    37    37    36    1
    38    29    28   ar
    39    29     5    1
    40    28    31    1
    41    34     5    2
    42    34    35    1
    43    42    41   ar
    44    40    41    1
    45    40    39    1
    46    36    39    1
    47    36    35    2
    48    41    43   ar
    49    31    32    1
    50    35    38    1
