@<TRIPOS>MOLECULE
2an2_ARG_A_1.pdb
 12 11 0 0 0
SMALL
GASTEIGER

@<TRIPOS>ATOM
      1  N          6.5930   32.5030    4.7920 N.3   2000  ARG2000    -0.1208
      2  CA         7.2660   31.1690    4.8810 C.3   2000  ARG2000     0.1944
      3  C          7.9910   30.9390    3.5580 C.2   2000  ARG2000     0.3819
      4  O          8.6140   29.8840    3.3740 O.co2 2000  ARG2000    -0.2441
      5  CB         6.1800   30.0800    5.1100 C.3   2000  ARG2000     0.0343
      6  CG         5.4050   30.2990    6.4310 C.3   2000  ARG2000     0.0490
      7  CD         4.2910   29.3560    6.5670 C.3   2000  ARG2000     0.2205
      8  NE         3.3730   29.5260    5.4790 N.pl3 2000  ARG2000    -0.0865
      9  CZ         2.3500   28.7110    5.2960 C.cat 2000  ARG2000     0.5346
     10  NH1        2.1450   27.7310    6.1040 N.pl3 2000  ARG2000     0.1354
     11  NH2        1.5600   28.8820    4.2130 N.pl3 2000  ARG2000     0.1354
     12  OXT        7.9920   31.8820    2.7740 O.co2 2000  ARG2000    -0.2441
@<TRIPOS>BOND
     1    12     3   ar
     2     4     3   ar
     3     3     2    1
     4    11     9    1
     5     1     2    1
     6     2     5    1
     7     5     6    1
     8     9     8    2
     9     9    10    1
    10     8     7    1
    11     6     7    1
