@<TRIPOS>MOLECULE
2an2_H4B_A_1.pdb
 17 18 0 0 0
SMALL
GASTEIGER

@<TRIPOS>ATOM
      1  N1         3.6950   39.9900    8.2860 N.2   903  H4B903     -0.2672
      2  C2         3.8850   38.7290    7.8820 C.1   903  H4B903      0.2609
      3  N2         2.8240   38.0480    7.4070 N.pl3 903  H4B903     -0.0220
      4  N3         5.0950   38.1770    7.9080 N.2   903  H4B903     -0.2466
      5  C4         6.1580   38.8790    8.3220 C.1   903  H4B903      0.2569
      6  O4         7.3330   38.5000    8.1930 O.2   903  H4B903     -0.2052
      7  C4A        5.9580   40.1490    8.9130 C.2   903  H4B903      0.2989
      8  C8A        4.6800   40.6850    8.8420 C.1   903  H4B903      0.1401
      9  N5         6.9680   40.8040    9.4990 N.2   903  H4B903     -0.3830
     10  N8         4.4440   41.9180    9.3300 N.2   903  H4B903     -0.1992
     11  C6         6.6700   41.9350   10.3690 C.2   903  H4B903      0.1466
     12  C7         5.3560   42.5250   10.1750 C.3   903  H4B903      0.1940
     13  C9         7.8790   42.8540   10.5680 C.3   903  H4B903      0.2313
     14  O9         7.5360   43.9220   11.4710 O.3   903  H4B903     -0.2130
     15  C10        9.1750   42.1270   11.0290 C.3   903  H4B903      0.1888
     16  C11        9.1670   41.7670   12.5600 C.3   903  H4B903      0.0387
     17  O10       10.3340   42.8900   10.6500 O.3   903  H4B903     -0.2200
@<TRIPOS>BOND
     1     3     2    1
     2     2     4    2
     3     2     1    2
     4     4     5    2
     5     6     5    2
     6     1     8    2
     7     5     7    1
     8     8     7    1
     9     8    10    2
    10     7     9    2
    11    10    12    1
    12     9    11    2
    13    12    11    1
    14    11    13    1
    15    13    15    1
    16    13    14    1
    17    17    15    1
    18    15    16    1
