@<TRIPOS>MOLECULE
2an3_SAH_A_1.pdb
 26 28 0 0 0
SMALL
GASTEIGER

@<TRIPOS>ATOM
      1  N         27.2870   53.0230   18.1990 N.3   2001  SAH2001    -0.1208
      2  CA        28.3830   52.3110   17.5450 C.3   2001  SAH2001     0.1952
      3  CB        29.5340   52.0910   18.5540 C.3   2001  SAH2001     0.0422
      4  CG        29.1640   51.3660   19.8630 C.3   2001  SAH2001     0.0597
      5  SD        30.6490   50.8780   20.7930 S.3   2001  SAH2001    -0.1375
      6  C         27.9470   50.9900   16.8720 C.2   2001  SAH2001     0.3819
      7  O         26.7260   50.7410   16.7710 O.co2 2001  SAH2001    -0.2441
      8  OXT       28.8210   50.2280   16.4190 O.co2 2001  SAH2001    -0.2441
      9  C5'       30.2680   51.4660   22.4810 C.3   2001  SAH2001     0.0899
     10  C4'       30.5580   52.9420   22.6230 C.3   2001  SAH2001     0.1630
     11  O4'       30.1200   53.4700   23.9050 O.3   2001  SAH2001    -0.3153
     12  C3'       32.0060   53.3870   22.4360 C.3   2001  SAH2001     0.2168
     13  O3'       32.0780   54.3820   21.4230 O.3   2001  SAH2001    -0.2175
     14  C2'       32.3960   53.9000   23.8240 C.3   2001  SAH2001     0.2569
     15  O2'       33.3760   54.9160   23.8400 O.3   2001  SAH2001    -0.2130
     16  C1'       31.0610   54.4280   24.3380 C.3   2001  SAH2001     0.3185
     17  N9        30.9760   54.5710   25.7930 N.pl3 2001  SAH2001    -0.1439
     18  C8        31.8330   54.0290   26.7870 C.3   2001  SAH2001     0.3377
     19  N7        31.5120   54.3950   28.0030 N.2   2001  SAH2001    -0.2095
     20  C5        30.3960   55.1960   27.8100 C.2   2001  SAH2001     0.2526
     21  C6        29.6250   55.8840   28.7690 C.2   2001  SAH2001     0.4393
     22  N6        29.8760   55.8600   30.0770 N.pl3 2001  SAH2001     0.2180
     23  N1        28.5670   56.6150   28.3150 N.2   2001  SAH2001     0.0021
     24  C2        28.3260   56.6400   26.9760 C.3   2001  SAH2001     0.5254
     25  N3        29.0050   56.0230   25.9830 N.2   2001  SAH2001    -0.0055
     26  C4        30.0430   55.3080   26.4800 C.2   2001  SAH2001     0.3518
@<TRIPOS>BOND
     1     8     6   ar
     2     7     6   ar
     3     6     2    1
     4     2     1    1
     5     2     3    1
     6     3     4    1
     7     4     5    1
     8     5     9    1
     9    13    12    1
    10    12    10    1
    11    12    14    1
    12     9    10    1
    13    10    11    1
    14    14    15    1
    15    14    16    1
    16    11    16    1
    17    16    17    1
    18    17    26    1
    19    17    18    1
    20    25    26    2
    21    25    24    1
    22    26    20    1
    23    18    19    1
    24    24    23    1
    25    20    19    2
    26    20    21    1
    27    23    21    2
    28    21    22    1
