@<TRIPOS>MOLECULE
2an3_CTL_A_1.pdb
 12 13 0 0 0
SMALL
GASTEIGER

@<TRIPOS>ATOM
      1  C1        28.8800   43.8430   19.5830 C.3   3001  CTL3001     0.1913
      2  C2        29.0950   45.3080   19.9780 C.3   3001  CTL3001     0.1266
      3  C3        30.0200   45.9950   18.9720 C.3   3001  CTL3001     0.0266
      4  C4        29.3350   46.0720   17.6060 C.3   3001  CTL3001     0.0277
      5  C5        28.7020   44.7390   17.1910 C.ar  3001  CTL3001    -0.0237
      6  C10       28.3220   44.5720   15.8620 C.ar  3001  CTL3001    -0.0045
      7  C6        28.4590   43.7240   18.1150 C.ar  3001  CTL3001     0.0052
      8  C7        27.8350   42.5490   17.7000 C.ar  3001  CTL3001    -0.0021
      9  C8        27.4540   42.3840   16.3720 C.ar  3001  CTL3001    -0.0003
     10  C9        27.6990   43.3980   15.4510 C.ar  3001  CTL3001    -0.0003
     11  O11       30.1010   43.1210   19.7670 O.3   3001  CTL3001    -0.2167
     12  N12       29.6900   45.3630   21.3210 N.3   3001  CTL3001    -0.1299
@<TRIPOS>BOND
     1    10     6   ar
     2    10     9   ar
     3     6     5   ar
     4     9     8   ar
     5     5     4    1
     6     5     7   ar
     7     4     3    1
     8     8     7   ar
     9     7     1    1
    10     3     2    1
    11     1    11    1
    12     1     2    1
    13     2    12    1
