@<TRIPOS>MOLECULE
2an4_SAH_A_1.pdb
 26 28 0 0 0
SMALL
GASTEIGER

@<TRIPOS>ATOM
      1  N         26.9590   52.7160   18.3820 N.3   301  SAH301     -0.1208
      2  CA        28.0740   52.1240   17.6450 C.3   301  SAH301      0.1952
      3  CB        29.2970   51.9630   18.5890 C.3   301  SAH301      0.0422
      4  CG        29.0510   51.2130   19.9160 C.3   301  SAH301      0.0597
      5  SD        30.6010   50.8710   20.8370 S.3   301  SAH301     -0.1375
      6  C         27.6860   50.7950   16.9590 C.2   301  SAH301      0.3819
      7  O         28.5670   49.9470   16.7130 O.co2 301  SAH301     -0.2441
      8  OXT       26.4910   50.6270   16.6330 O.co2 301  SAH301     -0.2441
      9  C5'       30.1930   51.4220   22.5250 C.3   301  SAH301      0.0899
     10  C4'       30.5160   52.8840   22.7000 C.3   301  SAH301      0.1630
     11  O4'       30.0780   53.3890   23.9900 O.3   301  SAH301     -0.3153
     12  C3'       31.9810   53.2920   22.5410 C.3   301  SAH301      0.2168
     13  O3'       32.1090   54.2630   21.5110 O.3   301  SAH301     -0.2175
     14  C2'       32.3640   53.8120   23.9290 C.3   301  SAH301      0.2569
     15  O2'       33.3550   54.8250   23.9380 O.3   301  SAH301     -0.2130
     16  C1'       31.0250   54.3350   24.4440 C.3   301  SAH301      0.3185
     17  N9        30.9210   54.4750   25.9000 N.pl3 301  SAH301     -0.1439
     18  C8        31.7900   53.9720   26.9220 C.3   301  SAH301      0.3377
     19  N7        31.4380   54.3460   28.1300 N.2   301  SAH301     -0.2095
     20  C5        30.2940   55.1010   27.9100 C.2   301  SAH301      0.2526
     21  C6        29.4870   55.7820   28.8480 C.2   301  SAH301      0.4393
     22  N6        29.7230   55.7970   30.1610 N.pl3 301  SAH301      0.2180
     23  N1        28.4110   56.4670   28.3700 N.2   301  SAH301      0.0021
     24  C2        28.1840   56.4620   27.0280 C.3   301  SAH301      0.5254
     25  N3        28.8940   55.8530   26.0520 N.2   301  SAH301     -0.0055
     26  C4        29.9500   55.1800   26.5690 C.2   301  SAH301      0.3518
@<TRIPOS>BOND
     1     8     6   ar
     2     7     6   ar
     3     6     2    1
     4     2     1    1
     5     2     3    1
     6     3     4    1
     7     4     5    1
     8     5     9    1
     9    13    12    1
    10     9    10    1
    11    12    10    1
    12    12    14    1
    13    10    11    1
    14    14    15    1
    15    14    16    1
    16    11    16    1
    17    16    17    1
    18    17    26    1
    19    17    18    1
    20    25    26    2
    21    25    24    1
    22    26    20    1
    23    18    19    1
    24    24    23    1
    25    20    19    2
    26    20    21    1
    27    23    21    2
    28    21    22    1
