@<TRIPOS>MOLECULE
2an4_OTR_A_1.pdb
 11 11 0 0 0
SMALL
GASTEIGER

@<TRIPOS>ATOM
      1  C2        28.2900   42.5960   17.7450 C.ar  401  OTR401      0.0015
      2  C3        27.9320   42.3560   16.4210 C.ar  401  OTR401      0.0418
      3  C4        27.9170   43.4030   15.5040 C.ar  401  OTR401      0.1957
      4  O4        27.5700   43.1640   14.2120 O.3   401  OTR401     -0.2866
      5  C5        28.2600   44.6890   15.9110 C.ar  401  OTR401      0.0418
      6  C6        28.6180   44.9250   17.2360 C.ar  401  OTR401      0.0015
      7  C1        28.6330   43.8810   18.1570 C.ar  401  OTR401      0.0094
      8  C7        29.0130   44.1050   19.6240 C.3   401  OTR401      0.1932
      9  O7        30.2870   43.5100   19.8760 O.3   401  OTR401     -0.2167
     10  C8        29.0650   45.5940   19.9820 C.3   401  OTR401      0.1466
     11  N8        29.4390   45.7480   21.3960 N.3   401  OTR401     -0.1282
@<TRIPOS>BOND
     1     4     3    1
     2     3     5   ar
     3     3     2   ar
     4     5     6   ar
     5     2     1   ar
     6     6     7   ar
     7     1     7   ar
     8     7     8    1
     9     8     9    1
    10     8    10    1
    11    10    11    1
