@<TRIPOS>MOLECULE
2an5_SAH_A_1.pdb
 26 28 0 0 0
SMALL
GASTEIGER

@<TRIPOS>ATOM
      1  N         26.8640   52.7850   18.3450 N.3   1301  SAH1301    -0.1208
      2  CA        28.0110   52.2460   17.6200 C.3   1301  SAH1301     0.1952
      3  CB        29.1840   51.9950   18.6000 C.3   1301  SAH1301     0.0422
      4  CG        28.8650   51.1530   19.8490 C.3   1301  SAH1301     0.0597
      5  SD        30.3540   50.8010   20.8200 S.3   1301  SAH1301    -0.1375
      6  C         27.6560   50.9870   16.8010 C.2   1301  SAH1301     0.3819
      7  O         26.4520   50.7720   16.5470 O.co2 1301  SAH1301    -0.2441
      8  OXT       28.5780   50.2480   16.3870 O.co2 1301  SAH1301    -0.2441
      9  C5'       29.9310   51.4790   22.4520 C.3   1301  SAH1301     0.0899
     10  C4'       30.2160   52.9650   22.5060 C.3   1301  SAH1301     0.1630
     11  O4'       29.8280   53.5480   23.7790 O.3   1301  SAH1301    -0.3153
     12  C3'       31.6580   53.3950   22.2490 C.3   1301  SAH1301     0.2168
     13  O3'       31.6870   54.3890   21.2360 O.3   1301  SAH1301    -0.2175
     14  C2'       32.1230   53.9120   23.6090 C.3   1301  SAH1301     0.2569
     15  O2'       33.1200   54.9120   23.5210 O.3   1301  SAH1301    -0.2130
     16  C1'       30.8210   54.4710   24.1760 C.3   1301  SAH1301     0.3185
     17  N9        30.7640   54.6210   25.6320 N.pl3 1301  SAH1301    -0.1439
     18  C8        31.6830   54.1680   26.6400 C.3   1301  SAH1301     0.3377
     19  N7        31.3170   54.5000   27.8550 N.2   1301  SAH1301    -0.2095
     20  C5        30.1240   55.1870   27.6560 C.2   1301  SAH1301     0.2526
     21  C6        29.2790   55.7970   28.6120 C.2   1301  SAH1301     0.4393
     22  N6        29.5190   55.7980   29.9240 N.pl3 1301  SAH1301     0.2180
     23  N1        28.1570   56.4240   28.1510 N.2   1301  SAH1301     0.0021
     24  C2        27.9260   56.4310   26.8100 C.3   1301  SAH1301     0.5254
     25  N3        28.6680   55.8860   25.8160 N.2   1301  SAH1301    -0.0055
     26  C4        29.7670   55.2700   26.3170 C.2   1301  SAH1301     0.3518
@<TRIPOS>BOND
     1     8     6   ar
     2     7     6   ar
     3     6     2    1
     4     2     1    1
     5     2     3    1
     6     3     4    1
     7     4     5    1
     8     5     9    1
     9    13    12    1
    10    12    10    1
    11    12    14    1
    12     9    10    1
    13    10    11    1
    14    15    14    1
    15    14    16    1
    16    11    16    1
    17    16    17    1
    18    17    26    1
    19    17    18    1
    20    25    26    2
    21    25    24    1
    22    26    20    1
    23    18    19    1
    24    24    23    1
    25    20    19    2
    26    20    21    1
    27    23    21    2
    28    21    22    1
