@<TRIPOS>MOLECULE
2an5_TTL_A_1.pdb
 12 13 0 0 0
SMALL
GASTEIGER

@<TRIPOS>ATOM
      1  OAB       29.4990   46.3790   17.6890 O.3   1401  TTL1401    -0.2167
      2  CAL       28.6720   45.3280   18.1970 C.3   1401  TTL1401     0.1913
      3  CAJ       28.1850   44.4470   17.0440 C.ar  1401  TTL1401     0.0052
      4  CAF       27.7580   45.0510   15.8650 C.ar  1401  TTL1401    -0.0021
      5  CAD       27.2590   44.2820   14.8200 C.ar  1401  TTL1401    -0.0003
      6  CAC       27.1880   42.8970   14.9580 C.ar  1401  TTL1401    -0.0003
      7  CAE       27.6160   42.2970   16.1350 C.ar  1401  TTL1401    -0.0045
      8  CAI       28.1190   43.0610   17.1850 C.ar  1401  TTL1401    -0.0237
      9  CAG       28.6160   42.3150   18.4270 C.3   1401  TTL1401     0.0277
     10  CAH       28.7050   43.2460   19.6360 C.3   1401  TTL1401     0.0266
     11  CAK       29.4420   44.5370   19.2620 C.3   1401  TTL1401     0.1266
     12  NAA       29.6170   45.3720   20.4560 N.3   1401  TTL1401    -0.1299
@<TRIPOS>BOND
     1     5     6   ar
     2     5     4   ar
     3     6     7   ar
     4     4     3   ar
     5     7     8   ar
     6     3     8   ar
     7     3     2    1
     8     8     9    1
     9     1     2    1
    10     2    11    1
    11     9    10    1
    12    11    10    1
    13    11    12    1
