@<TRIPOS>MOLECULE
2an9_GDP_A_1.pdb
 28 30 0 0 0
SMALL
GASTEIGER

@<TRIPOS>ATOM
      1  PB        18.5750   -5.5550   -4.7530 P.3   601  GDP601      0.5373
      2  O1B       19.7050   -6.0400   -3.9220 O.3   601  GDP601     -0.1143
      3  O2B       18.4000   -4.0450   -4.5160 O.2   601  GDP601     -0.2221
      4  O3B       17.3230   -6.3730   -4.3740 O.3   601  GDP601     -0.1143
      5  O3A       18.9140   -5.7600   -6.3060 O.3   601  GDP601     -0.2261
      6  PA        19.7170   -4.5410   -6.9520 P.3   601  GDP601      0.2231
      7  O1A       19.0150   -3.2540   -6.7160 O.3   601  GDP601     -0.4370
      8  O2A       19.9940   -4.6770   -8.4560 O.2   601  GDP601     -0.5169
      9  O5'       21.0910   -4.7030   -6.1160 O.3   601  GDP601     -0.3111
     10  C5'       21.8630   -3.5610   -5.9250 C.3   601  GDP601      0.1813
     11  C4'       23.0460   -3.7340   -4.9910 C.3   601  GDP601      0.1799
     12  O4'       23.9160   -2.6890   -5.3790 O.3   601  GDP601     -0.3326
     13  C3'       22.6390   -3.4630   -3.5540 C.3   601  GDP601      0.2158
     14  O3'       23.5500   -3.9270   -2.5860 O.3   601  GDP601     -0.2175
     15  C2'       22.7080   -1.9730   -3.4940 C.3   601  GDP601      0.2310
     16  O2'       23.1190   -1.5510   -2.2430 O.3   601  GDP601     -0.2158
     17  C1'       23.8040   -1.6300   -4.4630 C.3   601  GDP601      0.2293
     18  N9        23.5140   -0.3080   -5.0160 N.pl3 601  GDP601     -0.2354
     19  C8        22.3250    0.1600   -5.5120 C.3   601  GDP601      0.2246
     20  N7        22.5050    1.4490   -5.8830 N.2   601  GDP601     -0.2322
     21  C5        23.7940    1.8050   -5.6320 C.2   601  GDP601      0.2182
     22  C6        24.5110    2.9810   -5.8240 C.1   601  GDP601      0.2372
     23  O6        23.9320    4.0130   -6.2000 O.2   601  GDP601     -0.2069
     24  N1        25.8590    2.9850   -5.4510 N.2   601  GDP601     -0.2485
     25  C2        26.4460    1.8580   -4.8940 C.1   601  GDP601      0.2531
     26  N2        27.5480    1.9600   -4.1730 N.pl3 601  GDP601     -0.0226
     27  N3        25.7160    0.7040   -4.7220 N.2   601  GDP601     -0.3074
     28  C4        24.4260    0.6940   -5.0710 C.2   601  GDP601      0.2300
@<TRIPOS>BOND
     1     8     6    2
     2     6     7    1
     3     6     5    1
     4     6     9    1
     5     5     1    1
     6    23    22    2
     7     9    10    1
     8    10    11    1
     9    20    21    2
    10    20    19    1
    11    22    21    1
    12    22    24    2
    13    21    28    1
    14    19    18    1
    15    24    25    2
    16    12    11    1
    17    12    17    1
    18    28    18    1
    19    28    27    2
    20    18    17    1
    21    11    13    1
    22    25    27    2
    23    25    26    1
    24     1     3    2
    25     1     4    1
    26     1     2    1
    27    17    15    1
    28    13    15    1
    29    13    14    1
    30    15    16    1
