@<TRIPOS>MOLECULE
2an9_GMP_A_1.pdb
 20 22 0 0 0
SMALL
GASTEIGER

@<TRIPOS>ATOM
      1  O5'       11.1070  -10.4450   -1.1530 O.3   602  GMP602     -0.2176
      2  C5'       12.2380  -11.0040   -1.7890 C.3   602  GMP602      0.2142
      3  C4'       12.8680  -12.0610   -0.8960 C.3   602  GMP602      0.1828
      4  O4'       11.9940  -13.2300   -0.7270 O.3   602  GMP602     -0.3325
      5  C3'       14.1830  -12.5800   -1.4850 C.3   602  GMP602      0.2159
      6  O3'       15.1390  -12.7130   -0.4410 O.3   602  GMP602     -0.2175
      7  C2'       13.7370  -13.8900   -2.1750 C.3   602  GMP602      0.2310
      8  O2'       14.7580  -14.8450   -2.3200 O.3   602  GMP602     -0.2158
      9  C1'       12.6630  -14.3900   -1.2100 C.3   602  GMP602      0.2293
     10  N9        11.6520  -15.2650   -1.7890 N.pl3 602  GMP602     -0.2354
     11  C8        10.8200  -15.0380   -2.8620 C.3   602  GMP602      0.2246
     12  N7         9.9970  -16.0290   -3.1130 N.2   602  GMP602     -0.2322
     13  C5        10.3040  -16.9660   -2.1220 C.2   602  GMP602      0.2182
     14  C6         9.7850  -18.2610   -1.8580 C.1   602  GMP602      0.2372
     15  O6         8.8820  -18.8600   -2.4460 O.2   602  GMP602     -0.2069
     16  N1        10.3900  -18.8710   -0.7620 N.2   602  GMP602     -0.2485
     17  C2        11.3910  -18.3380   -0.0080 C.1   602  GMP602      0.2531
     18  N2        11.8640  -19.0840    1.0050 N.pl3 602  GMP602     -0.0226
     19  N3        11.9140  -17.1440   -0.2390 N.2   602  GMP602     -0.3074
     20  C4        11.3220  -16.5130   -1.3080 C.2   602  GMP602      0.2300
@<TRIPOS>BOND
     1    12    11    1
     2    12    13    2
     3    11    10    1
     4    15    14    2
     5     8     7    1
     6     7     5    1
     7     7     9    1
     8    13    14    1
     9    13    20    1
    10    14    16    2
    11     2     1    1
    12     2     3    1
    13    10    20    1
    14    10     9    1
    15     5     3    1
    16     5     6    1
    17    20    19    2
    18     9     4    1
    19     3     4    1
    20    16    17    2
    21    19    17    2
    22    17    18    1
