@<TRIPOS>MOLECULE
2anb_5GP_A_1.pdb
 24 26 0 0 0
SMALL
GASTEIGER

@<TRIPOS>ATOM
      1  P         37.1400   17.0210   75.7630 P.3   301  5GP301      0.5327
      2  O1P       37.5750   18.2870   76.3780 O.3   301  5GP301     -0.1145
      3  O2P       36.9370   16.0010   76.8150 O.3   301  5GP301     -0.1145
      4  O3P       38.1550   16.5740   74.7840 O.2   301  5GP301     -0.2224
      5  O5'       35.7670   17.2670   74.9620 O.3   301  5GP301     -0.2675
      6  C5'       35.0970   16.1590   74.4000 C.3   301  5GP301      0.1859
      7  C4'       33.9090   16.5980   73.5430 C.3   301  5GP301      0.1801
      8  O4'       33.0990   17.5200   74.2540 O.3   301  5GP301     -0.3326
      9  C3'       34.3480   17.2680   72.2470 C.3   301  5GP301      0.2158
     10  O3'       33.6590   16.7470   71.1290 O.3   301  5GP301     -0.2175
     11  C2'       33.9830   18.7190   72.4440 C.3   301  5GP301      0.2310
     12  O2'       33.6220   19.2860   71.2030 O.3   301  5GP301     -0.2158
     13  C1'       32.8470   18.6760   73.4750 C.3   301  5GP301      0.2293
     14  N9        32.7570   19.8460   74.3860 N.pl3 301  5GP301     -0.2354
     15  C8        33.7290   20.7520   74.8050 C.3   301  5GP301      0.2246
     16  N7        33.1280   21.9150   75.3040 N.2   301  5GP301     -0.2322
     17  C5        31.8260   21.7460   75.0380 C.2   301  5GP301      0.2182
     18  C6        30.7180   22.5090   75.3830 C.1   301  5GP301      0.2372
     19  O6        30.8650   23.5440   76.0330 O.2   301  5GP301     -0.2069
     20  N1        29.4440   22.1200   75.0070 N.2   301  5GP301     -0.2485
     21  C2        29.2750   20.9750   74.2690 C.1   301  5GP301      0.2531
     22  N2        28.0420   20.6170   73.9130 N.pl3 301  5GP301     -0.0226
     23  N3        30.3830   20.2120   73.9380 N.2   301  5GP301     -0.3074
     24  C4        31.6460   20.6050   74.3350 C.2   301  5GP301      0.2300
@<TRIPOS>BOND
     1    10     9    1
     2    12    11    1
     3     9    11    1
     4     9     7    1
     5    11    13    1
     6    13     8    1
     7    13    14    1
     8     7     8    1
     9     7     6    1
    10    22    21    1
    11    23    21    2
    12    23    24    2
    13    21    20    2
    14    24    14    1
    15    24    17    1
    16    14    15    1
    17     6     5    1
    18     4     1    2
    19    15    16    1
    20     5     1    1
    21    20    18    2
    22    17    16    2
    23    17    18    1
    24    18    19    2
    25     1     2    1
    26     1     3    1
