@<TRIPOS>MOLECULE
2anj_KAI_A_1.pdb
 15 15 0 0 0
SMALL
GASTEIGER

@<TRIPOS>ATOM
      1  N         35.3780   -7.4620   24.7980 N.3   999  KAI999     -0.2080
      2  CD        34.8830   -8.8350   24.3540 C.3   999  KAI999      0.0933
      3  CD1       32.9820  -10.6220   23.0180 C.2   999  KAI999     -0.0091
      4  CD2       30.9510   -9.8330   24.1570 C.3   999  KAI999      0.0264
      5  CA        34.2280   -6.5940   24.9240 C.3   999  KAI999      0.1766
      6  CB        33.0520   -7.2730   24.2440 C.3   999  KAI999      0.0434
      7  CB1       32.9400   -7.0890   22.6390 C.3   999  KAI999      0.1164
      8  CG        33.2930   -8.7170   24.5770 C.3   999  KAI999      0.0382
      9  CG1       32.3040   -5.7560   22.2130 C.2   999  KAI999      0.3649
     10  CG2       32.4050   -9.8060   23.8440 C.2   999  KAI999     -0.0428
     11  C         33.9430   -6.2440   26.4340 C.2   999  KAI999      0.3803
     12  O         34.8010   -6.6520   27.2540 O.co2 999  KAI999     -0.2441
     13  OD1       32.3480   -5.5450   20.9890 O.co2 999  KAI999     -0.2457
     14  OD2       31.7990   -4.9990   23.0750 O.co2 999  KAI999     -0.2457
     15  OXT       32.8890   -5.5910   26.6740 O.co2 999  KAI999     -0.2441
@<TRIPOS>BOND
     1    13     9   ar
     2     9     7    1
     3     9    14   ar
     4     7     6    1
     5     3    10    2
     6    10     4    1
     7    10     8    1
     8     6     8    1
     9     6     5    1
    10     2     8    1
    11     2     1    1
    12     1     5    1
    13     5    11    1
    14    11    15   ar
    15    11    12   ar
