@<TRIPOS>MOLECULE
2ank_N12_H_1.pdb
 34 36 0 0 0
SMALL
GASTEIGER

@<TRIPOS>ATOM
      1  C1        14.2050   16.0150   22.9550 C.2   501  N12501      0.3823
      2  C2        15.6210   16.4000   22.6200 C.3   501  N12501      0.2033
      3  N3        16.2270   17.1140   23.7480 N.3   501  N12501     -0.1987
      4  C4        17.5010   17.8040   23.5530 C.3   501  N12501      0.1510
      5  C5        17.2490   19.0670   22.7610 C.2   501  N12501      0.2575
      6  C6        18.1370   18.1140   24.9350 C.3   501  N12501      0.0268
      7  C7        19.4500   18.9000   24.8050 C.3   501  N12501      0.0019
      8  C8        19.8770   19.4160   26.1920 C.3   501  N12501      0.0001
      9  C9        21.1920   20.2370   26.0830 C.3   501  N12501      0.0000
     10  C10       22.3200   19.3870   25.4440 C.3   501  N12501      0.0000
     11  C11       21.8720   18.8160   24.0710 C.3   501  N12501      0.0000
     12  C12       20.5700   17.9930   24.2290 C.3   501  N12501      0.0001
     13  O13       16.4490   19.8960   23.1660 O.2   501  N12501     -0.2718
     14  N14       17.9380   19.2330   21.5890 N.am  501  N12501     -0.1988
     15  C15       17.8250   20.3980   20.6730 C.3   501  N12501      0.1483
     16  C16       16.3630   20.7120   20.3240 C.2   501  N12501      0.2594
     17  O17       15.6270   19.7970   19.9730 O.2   501  N12501     -0.2716
     18  N18       15.8720   21.9950   20.3940 N.am  501  N12501     -0.1991
     19  C19       14.4630   22.3080   20.0380 C.3   501  N12501      0.1431
     20  C20       13.5200   22.2490   21.2250 C.ar  501  N12501      0.0186
     21  C21       12.9190   21.0270   21.6140 C.ar  501  N12501      0.0008
     22  C22       12.0350   21.0080   22.7180 C.ar  501  N12501      0.0271
     23  C23       11.7570   22.2250   23.3930 C.ar  501  N12501      0.1785
     24  N24       12.3570   23.3690   22.9890 N.ar  501  N12501     -0.2361
     25  C25       13.1990   23.4190   21.9440 C.ar  501  N12501      0.0965
     26  O26       13.2890   16.3120   22.1890 O.co2 501  N12501     -0.2440
     27  O27       13.9690   15.3960   23.9850 O.co2 501  N12501     -0.2440
     28  C28       10.8210   22.2580   24.5630 C.2   501  N12501      0.4938
     29  N29       10.5980   23.4010   25.2030 N.pl3 501  N12501      0.2065
     30  N30       10.1970   21.1550   24.9740 N.pl3 501  N12501      0.2065
     31  C31       18.6030   20.0880   19.3840 C.3   501  N12501      0.0289
     32  C32       18.5610   21.6150   21.2750 C.3   501  N12501      0.0289
     33  C33       20.0040   20.7250   19.5310 C.3   501  N12501      0.0023
     34  C34       20.0490   21.3060   20.9710 C.3   501  N12501      0.0023
@<TRIPOS>BOND
     1    31    33    1
     2    31    15    1
     3    33    34    1
     4    17    16    2
     5    19    18    1
     6    19    20    1
     7    16    18   am
     8    16    15    1
     9    15    32    1
    10    15    14    1
    11    34    32    1
    12    20    21   ar
    13    20    25   ar
    14    14     5   am
    15    21    22   ar
    16    25    24   ar
    17    26     1   ar
    18     2     1    1
    19     2     3    1
    20    22    23   ar
    21     5    13    2
    22     5     4    1
    23     1    27   ar
    24    24    23   ar
    25    23    28    1
    26     4     3    1
    27     4     6    1
    28    11    12    1
    29    11    10    1
    30    12     7    1
    31    28    30    2
    32    28    29    1
    33     7     6    1
    34     7     8    1
    35    10     9    1
    36     9     8    1
