@<TRIPOS>MOLECULE
2anl_JE2_A_1.pdb
 41 44 0 0 0
SMALL
GASTEIGER

@<TRIPOS>ATOM
      1  C3        55.8570   15.8810   30.8120 C.ar  3151  JE23151     0.0417
      2  C4        55.3720   16.5520   29.7190 C.ar  3151  JE23151     0.0034
      3  C5        55.5190   16.0130   28.4350 C.ar  3151  JE23151     0.0045
      4  C6        56.1350   14.8000   28.2100 C.ar  3151  JE23151     0.0542
      5  C7        56.6210   14.1340   29.2950 C.ar  3151  JE23151     0.0215
      6  C1        56.4850   14.6610   30.6000 C.ar  3151  JE23151     0.1919
      7  C8        57.2770   12.8220   29.0630 C.3   3151  JE23151     0.0345
      8  C9        56.2460   14.2830   26.8010 C.2   3151  JE23151     0.2646
      9  O2        56.9170   14.0180   31.7500 O.3   3151  JE23151    -0.2869
     10  O10       56.3670   12.9890   26.5280 O.2   3151  JE23151    -0.2684
     11  C22       57.7820   14.0300   22.6320 C.2   3151  JE23151     0.2589
     12  N11       56.2370   15.0980   25.8380 N.am  3151  JE23151    -0.2000
     13  O23       57.8490   14.7400   21.6770 O.2   3151  JE23151    -0.2720
     14  C20       57.7680   14.6760   23.9660 C.3   3151  JE23151     0.2475
     15  C14       54.2110   15.8740   24.4290 C.ar  3151  JE23151    -0.0204
     16  C13       55.5220   15.6880   23.7060 C.3   3151  JE23151     0.0511
     17  C17       51.7990   16.2190   25.7170 C.ar  3151  JE23151    -0.0000
     18  C12       56.3340   14.6570   24.4560 C.3   3151  JE23151     0.1392
     19  O21       58.2030   16.0020   23.7760 O.3   3151  JE23151    -0.2114
     20  C15       53.2900   14.8390   24.4640 C.ar  3151  JE23151    -0.0042
     21  C19       53.9170   17.0770   25.0340 C.ar  3151  JE23151    -0.0042
     22  C16       52.0780   15.0150   25.1010 C.ar  3151  JE23151    -0.0003
     23  C18       52.7020   17.2450   25.6710 C.ar  3151  JE23151    -0.0003
     24  C31       56.5810   12.1650   20.3140 C.2   3151  JE23151     0.2606
     25  N24       57.6640   12.7040   22.5670 N.am  3151  JE23151    -0.2602
     26  O32       56.9210   12.2660   19.1180 O.2   3151  JE23151    -0.2715
     27  C30       57.6790   11.9090   21.3180 C.3   3151  JE23151     0.1633
     28  C27       57.6250   10.4020   21.6700 C.3   3151  JE23151     0.0661
     29  C25       57.5850   11.8250   23.7420 C.3   3151  JE23151     0.1527
     30  C28       58.4600    9.6510   20.6490 C.3   3151  JE23151     0.0131
     31  C29       56.2720    9.7310   22.0100 C.3   3151  JE23151     0.0131
     32  S26       58.3950   10.3740   23.2090 S.3   3151  JE23151    -0.1182
     33  N33       55.3000   12.1660   20.7780 N.am  3151  JE23151    -0.1992
     34  C34       54.1690   12.1710   19.8670 C.3   3151  JE23151     0.1412
     35  C35       52.9460   12.6150   20.6230 C.ar  3151  JE23151    -0.0045
     36  C36       52.3390   13.8790   20.4820 C.ar  3151  JE23151    -0.0241
     37  C37       51.2040   14.2260   21.2090 C.ar  3151  JE23151    -0.0045
     38  C38       50.6750   13.3150   22.0940 C.ar  3151  JE23151    -0.0003
     39  C39       51.2570   12.0510   22.2290 C.ar  3151  JE23151    -0.0003
     40  C40       52.3970   11.7040   21.5050 C.ar  3151  JE23151    -0.0029
     41  C41       52.8820   14.9250   19.5330 C.3   3151  JE23151     0.0308
@<TRIPOS>BOND
     1    26    24    2
     2    41    36    1
     3    34    35    1
     4    34    33    1
     5    24    33   am
     6    24    27    1
     7    36    35   ar
     8    36    37   ar
     9    35    40   ar
    10    30    28    1
    11    37    38   ar
    12    27    28    1
    13    27    25    1
    14    40    39   ar
    15    28    31    1
    16    28    32    1
    17    13    11    2
    18    38    39   ar
    19    25    11   am
    20    25    29    1
    21    11    14    1
    22    32    29    1
    23    16    15    1
    24    16    18    1
    25    19    14    1
    26    14    18    1
    27    15    20   ar
    28    15    21   ar
    29    18    12    1
    30    20    22   ar
    31    21    23   ar
    32    22    17   ar
    33    23    17   ar
    34    12     8   am
    35    10     8    2
    36     8     4    1
    37     4     3   ar
    38     4     5   ar
    39     3     2   ar
    40     7     5    1
    41     5     6   ar
    42     2     1   ar
    43     6     1   ar
    44     6     9    1
