@<TRIPOS>MOLECULE
2anm_CDO_H_1.pdb
 33 35 0 0 0
SMALL
GASTEIGER

@<TRIPOS>ATOM
      1  C1        12.2240   21.1610   22.4720 C.ar  1001  CDO1001     0.0271
      2  C2        11.8780   22.3780   23.1190 C.ar  1001  CDO1001     0.1785
      3  N3        12.4600   23.5390   22.7430 N.ar  1001  CDO1001    -0.2361
      4  C4        13.3600   23.6030   21.7510 C.ar  1001  CDO1001     0.0965
      5  C5        13.7480   22.4350   21.0680 C.ar  1001  CDO1001     0.0186
      6  C6        13.1690   21.1970   21.4270 C.ar  1001  CDO1001     0.0008
      7  C7        14.7580   22.5180   19.9670 C.3   1001  CDO1001     0.1431
      8  C8        10.8950   22.3980   24.2200 C.2   1001  CDO1001     0.4938
      9  N9        10.1260   21.3390   24.4680 N.pl3 1001  CDO1001     0.2065
     10  N10       10.7800   23.4880   24.9690 N.pl3 1001  CDO1001     0.2065
     11  N11       16.0820   22.4690   20.5770 N.am  1001  CDO1001    -0.1991
     12  C12       16.8770   21.3920   20.4140 C.2   1001  CDO1001     0.2598
     13  C13       18.2340   21.3540   21.0660 C.3   1001  CDO1001     0.1535
     14  O14       16.5080   20.4420   19.7560 O.2   1001  CDO1001    -0.2715
     15  C15       19.3380   21.4740   19.9700 C.3   1001  CDO1001     0.0310
     16  C16       20.4280   20.4900   20.4650 C.3   1001  CDO1001     0.0237
     17  C17       19.5900   19.3810   21.1110 C.3   1001  CDO1001     0.0939
     18  N18       18.4210   20.0330   21.7250 N.am  1001  CDO1001    -0.2718
     19  C19       17.6310   19.5110   22.7320 C.2   1001  CDO1001     0.2418
     20  C20       17.9190   18.1360   23.3220 C.3   1001  CDO1001     0.1495
     21  O21       16.6820   20.1430   23.1600 O.2   1001  CDO1001    -0.2734
     22  N22       16.6680   17.3790   23.3980 N.3   1001  CDO1001    -0.1988
     23  C23       15.9240   16.9980   22.1960 C.3   1001  CDO1001     0.2033
     24  C24       14.6610   16.2990   22.6260 C.2   1001  CDO1001     0.3823
     25  O25       14.6840   15.5280   23.5820 O.co2 1001  CDO1001    -0.2440
     26  O26       13.6130   16.5040   22.0240 O.co2 1001  CDO1001    -0.2440
     27  C27       18.4930   18.2530   24.7500 C.3   1001  CDO1001     0.0267
     28  C28       19.8870   18.8930   24.7340 C.3   1001  CDO1001     0.0019
     29  C29       20.1930   19.5140   26.1080 C.3   1001  CDO1001     0.0001
     30  C30       21.5740   20.2290   26.0500 C.3   1001  CDO1001     0.0000
     31  C31       22.6870   19.2400   25.6310 C.3   1001  CDO1001     0.0000
     32  C32       22.3340   18.5330   24.2990 C.3   1001  CDO1001     0.0000
     33  C33       20.9570   17.8370   24.4050 C.3   1001  CDO1001     0.0001
@<TRIPOS>BOND
     1    14    12    2
     2     7    11    1
     3     7     5    1
     4    15    16    1
     5    15    13    1
     6    12    11   am
     7    12    13    1
     8    16    17    1
     9    13    18    1
    10     5     6   ar
    11     5     4   ar
    12    17    18    1
    13     6     1   ar
    14    18    19   am
    15     4     3   ar
    16    26    24   ar
    17    23    24    1
    18    23    22    1
    19     1     2   ar
    20    24    25   ar
    21    19    21    2
    22    19    20    1
    23     3     2   ar
    24     2     8    1
    25    20    22    1
    26    20    27    1
    27     8     9    2
    28     8    10    1
    29    32    33    1
    30    32    31    1
    31    33    28    1
    32    28    27    1
    33    28    29    1
    34    31    30    1
    35    30    29    1
