@<TRIPOS>MOLECULE
2ano_817_A_1.pdb
 18 18 0 0 0
SMALL
GASTEIGER

@<TRIPOS>ATOM
      1  N1        32.1120   38.6720   11.6190 N.pl3 400  817400      0.1359
      2  C2        30.0650   40.4740   11.7250 C.2   400  817400      0.2868
      3  N2        30.6550   36.8840   11.8620 N.pl3 400  817400      0.1359
      4  N3        29.8610   39.1310   11.9720 N.pl3 400  817400     -0.0321
      5  C4        32.1880   43.3350    9.6950 C.ar  400  817400     -0.0109
      6  C6        33.6010   43.5040    7.7690 C.ar  400  817400     -0.0004
      7  C7        34.2800   44.5530    8.3600 C.ar  400  817400      0.0038
      8  C9        34.6540   46.1360   10.2630 C.3   400  817400      0.4186
      9  C10       32.8660   44.3860   10.2830 C.ar  400  817400      0.0005
     10  C1        30.9010   38.2390   11.8130 C.cat 400  817400      0.5413
     11  N4        29.1540   41.3440   12.0680 N.2   400  817400     -0.1010
     12  S1        31.5510   41.0140   10.9460 S.3   400  817400     -0.0514
     13  C3        31.0490   42.6690   10.4220 C.3   400  817400      0.0928
     14  C5        32.5560   42.8930    8.4360 C.ar  400  817400     -0.0034
     15  C8        33.9140   44.9930    9.6180 C.ar  400  817400      0.0711
     16  F1        36.0230   46.0030   10.0130 F     400  817400     -0.1659
     17  F2        34.1970   47.3480    9.7270 F     400  817400     -0.1659
     18  F3        34.4250   46.1210   11.6410 F     400  817400     -0.1659
@<TRIPOS>BOND
     1     6     7   ar
     2     6    14   ar
     3     7    15   ar
     4    14     5   ar
     5    15     8    1
     6    15     9   ar
     7     5     9   ar
     8     5    13    1
     9    17     8    1
    10    16     8    1
    11     8    18    1
    12    13    12    1
    13    12     2    1
    14     1    10    1
    15     2     4    1
    16     2    11    2
    17    10     3    1
    18    10     4    2
