@<TRIPOS>MOLECULE
2ano_NAP_A_1.pdb
 48 52 0 0 0
SMALL
GASTEIGER

@<TRIPOS>ATOM
      1  PA        29.3990   52.0830   14.8010 P.3   164  NAP164      0.2189
      2  O1A       28.2400   51.3390   15.2730 O.3   164  NAP164     -0.4371
      3  O2A       29.9360   51.5840   13.4990 O.2   164  NAP164     -0.5170
      4  O5B       29.0730   53.5850   14.5890 O.3   164  NAP164     -0.3112
      5  C5B       28.2010   54.3800   15.5820 C.3   164  NAP164      0.1813
      6  C4B       27.9810   55.7560   14.8710 C.3   164  NAP164      0.1820
      7  O4B       26.8450   55.8660   13.7950 O.3   164  NAP164     -0.3136
      8  C3B       27.5980   56.9360   15.9190 C.3   164  NAP164      0.2157
      9  O3B       28.8640   57.4360   16.4920 O.3   164  NAP164     -0.2175
     10  C2B       26.8620   57.9240   14.9580 C.3   164  NAP164      0.2314
     11  O2B       27.9040   58.5580   14.1000 O.3   164  NAP164     -0.2630
     12  C1B       25.9890   56.9650   14.1510 C.3   164  NAP164      0.3158
     13  N9A       24.8100   56.3670   14.8120 N.pl3 164  NAP164     -0.1439
     14  C8A       24.6550   55.1970   15.5540 C.3   164  NAP164      0.3377
     15  N7A       23.4120   55.1280   15.9280 N.2   164  NAP164     -0.2095
     16  C5A       22.7030   56.2310   15.4540 C.2   164  NAP164      0.2526
     17  C6A       21.3480   56.7190   15.5300 C.2   164  NAP164      0.4393
     18  N6A       20.3630   56.0820   16.1850 N.pl3 164  NAP164      0.2180
     19  N1A       21.0350   57.9140   14.8900 N.2   164  NAP164      0.0021
     20  C2A       22.0140   58.5850   14.2150 C.3   164  NAP164      0.5254
     21  N3A       23.3080   58.2200   14.0880 N.2   164  NAP164     -0.0055
     22  C4A       23.5780   57.0320   14.7330 C.2   164  NAP164      0.3518
     23  O3        30.5100   52.1710   15.9710 O.3   164  NAP164     -0.2703
     24  PN        31.3450   51.6450   17.2830 P.3   164  NAP164      0.2189
     25  O1N       30.2720   51.1940   18.2770 O.3   164  NAP164     -0.4371
     26  O2N       32.2570   52.5320   17.6570 O.2   164  NAP164     -0.5170
     27  O5D       32.0310   50.2280   16.6580 O.3   164  NAP164     -0.3112
     28  C5D       33.0960   50.2220   15.6890 C.3   164  NAP164      0.1813
     29  C4D       33.8710   48.9720   16.2360 C.3   164  NAP164      0.1799
     30  O4D       33.1220   47.7390   16.2710 O.3   164  NAP164     -0.3327
     31  C3D       35.1210   48.7660   15.3300 C.3   164  NAP164      0.2158
     32  O3D       36.1460   48.4370   16.2820 O.3   164  NAP164     -0.2175
     33  C2D       34.6850   47.6260   14.4190 C.3   164  NAP164      0.2309
     34  O2D       35.8440   46.9940   13.8820 O.3   164  NAP164     -0.2158
     35  C1D       33.8660   46.7330   15.3870 C.3   164  NAP164      0.2263
     36  N1N       32.7670   45.9460   14.8140 N.pl3 164  NAP164     -0.2787
     37  C2N       32.9000   44.5500   15.0560 C.3   164  NAP164      0.1244
     38  C3N       32.0090   43.6400   14.6440 C.2   164  NAP164      0.0544
     39  C7N       32.1480   42.1340   14.9040 C.2   164  NAP164      0.2818
     40  O7N       31.3240   41.3480   14.5300 O.2   164  NAP164     -0.2670
     41  N7N       33.3200   41.8160   15.6120 N.am  164  NAP164     -0.0839
     42  C4N       30.6500   44.0240   13.8210 C.2   164  NAP164      0.0033
     43  C5N       30.6740   45.5930   13.6230 C.2   164  NAP164      0.0157
     44  C6N       31.6110   46.4320   14.0740 C.2   164  NAP164      0.0633
     45  P2B       27.6860   60.0910   13.7710 P.3   164  NAP164      0.5328
     46  O1X       28.1680   60.4010   12.3470 O.2   164  NAP164     -0.2224
     47  O2X       26.2590   60.3230   14.0000 O.3   164  NAP164     -0.1145
     48  O3X       28.6250   60.8800   14.7040 O.3   164  NAP164     -0.1145
@<TRIPOS>BOND
     1    46    45    2
     2     3     1    2
     3    43    42    1
     4    43    44    2
     5    45    47    1
     6    45    11    1
     7    45    48    1
     8     7    12    1
     9     7     6    1
    10    42    38    2
    11    34    33    1
    12    44    36    1
    13    21    20    1
    14    21    22    2
    15    11    10    1
    16    12    13    1
    17    12    10    1
    18    20    19    1
    19    33    31    1
    20    33    35    1
    21    40    39    2
    22     4     1    1
    23     4     5    1
    24    38    39    1
    25    38    37    1
    26    22    13    1
    27    22    16    1
    28     1     2    1
    29     1    23    1
    30    13    14    1
    31    36    37    1
    32    36    35    1
    33     6     5    1
    34     6     8    1
    35    19    17    2
    36    39    41   am
    37    10     8    1
    38    31    29    1
    39    31    32    1
    40    35    30    1
    41    16    17    1
    42    16    15    2
    43    17    18    1
    44    14    15    1
    45    28    29    1
    46    28    27    1
    47     8     9    1
    48    23    24    1
    49    29    30    1
    50    27    24    1
    51    24    26    2
    52    24    25    1
