@<TRIPOS>MOLECULE
2anq_C1A_A_1.pdb
 24 24 0 0 0
SMALL
GASTEIGER

@<TRIPOS>ATOM
      1  C1        32.7480   43.2960    7.4930 C.3   500  C1A500      0.0307
      2  C2        33.3320   44.2760    8.5270 C.ar  500  C1A500     -0.0253
      3  C3        34.6640   44.7220    8.2950 C.ar  500  C1A500     -0.0082
      4  C4        35.2460   45.5980    9.1950 C.ar  500  C1A500     -0.0151
      5  C5        36.6550   46.0810    8.9700 C.3   500  C1A500      0.0925
      6  S1        37.3670   45.5700   10.4490 S.3   500  C1A500     -0.0514
      7  C6        38.9200   46.0020   10.2840 C.2   500  C1A500      0.2868
      8  N1        39.2140   46.9100    9.4310 N.2   500  C1A500     -0.1010
      9  N2        39.8980   45.4180   11.1360 N.pl3 500  C1A500     -0.0321
     10  C7        41.2710   45.6700   10.7990 C.cat 500  C1A500      0.5413
     11  N3        42.1690   44.7230   10.9190 N.pl3 500  C1A500      0.1359
     12  N4        41.6920   46.8860   10.2390 N.pl3 500  C1A500      0.1359
     13  C8        34.5330   46.0270   10.2970 C.ar  500  C1A500     -0.0253
     14  C9        35.1680   46.9820   11.2760 C.3   500  C1A500      0.0307
     15  C10       33.2410   45.5840   10.5040 C.ar  500  C1A500     -0.0082
     16  C11       32.6390   44.6730    9.6940 C.ar  500  C1A500     -0.0151
     17  C12       31.2530   44.1540    9.9780 C.3   500  C1A500      0.0925
     18  S2        31.5600   42.5270   10.6800 S.3   500  C1A500     -0.0514
     19  C13       30.2480   41.9950   11.4510 C.2   500  C1A500      0.2868
     20  N5        29.1890   42.9070   11.7490 N.2   500  C1A500     -0.1010
     21  N6        29.9820   40.6180   11.8860 N.pl3 500  C1A500     -0.0321
     22  C14       30.7570   39.5990   11.9580 C.cat 500  C1A500      0.5413
     23  N7        31.9830   39.9120   11.8000 N.pl3 500  C1A500      0.1359
     24  N8        30.4510   38.4600   12.1330 N.pl3 500  C1A500      0.1359
@<TRIPOS>BOND
     1     1     2    1
     2     3     2   ar
     3     3     4   ar
     4     2    16   ar
     5     5     4    1
     6     5     6    1
     7     4    13   ar
     8     8     7    2
     9    16    17    1
    10    16    15   ar
    11    17    18    1
    12    12    10    1
    13     7     6    1
    14     7     9    1
    15    13    15   ar
    16    13    14    1
    17    18    19    1
    18    10    11    1
    19    10     9    2
    20    19    20    2
    21    19    21    1
    22    23    22    1
    23    21    22    2
    24    22    24    1
