@<TRIPOS>MOLECULE
2anq_NAP_A_1.pdb
 48 52 0 0 0
SMALL
GASTEIGER

@<TRIPOS>ATOM
      1  PA        29.2000   53.0070   15.1680 P.3   164  NAP164      0.2189
      2  O1A       28.0120   52.3880   15.8840 O.3   164  NAP164     -0.4371
      3  O2A       29.6660   52.3310   13.9600 O.2   164  NAP164     -0.5170
      4  O5B       28.9350   54.4560   14.7600 O.3   164  NAP164     -0.3112
      5  C5B       27.9750   55.3040   15.4360 C.3   164  NAP164      0.1813
      6  C4B       27.7880   56.5270   14.5770 C.3   164  NAP164      0.1820
      7  O4B       26.6620   56.4190   13.5010 O.3   164  NAP164     -0.3136
      8  C3B       27.2430   57.7150   15.5260 C.3   164  NAP164      0.2157
      9  O3B       28.3870   58.4450   16.0090 O.3   164  NAP164     -0.2175
     10  C2B       26.4050   58.5480   14.5400 C.3   164  NAP164      0.2314
     11  O2B       27.4000   59.1700   13.7030 O.3   164  NAP164     -0.2630
     12  C1B       25.6520   57.4610   13.8640 C.3   164  NAP164      0.3158
     13  N9A       24.5350   56.9110   14.6280 N.pl3 164  NAP164     -0.1439
     14  C8A       24.3710   55.7470   15.4460 C.3   164  NAP164      0.3377
     15  N7A       23.1030   55.7460   15.8860 N.2   164  NAP164     -0.2095
     16  C5A       22.4370   56.8420   15.3910 C.2   164  NAP164      0.2526
     17  C6A       21.1120   57.3470   15.4760 C.2   164  NAP164      0.4393
     18  N6A       20.1540   56.7330   16.1540 N.pl3 164  NAP164      0.2180
     19  N1A       20.7940   58.5270   14.8380 N.2   164  NAP164      0.0021
     20  C2A       21.7450   59.1620   14.1320 C.3   164  NAP164      0.5254
     21  N3A       23.0410   58.7520   13.9610 N.2   164  NAP164     -0.0055
     22  C4A       23.3270   57.5900   14.6130 C.2   164  NAP164      0.3518
     23  O3        30.3620   53.1900   16.1480 O.3   164  NAP164     -0.2703
     24  PN        31.1900   52.6450   17.3790 P.3   164  NAP164      0.2189
     25  O1N       30.0910   52.3300   18.3560 O.3   164  NAP164     -0.4371
     26  O2N       32.1580   53.4410   17.7090 O.2   164  NAP164     -0.5170
     27  O5D       31.6530   51.1640   16.6950 O.3   164  NAP164     -0.3112
     28  C5D       32.7240   51.0830   15.7480 C.3   164  NAP164      0.1813
     29  C4D       33.4520   49.8160   16.3290 C.3   164  NAP164      0.1799
     30  O4D       32.7030   48.5740   16.2170 O.3   164  NAP164     -0.3327
     31  C3D       34.7540   49.6370   15.5140 C.3   164  NAP164      0.2158
     32  O3D       35.7010   49.3620   16.5520 O.3   164  NAP164     -0.2175
     33  C2D       34.4550   48.4730   14.5750 C.3   164  NAP164      0.2309
     34  O2D       35.7030   47.8970   14.2140 O.3   164  NAP164     -0.2158
     35  C1D       33.5920   47.5650   15.4690 C.3   164  NAP164      0.2263
     36  N1N       32.5750   46.7040   14.8620 N.pl3 164  NAP164     -0.2787
     37  C2N       32.7600   45.3050   15.1840 C.3   164  NAP164      0.1244
     38  C3N       31.8990   44.3260   14.7590 C.2   164  NAP164      0.0544
     39  C7N       32.0600   42.8320   15.0410 C.2   164  NAP164      0.2818
     40  O7N       31.2730   42.0300   14.6520 O.2   164  NAP164     -0.2670
     41  N7N       33.2230   42.5690   15.7680 N.am  164  NAP164     -0.0839
     42  C4N       30.5610   44.6520   13.8570 C.2   164  NAP164      0.0033
     43  C5N       30.5490   46.2140   13.5720 C.2   164  NAP164      0.0157
     44  C6N       31.4300   47.1200   14.0470 C.2   164  NAP164      0.0633
     45  P2B       27.4930   60.6790   13.7770 P.3   164  NAP164      0.5328
     46  O1X       27.7470   61.1550   12.4180 O.2   164  NAP164     -0.2224
     47  O2X       26.2360   61.2770   14.3300 O.3   164  NAP164     -0.1145
     48  O3X       28.7300   60.9250   14.5800 O.3   164  NAP164     -0.1145
@<TRIPOS>BOND
     1    46    45    2
     2     7    12    1
     3     7     6    1
     4    43    42    1
     5    43    44    2
     6    11    45    1
     7    11    10    1
     8    45    47    1
     9    45    48    1
    10    42    38    2
    11    12    10    1
    12    12    13    1
    13     3     1    2
    14    21    20    1
    15    21    22    2
    16    44    36    1
    17    20    19    1
    18    34    33    1
    19    10     8    1
    20    33    35    1
    21    33    31    1
    22     6     5    1
    23     6     8    1
    24    22    13    1
    25    22    16    1
    26    13    14    1
    27    40    39    2
    28    38    39    1
    29    38    37    1
    30     4     1    1
    31     4     5    1
    32    19    17    2
    33    36    37    1
    34    36    35    1
    35    39    41   am
    36     1     2    1
    37     1    23    1
    38    16    17    1
    39    16    15    2
    40    14    15    1
    41    35    30    1
    42    17    18    1
    43    31    29    1
    44    31    32    1
    45     8     9    1
    46    28    29    1
    47    28    27    1
    48    23    24    1
    49    30    29    1
    50    27    24    1
    51    24    26    2
    52    24    25    1
