@<TRIPOS>MOLECULE
2ans_2AN_A_1.pdb
 21 23 0 0 0
SMALL
GASTEIGER

@<TRIPOS>ATOM
      1  C1         6.8940   30.9830   17.7950 C.ar  201  2AN201      0.0717
      2  C2         6.4930   32.3010   18.0090 C.ar  201  2AN201      0.0165
      3  C3         5.4440   32.9070   17.3110 C.ar  201  2AN201      0.0013
      4  C4         4.7650   32.2060   16.3730 C.ar  201  2AN201      0.0001
      5  C5         5.0970   30.8560   16.0810 C.ar  201  2AN201      0.0025
      6  C6         4.3460   30.1760   15.0850 C.ar  201  2AN201      0.0001
      7  C7         4.5980   28.8920   14.7490 C.ar  201  2AN201      0.0013
      8  C8         5.6290   28.1950   15.3930 C.ar  201  2AN201      0.0189
      9  N          7.9660   30.5030   18.5680 N.pl3 201  2AN201     -0.2124
     10  S          7.6660   27.5800   17.0110 S.3   201  2AN201      0.0421
     11  C9         6.4260   28.7560   16.3800 C.ar  201  2AN201      0.1135
     12  C10        6.1910   30.1720   16.7870 C.ar  201  2AN201      0.0329
     13  C11        7.9640   30.2300   19.9440 C.ar  201  2AN201      0.0705
     14  C12        8.9440   29.3490   20.4560 C.ar  201  2AN201      0.0165
     15  C13        8.9890   29.0420   21.7990 C.ar  201  2AN201      0.0013
     16  C14        8.0880   29.5790   22.6790 C.ar  201  2AN201      0.0001
     17  C15        7.1080   30.4510   22.2160 C.ar  201  2AN201      0.0013
     18  C16        7.0310   30.7860   20.8610 C.ar  201  2AN201      0.0165
     19  O1         8.9940   28.1230   16.7680 O.3   201  2AN201     -0.0650
     20  O2         7.3750   27.3740   18.4180 O.3   201  2AN201     -0.0650
     21  O3         7.4660   26.3350   16.2770 O.3   201  2AN201     -0.0650
@<TRIPOS>BOND
     1     7     6   ar
     2     7     8   ar
     3     6     5   ar
     4     8    11   ar
     5     5     4   ar
     6     5    12   ar
     7    21    10    1
     8     4     3   ar
     9    11    12   ar
    10    11    10    1
    11    19    10    1
    12    12     1   ar
    13    10    20    1
    14     3     2   ar
    15     1     2   ar
    16     1     9    1
    17     9    13    1
    18    13    14   ar
    19    13    18   ar
    20    14    15   ar
    21    18    17   ar
    22    15    16   ar
    23    17    16   ar
