@<TRIPOS>MOLECULE
2anz_HEM_A_1.pdb
 43 50 0 0 0
SMALL
GASTEIGER

@<TRIPOS>ATOM
      1 FE        -11.4930   -2.7020   -1.7250 Fe    400  HEM400      0.0000
      2  CHA      -14.2490   -0.5610   -1.5220 C.2   400  HEM400      0.0000
      3  CHB      -10.1630   -0.6770   -4.2670 C.2   400  HEM400      0.0000
      4  CHC       -8.6880   -4.6540   -1.8970 C.2   400  HEM400      0.0000
      5  CHD      -12.6740   -4.4860    0.9290 C.2   400  HEM400      0.0000
      6  NA       -12.0370   -0.9920   -2.6440 N.ar  400  HEM400      0.0000
      7  C1A      -13.1990   -0.2870   -2.4050 C.ar  400  HEM400      0.0000
      8  C2A      -13.2240    0.8690   -3.2670 C.ar  400  HEM400      0.0000
      9  C3A      -12.1060    0.8250   -4.0290 C.ar  400  HEM400      0.0000
     10  C4A      -11.3610   -0.3360   -3.6530 C.ar  400  HEM400      0.0000
     11  CMA      -11.6500    1.8040   -5.1310 C.3   400  HEM400      0.0000
     12  CAA      -14.3710    1.8950   -3.2460 C.3   400  HEM400      0.0000
     13  CBA      -14.2560    2.9390   -2.1110 C.3   400  HEM400      0.0000
     14  CGA      -15.3640    3.9420   -2.0800 C.2   400  HEM400      0.0000
     15  O1A      -15.6060    4.5970   -3.1320 O.co2 400  HEM400      0.0000
     16  O2A      -15.9840    4.0650   -1.0010 O.co2 400  HEM400      0.0000
     17  NB        -9.8130   -2.6860   -2.8830 N.2   400  HEM400      0.0000
     18  C1B       -9.4540   -1.7910   -3.8740 C.2   400  HEM400      0.0000
     19  C2B       -8.2710   -2.2500   -4.5640 C.2   400  HEM400      0.0000
     20  C3B       -7.7950   -3.2790   -3.8230 C.2   400  HEM400      0.0000
     21  C4B       -8.8110   -3.6200   -2.8340 C.2   400  HEM400      0.0000
     22  CMB       -7.4630   -1.4710   -5.6160 C.3   400  HEM400      0.0000
     23  CAB       -6.5330   -4.1340   -4.0530 C.2   400  HEM400      0.0000
     24  CBB       -6.3010   -4.7130   -5.2320 C.2   400  HEM400      0.0000
     25  NC       -10.8330   -4.2790   -0.6820 N.ar  400  HEM400      0.0000
     26  C1C       -9.6300   -4.9440   -0.9130 C.ar  400  HEM400      0.0000
     27  C2C       -9.4850   -5.9830    0.0820 C.ar  400  HEM400      0.0000
     28  C3C      -10.5770   -5.9210    0.9150 C.ar  400  HEM400      0.0000
     29  C4C      -11.4260   -4.8340    0.4150 C.ar  400  HEM400      0.0000
     30  CMC       -8.2630   -6.9620    0.2060 C.3   400  HEM400      0.0000
     31  CAC      -10.9540   -6.7510    2.1660 C.2   400  HEM400      0.0000
     32  CBC      -10.6550   -8.0420    2.3190 C.2   400  HEM400      0.0000
     33  ND       -13.1040   -2.4260   -0.4820 N.2   400  HEM400      0.0000
     34  C1D      -13.4740   -3.4450    0.4440 C.2   400  HEM400      0.0000
     35  C2D      -14.8420   -3.1870    0.8900 C.2   400  HEM400      0.0000
     36  C3D      -15.2930   -2.1320    0.2130 C.2   400  HEM400      0.0000
     37  C4D      -14.2220   -1.6680   -0.6760 C.2   400  HEM400      0.0000
     38  CMD      -15.6220   -4.0480    1.9150 C.3   400  HEM400      0.0000
     39  CAD      -16.6810   -1.4660    0.2240 C.3   400  HEM400      0.0000
     40  CBD      -16.6750   -0.3380    1.2480 C.3   400  HEM400      0.0000
     41  CGD      -17.9540    0.4610    1.4250 C.2   400  HEM400      0.0000
     42  O1D      -18.9420   -0.0510    0.8430 O.co2 400  HEM400      0.0000
     43  O2D      -17.9280    1.5170    2.1060 O.co2 400  HEM400      0.0000
@<TRIPOS>BOND
     1    22    19    1
     2    24    23    2
     3    11     9    1
     4    19    18    1
     5    19    20    2
     6     3    18    1
     7     3    10    2
     8    23    20    1
     9     9    10   ar
    10     9     8   ar
    11    18    17    2
    12    20    21    1
    13    10     6   ar
    14     8    12    1
    15     8     7   ar
    16    12    13    1
    17    15    14   ar
    18    17    21    1
    19    17     1    1
    20    21     4    2
    21     6     7   ar
    22     6     1    1
    23     7     2    2
    24    13    14    1
    25    14    16   ar
    26     4    26    1
    27     1    25    1
    28     1    33    1
    29     2    37    1
    30    26    25   ar
    31    26    27   ar
    32    25    29   ar
    33    37    33    2
    34    37    36    1
    35    33    34    1
    36    27    30    1
    37    27    28   ar
    38    36    39    1
    39    36    35    2
    40    39    40    1
    41    29    28   ar
    42    29     5    1
    43    34    35    1
    44    34     5    2
    45    42    41   ar
    46    35    38    1
    47    28    31    1
    48    40    41    1
    49    41    43   ar
    50    31    32    2
