@<TRIPOS>MOLECULE
2ao2_TRP_B_1.pdb
 15 16 0 0 0
SMALL
GASTEIGER

@<TRIPOS>ATOM
      1  N         41.7720   62.9760   46.7520 N.3   2001  TRP2001    -0.1205
      2  CA        40.3780   62.8010   47.2650 C.3   2001  TRP2001     0.1984
      3  C         39.6310   61.6840   46.5170 C.2   2001  TRP2001     0.3822
      4  O         40.1780   60.9380   45.6880 O.co2 2001  TRP2001    -0.2440
      5  CB        39.6200   64.1230   47.1620 C.3   2001  TRP2001     0.0549
      6  CG        38.2270   64.1900   47.7420 C.2   2001  TRP2001    -0.0138
      7  CD1       37.2160   65.0050   47.3110 C.2   2001  TRP2001     0.0907
      8  CD2       37.6880   63.4510   48.8610 C.3   2001  TRP2001     0.0819
      9  NE1       36.0840   64.8330   48.0790 N.2   2001  TRP2001    -0.2482
     10  CE2       36.3390   63.8840   49.0350 C.2   2001  TRP2001     0.0665
     11  CE3       38.2010   62.4640   49.7180 C.2   2001  TRP2001    -0.0164
     12  CZ2       35.5060   63.3610   50.0180 C.2   2001  TRP2001     0.0153
     13  CZ3       37.3750   61.9470   50.7030 C.2   2001  TRP2001    -0.0038
     14  CH2       36.0350   62.4050   50.8500 C.2   2001  TRP2001     0.0009
     15  OXT       38.4340   61.5160   46.7460 O.co2 2001  TRP2001    -0.2440
@<TRIPOS>BOND
     1     4     3   ar
     2     3    15   ar
     3     3     2    1
     4     1     2    1
     5     5     2    1
     6     5     6    1
     7     7     6    2
     8     7     9    1
     9     6     8    1
    10     9    10    2
    11     8    10    1
    12     8    11    1
    13    10    12    1
    14    11    13    2
    15    12    14    2
    16    13    14    1
