@<TRIPOS>MOLECULE
2ao6_R18_A_1.pdb
 21 24 0 0 0
SMALL
GASTEIGER

@<TRIPOS>ATOM
      1  C1        27.2230    5.6740    3.6940 C.3   1001  R181001     0.0338
      2  C2        26.3530    6.8180    4.2060 C.3   1001  R181001     0.0738
      3  C3        24.8960    6.6830    3.7900 C.2   1001  R181001     0.1731
      4  C4        24.3220    5.3580    3.9950 C.2   1001  R181001     0.0329
      5  C5        25.0940    4.2280    4.0720 C.2   1001  R181001    -0.0236
      6  C6        24.3940    2.8690    4.3110 C.3   1001  R181001     0.0265
      7  C7        25.1900    1.7150    3.7000 C.3   1001  R181001     0.0090
      8  C8        26.6350    1.7090    4.2960 C.3   1001  R181001     0.0227
      9  C9        27.3540    3.0980    4.0390 C.2   1001  R181001    -0.0270
     10  C10       26.6080    4.2590    3.9420 C.2   1001  R181001    -0.0296
     11  C11       28.8360    3.0620    3.9340 C.2   1001  R181001    -0.0091
     12  C12       29.5820    1.9280    4.0330 C.2   1001  R181001    -0.0247
     13  C13       28.9390    0.5400    4.2460 C.3   1001  R181001     0.0447
     14  C14       27.4720    0.5830    3.6920 C.3   1001  R181001     0.0101
     15  C15       26.9510   -0.8690    3.8880 C.3   1001  R181001     0.0032
     16  C16       28.2610   -1.6930    3.7160 C.3   1001  R181001     0.0308
     17  C17       29.4430   -0.6890    3.4440 C.3   1001  R181001     0.1300
     18  C18       28.9380    0.2760    5.8040 C.3   1001  R181001     0.0068
     19  C27       29.5480   -0.4410    1.9370 C.3   1001  R181001     0.0333
     20  O83       24.2400    7.6200    3.3440 O.2   1001  R181001    -0.2913
     21  O97       30.6520   -1.2580    3.9540 O.3   1001  R181001    -0.2254
@<TRIPOS>BOND
     1    19    17    1
     2    20     3    2
     3    17    16    1
     4    17    21    1
     5    17    13    1
     6    14    15    1
     7    14    13    1
     8    14     8    1
     9     1    10    1
    10     1     2    1
    11     7     8    1
    12     7     6    1
    13    16    15    1
    14     3     4    1
    15     3     2    1
    16    11    12    2
    17    11     9    1
    18    10     9    2
    19    10     5    1
    20     4     5    2
    21    12    13    1
    22     9     8    1
    23     5     6    1
    24    13    18    1
