@<TRIPOS>MOLECULE
2aos_III_D_1.pdb
 36 40 0 0 0
SMALL
GASTEIGER

@<TRIPOS>ATOM
      1  N         -2.8270   -8.9020   45.8860 N.3     1  TRP1       -0.1228
      2  CA        -1.8270   -8.2770   44.9750 C.3     1  TRP1        0.1719
      3  C         -2.2960   -8.1130   43.5000 C.2     1  TRP1        0.2437
      4  O         -1.5320   -7.6270   42.6760 O.2     1  TRP1       -0.2733
      5  CB        -0.5590   -9.1080   45.0040 C.3     1  TRP1        0.0526
      6  CG         0.7240   -8.3870   44.6640 C.2     1  TRP1       -0.0139
      7  CD1        1.9870   -8.9070   44.7940 C.2     1  TRP1        0.0907
      8  CD2        0.9030   -7.0420   44.1670 C.3     1  TRP1        0.0819
      9  NE1        2.9310   -7.9810   44.4270 N.2     1  TRP1       -0.2482
     10  CE2        2.2930   -6.8330   44.0260 C.2     1  TRP1        0.0665
     11  CE3        0.0310   -5.9860   43.8330 C.2     1  TRP1       -0.0164
     12  CZ2        2.8310   -5.6430   43.5640 C.2     1  TRP1        0.0153
     13  CZ3        0.5730   -4.7940   43.3670 C.2     1  TRP1       -0.0038
     14  CH2        1.9700   -4.6370   43.2370 C.2     1  TRP1        0.0009
     15  N         -3.5060   -8.6040   43.1750 N.am    2  PRO2       -0.2718
     16  CA        -4.2470   -8.6020   41.8910 C.3     2  PRO2        0.1535
     17  C         -4.8320   -7.3540   41.2030 C.2     2  PRO2        0.2599
     18  O         -4.6590   -6.2500   41.7140 O.2     2  PRO2       -0.2715
     19  CB        -5.3570   -9.6080   42.2040 C.3     2  PRO2        0.0310
     20  CG        -4.5870  -10.6060   42.9930 C.3     2  PRO2        0.0237
     21  CD        -4.0750   -9.6390   44.0450 C.3     2  PRO2        0.0939
     22  N         -5.4800   -7.6150   40.0360 N.am    3  TRP3       -0.1938
     23  CA        -6.1750   -6.6930   39.0760 C.3     3  TRP3        0.2021
     24  C         -5.3340   -6.4230   37.8130 C.2     3  TRP3        0.3845
     25  O         -5.9670   -6.1630   36.7610 O.co2   3  TRP3       -0.2437
     26  CB        -6.5800   -5.3400   39.6560 C.3     3  TRP3        0.0612
     27  CG        -8.0590   -4.8750   39.5830 C.2     3  TRP3        0.0004
     28  CD1       -8.8760   -4.7130   40.6720 C.2     3  TRP3        0.0946
     29  CD2       -8.8190   -4.3460   38.4520 C.2     3  TRP3        0.0113
     30  NE1      -10.0720   -4.1480   40.3110 N.2     3  TRP3       -0.2442
     31  CE2      -10.0710   -3.9120   38.9620 C.2     3  TRP3        0.0804
     32  CE3       -8.5830   -4.2160   37.0720 C.2     3  TRP3       -0.0202
     33  CZ2      -11.0750   -3.3480   38.1550 C.2     3  TRP3        0.0148
     34  CZ3       -9.6000   -3.6580   36.2620 C.3     3  TRP3        0.0521
     35  CH2      -10.8250   -3.2300   36.8170 C.2     3  TRP3       -0.0199
     36  OXT       -4.0790   -6.4460   37.8960 O.co2   3  TRP3       -0.2437
@<TRIPOS>BOND
     1    34    35    1
     2    34    32    1
     3    25    24   ar
     4    35    33    2
     5    32    29    2
     6    24    36   ar
     7    24    23    1
     8    33    31    1
     9    29    31    1
    10    29    27    1
    11    31    30    2
    12    23    26    1
    13    23    22    1
    14    27    26    1
    15    27    28    2
    16    22    17   am
    17    30    28    1
    18    17    18    2
    19    17    16    1
    20    16    19    1
    21    16    15    1
    22    19    20    1
    23     4     3    2
    24    20    21    1
    25    15     3   am
    26    15    21    1
    27    14    13    1
    28    14    12    2
    29    13    11    2
    30     3     2    1
    31    12    10    1
    32    11     8    1
    33    10     8    1
    34    10     9    2
    35     8     6    1
    36     9     7    1
    37     6     7    2
    38     6     5    1
    39     2     5    1
    40     2     1    1
