@<TRIPOS>MOLECULE
2aot_2PM_A_1.pdb
 19 20 0 0 0
SMALL
GASTEIGER

@<TRIPOS>ATOM
      1  C1        53.9330  -11.1150   32.9370 C.ar  400  2PM400     -0.0002
      2  C2        55.2140  -11.5790   33.3190 C.ar  400  2PM400     -0.0000
      3  C3        55.8440  -12.6120   32.5900 C.ar  400  2PM400     -0.0002
      4  C4        55.1990  -13.1870   31.4790 C.ar  400  2PM400     -0.0016
      5  C5        53.8840  -12.7170   31.0840 C.ar  400  2PM400      0.0087
      6  C6        53.2720  -11.6820   31.8240 C.ar  400  2PM400     -0.0016
      7  C7        53.1690  -13.3240   29.8920 C.3   400  2PM400      0.1598
      8  C8        52.0990  -14.3120   30.3370 C.ar  400  2PM400      0.0087
      9  C9        50.7420  -14.0990   29.9940 C.ar  400  2PM400     -0.0016
     10  C10       49.7500  -15.0130   30.4080 C.ar  400  2PM400     -0.0002
     11  C11       50.1040  -16.1450   31.1660 C.ar  400  2PM400     -0.0000
     12  C12       51.4530  -16.3670   31.5120 C.ar  400  2PM400     -0.0002
     13  C13       52.4470  -15.4570   31.1000 C.ar  400  2PM400     -0.0016
     14  O1        52.9440  -12.6110   28.6950 O.3   400  2PM400     -0.3459
     15  C14       54.0140  -12.0260   27.9970 C.3   400  2PM400      0.1602
     16  C15       53.4370  -11.0070   27.0240 C.3   400  2PM400      0.1047
     17  N1        52.9840   -9.6870   27.4060 N.3   400  2PM400     -0.2682
     18  C16       53.8260   -8.8830   28.2590 C.3   400  2PM400      0.0897
     19  C17       51.6780   -9.7080   28.0020 C.3   400  2PM400      0.0897
@<TRIPOS>BOND
     1    16    17    1
     2    16    15    1
     3    17    19    1
     4    17    18    1
     5    15    14    1
     6    14     7    1
     7     7     8    1
     8     7     5    1
     9     9     8   ar
    10     9    10   ar
    11     8    13   ar
    12    10    11   ar
    13     5     4   ar
    14     5     6   ar
    15    13    12   ar
    16    11    12   ar
    17     4     3   ar
    18     6     1   ar
    19     3     2   ar
    20     1     2   ar
