@<TRIPOS>MOLECULE
2aot_SAH_A_1.pdb
 26 28 0 0 0
SMALL
GASTEIGER

@<TRIPOS>ATOM
      1  N         47.0430   -1.8580   31.3340 N.3   500  SAH500     -0.1208
      2  CA        48.4330   -1.7690   31.8040 C.3   500  SAH500      0.1952
      3  CB        49.1470   -3.1350   31.8270 C.3   500  SAH500      0.0422
      4  CG        48.4700   -4.2420   32.5600 C.3   500  SAH500      0.0597
      5  SD        49.5610   -5.3020   33.4930 S.3   500  SAH500     -0.1375
      6  C         49.3300   -1.0670   30.8020 C.2   500  SAH500      0.3819
      7  O         49.1220   -1.3930   29.6080 O.co2 500  SAH500     -0.2441
      8  OXT       50.4610   -0.7550   31.2000 O.co2 500  SAH500     -0.2441
      9  C5'       48.1260   -6.1870   34.0920 C.3   500  SAH500      0.0899
     10  C4'       47.2880   -5.3790   35.0210 C.3   500  SAH500      0.1630
     11  O4'       46.1540   -6.2090   35.2910 O.3   500  SAH500     -0.3153
     12  C3'       48.0450   -5.0340   36.3860 C.3   500  SAH500      0.2168
     13  O3'       47.9760   -3.6150   36.8020 O.3   500  SAH500     -0.2175
     14  C2'       47.2670   -5.9810   37.3100 C.3   500  SAH500      0.2569
     15  O2'       47.3070   -5.7100   38.7160 O.3   500  SAH500     -0.2130
     16  C1'       45.8880   -6.0390   36.6630 C.3   500  SAH500      0.3185
     17  N9        45.0520   -7.1860   36.9620 N.pl3 500  SAH500     -0.1439
     18  C8        45.4490   -8.4940   37.3390 C.3   500  SAH500      0.3377
     19  N7        44.4220   -9.2690   37.5000 N.2   500  SAH500     -0.2095
     20  C5        43.2950   -8.4750   37.2040 C.2   500  SAH500      0.2526
     21  C6        41.8820   -8.6870   37.1620 C.2   500  SAH500      0.4393
     22  N6        41.3190   -9.8800   37.4290 N.pl3 500  SAH500      0.2180
     23  N1        41.0450   -7.6400   36.8620 N.2   500  SAH500      0.0021
     24  C2        41.5610   -6.4310   36.6180 C.3   500  SAH500      0.5254
     25  N3        42.8530   -6.1150   36.5910 N.2   500  SAH500     -0.0055
     26  C4        43.6730   -7.1790   36.8920 C.2   500  SAH500      0.3518
@<TRIPOS>BOND
     1     7     6   ar
     2     6     8   ar
     3     6     2    1
     4     1     2    1
     5     2     3    1
     6     3     4    1
     7     4     5    1
     8     5     9    1
     9     9    10    1
    10    10    11    1
    11    10    12    1
    12    11    16    1
    13    12    13    1
    14    12    14    1
    15    25    24    1
    16    25    26    2
    17    24    23    1
    18    16    17    1
    19    16    14    1
    20    23    21    2
    21    26    17    1
    22    26    20    1
    23    17    18    1
    24    21    20    1
    25    21    22    1
    26    20    19    2
    27    14    15    1
    28    18    19    1
