@<TRIPOS>MOLECULE
2aou_CQA_A_1.pdb
 25 27 0 0 0
SMALL
GASTEIGER

@<TRIPOS>ATOM
      1  C1        53.0060   -5.0200   36.6160 C.ar  402  CQA402      0.0592
      2  C2        52.0880   -4.6520   35.5600 C.ar  402  CQA402      0.0115
      3  C3        51.8960   -5.5390   34.4320 C.ar  402  CQA402      0.0037
      4  C4        52.6270   -6.7900   34.3590 C.ar  402  CQA402      0.0330
      5  C5        53.5510   -7.1500   35.4350 C.ar  402  CQA402      0.0834
      6  C6        53.7320   -6.2600   36.5550 C.ar  402  CQA402      0.0305
      7  C7        52.4820   -7.7080   33.2470 C.ar  402  CQA402      0.0734
      8  C8        53.2650   -8.9400   33.2630 C.ar  402  CQA402      0.0372
      9  C9        54.1470   -9.2070   34.3510 C.ar  402  CQA402      0.1002
     10  N1        54.2820   -8.3310   35.4110 N.ar  402  CQA402     -0.2437
     11 CL         53.2780   -4.0030   37.9660 Cl    402  CQA402     -0.0822
     12  N2        51.5570   -7.3920   32.1290 N.pl3 402  CQA402     -0.2124
     13  C10       51.7620   -7.9990   30.8030 C.ar  402  CQA402      0.0704
     14  C11       52.2390   -7.1460   29.7490 C.ar  402  CQA402      0.0198
     15  C12       52.3870   -7.6880   28.4230 C.ar  402  CQA402      0.0431
     16  C13       52.0850   -9.0710   28.1240 C.ar  402  CQA402      0.1931
     17  C14       51.6220   -9.9360   29.2160 C.ar  402  CQA402      0.0341
     18  C15       51.4580   -9.3700   30.5100 C.ar  402  CQA402      0.0168
     19  O         52.2610   -9.5310   26.6840 O.3   402  CQA402     -0.2869
     20  C16       51.5420  -11.3140   28.6290 C.3   402  CQA402      0.1024
     21  N3        52.4700  -12.4260   28.6670 N.3   402  CQA402     -0.2689
     22  C17       52.6450  -12.4780   27.2420 C.3   402  CQA402      0.0724
     23  C18       52.1520  -13.0520   25.9320 C.3   402  CQA402      0.0188
     24  C19       51.6370  -13.4900   29.1610 C.3   402  CQA402      0.0724
     25  C20       50.9020  -14.3070   30.2070 C.3   402  CQA402      0.0188
@<TRIPOS>BOND
     1    23    22    1
     2    19    16    1
     3    22    21    1
     4    16    15   ar
     5    16    17   ar
     6    15    14   ar
     7    20    21    1
     8    20    17    1
     9    21    24    1
    10    24    25    1
    11    17    18   ar
    12    14    13   ar
    13    18    13   ar
    14    13    12    1
    15    12     7    1
    16     7     8   ar
    17     7     4   ar
    18     8     9   ar
    19     9    10   ar
    20     4     3   ar
    21     4     5   ar
    22     3     2   ar
    23    10     5   ar
    24     5     6   ar
    25     2     1   ar
    26     6     1   ar
    27     1    11    1
