@<TRIPOS>MOLECULE
2aov_4DI_A_1.pdb
 11 10 0 0 0
SMALL
GASTEIGER

@<TRIPOS>ATOM
      1  C1        35.8890  -26.7740    4.9300 C.2   301  4DI301      0.2304
      2  S         37.3340  -27.8760    5.0120 S.3   301  4DI301     -0.0721
      3  C2        38.9850  -27.4000    4.4330 C.3   301  4DI301      0.0700
      4  C3        39.6320  -28.6890    4.9590 C.3   301  4DI301      0.0395
      5  C4        40.9870  -29.1270    4.4060 C.2   301  4DI301     -0.0095
      6  C5        41.9010  -30.2910    4.9000 C.2   301  4DI301      0.0568
      7  N1        42.9910  -30.9450    4.1390 N.pl3 301  4DI301     -0.3034
      8  C6        43.6190  -31.4450    5.3320 C.3   301  4DI301      0.1123
      9  C7        44.0400  -30.4570    3.2560 C.3   301  4DI301      0.1123
     10  N2        35.8250  -25.5310    4.7190 N.pl3 301  4DI301     -0.1181
     11  N3        34.6200  -27.4180    5.2450 N.pl3 301  4DI301     -0.1181
@<TRIPOS>BOND
     1     9     7    1
     2     7     6    1
     3     7     8    1
     4     5     6    2
     5     5     4    1
     6     3     4    1
     7     3     2    1
     8    10     1    2
     9     1     2    1
    10     1    11    1
