@<TRIPOS>MOLECULE
2aov_C2M_A_1.pdb
 17 18 0 0 0
SMALL
GASTEIGER

@<TRIPOS>ATOM
      1  N1        43.5450  -32.7960   -5.1450 N.2   401  C2M401     -0.3339
      2  C2        43.7500  -31.8430   -4.1540 C.1   401  C2M401      0.2419
      3  N2        43.3610  -32.1760   -2.8850 N.2   401  C2M401     -0.3112
      4  C3        42.7850  -33.3930   -2.5640 C.2   401  C2M401      0.2201
      5  C4        42.5230  -34.4560   -3.5710 C.3   401  C2M401      0.1421
      6  C5        42.9590  -34.0470   -4.8990 C.2   401  C2M401      0.1126
      7  C6        41.8980  -35.7450   -3.2280 C.ar  401  C2M401     -0.0072
      8  C7        40.4320  -35.7700   -3.0100 C.ar  401  C2M401      0.0088
      9  C8        39.7500  -37.0130   -2.6520 C.ar  401  C2M401      0.0679
     10  C9        40.5580  -38.3030   -2.4970 C.ar  401  C2M401      0.0682
     11  C10       42.0170  -38.2860   -2.7190 C.ar  401  C2M401      0.0119
     12  C11       42.6820  -37.0100   -3.0840 C.ar  401  C2M401     -0.0025
     13  N3        44.3390  -30.5340   -4.4350 N.pl3 401  C2M401     -0.0232
     14  N4        42.4460  -33.5760   -1.1910 N.pl3 401  C2M401     -0.0962
     15  C12       42.8540  -34.8450   -6.1550 C.3   401  C2M401      0.0634
     16 CL1        39.8860  -39.7840   -2.0590 Cl    401  C2M401     -0.0814
     17 CL2        38.0910  -36.8700   -2.4440 Cl    401  C2M401     -0.0814
@<TRIPOS>BOND
     1    15     6    1
     2     1     6    2
     3     1     2    2
     4     6     5    1
     5    13     2    1
     6     2     3    2
     7     5     7    1
     8     5     4    1
     9     7    12   ar
    10     7     8   ar
    11    12    11   ar
    12     8     9   ar
    13     3     4    2
    14    11    10   ar
    15     9    10   ar
    16     9    17    1
    17     4    14    1
    18    10    16    1
