@<TRIPOS>MOLECULE
2aow_THA_A_1.pdb
 15 17 0 0 0
SMALL
GASTEIGER

@<TRIPOS>ATOM
      1  C1        52.1450   -6.0350   31.2170 C.3   400  THA400      0.0078
      2  C2        51.9390   -7.5870   31.5160 C.3   400  THA400      0.0587
      3  C3        52.5520   -8.5520   30.4780 C.2   400  THA400      0.1063
      4  C4        53.2010   -8.0970   29.1830 C.2   400  THA400      0.0200
      5  C5        53.2760   -6.5890   28.9050 C.3   400  THA400      0.0300
      6  C6        52.3210   -5.6420   29.7310 C.3   400  THA400      0.0052
      7  N7        52.4600   -9.8980   30.8010 N.2   400  THA400     -0.4065
      8  C8        52.9120  -10.9630   29.8790 C.2   400  THA400      0.1316
      9  C9        53.5860  -10.5440   28.5470 C.2   400  THA400      0.0421
     10  C10       53.7380   -9.1000   28.2080 C.2   400  THA400      0.0893
     11  C11       52.7100  -12.3470   30.2650 C.2   400  THA400      0.0278
     12  C12       53.1610  -13.3640   29.3680 C.2   400  THA400     -0.0188
     13  C13       53.8300  -12.9660   28.0750 C.3   400  THA400      0.0522
     14  C14       54.0470  -11.5890   27.6510 C.2   400  THA400     -0.0175
     15  N15       54.3850   -8.7090   26.9110 N.pl3 400  THA400     -0.1282
@<TRIPOS>BOND
     1    15    10    1
     2    14    13    1
     3    14     9    2
     4    13    12    1
     5    10     9    1
     6    10     4    2
     7     9     8    1
     8     5     4    1
     9     5     6    1
    10     4     3    1
    11    12    11    2
    12     6     1    1
    13     8    11    1
    14     8     7    2
    15     3     7    2
    16     3     2    1
    17     1     2    1
