@<TRIPOS>MOLECULE
2aox_THA_A_1.pdb
 15 17 0 0 0
SMALL
GASTEIGER

@<TRIPOS>ATOM
      1  C1        51.8020   -5.6770   30.6340 C.3   400  THA400      0.0078
      2  C2        51.6420   -7.1800   31.2170 C.3   400  THA400      0.0587
      3  C3        52.0990   -8.2670   30.2830 C.2   400  THA400      0.1059
      4  C4        52.8870   -7.9830   29.0650 C.2   400  THA400      0.0200
      5  C5        53.2950   -6.5630   28.6640 C.3   400  THA400      0.0300
      6  C6        52.9660   -5.3990   29.6420 C.3   400  THA400      0.0052
      7  N7        51.7520   -9.5340   30.6130 N.2   400  THA400     -0.4105
      8  C8        52.1910  -10.7210   29.7860 C.2   400  THA400      0.1141
      9  C9        52.9800  -10.4410   28.5340 C.2   400  THA400      0.0422
     10  C10       53.3020   -9.0660   28.1970 C.2   400  THA400      0.0893
     11  C11       51.8670  -12.1120   30.1510 C.3   400  THA400      0.0849
     12  C12       52.3090  -13.1960   29.3010 C.2   400  THA400     -0.0187
     13  C13       53.0730  -12.8760   28.0910 C.2   400  THA400     -0.0040
     14  C14       53.4090  -11.5310   27.7040 C.2   400  THA400      0.0032
     15  N15       54.0600   -8.7480   26.9680 N.pl3 400  THA400     -0.1282
@<TRIPOS>BOND
     1    15    10    1
     2    14    13    1
     3    14     9    2
     4    13    12    2
     5    10     9    1
     6    10     4    2
     7     9     8    1
     8     5     4    1
     9     5     6    1
    10     4     3    1
    11    12    11    1
    12     6     1    1
    13     8    11    1
    14     8     7    2
    15     3     7    2
    16     3     2    1
    17     1     2    1
