@<TRIPOS>MOLECULE
2apc_UDM_A_1.pdb
 39 41 0 0 0
SMALL
GASTEIGER

@<TRIPOS>ATOM
      1  C1'        2.8600   20.1180   15.0100 C.3   449  UDM449      0.1500
      2  C2'        2.5190   18.7530   15.6570 C.3   449  UDM449      0.1558
      3  C3'        1.3470   18.2000   14.8470 C.3   449  UDM449      0.2068
      4  C4'        0.1320   19.1580   14.9520 C.3   449  UDM449      0.2134
      5  C5'        0.5090   20.5950   14.5590 C.3   449  UDM449      0.1808
      6  C6'       -0.5720   21.5550   15.1010 C.3   449  UDM449      0.2141
      7  C7'        4.2790   17.3820   16.6650 C.2   449  UDM449      0.2420
      8  C8'        5.4440   16.4520   16.5010 C.3   449  UDM449      0.0964
      9  N2'        3.6690   17.8290   15.5500 N.am  449  UDM449     -0.2019
     10  CB         3.1500   20.1900   13.5110 C.3   449  UDM449      0.1496
     11  O3'        0.9440   16.9110   15.3440 O.3   449  UDM449     -0.2184
     12  O4'       -0.9960   18.7800   14.1450 O.3   449  UDM449     -0.2176
     13  O5'        1.7120   20.9820   15.2710 O.3   449  UDM449     -0.3509
     14  O6'       -0.2390   22.9340   14.8110 O.3   449  UDM449     -0.2176
     15  O7'        3.9200   17.6980   17.8030 O.2   449  UDM449     -0.2733
     16  N1        -0.6780   19.6500    6.9410 N.am  449  UDM449     -0.1766
     17  C2        -1.9280   20.0100    6.3960 C.1   449  UDM449      0.2845
     18  N3        -1.8950   21.1640    5.6590 N.2   449  UDM449     -0.2452
     19  C4        -0.7500   21.9690    5.4310 C.1   449  UDM449      0.2182
     20  C5         0.4750   21.5090    6.0440 C.2   449  UDM449      0.1242
     21  C6         0.4790   20.4060    6.7520 C.2   449  UDM449      0.0929
     22  O2        -2.9540   19.3640    6.5560 O.2   449  UDM449     -0.1918
     23  O4        -0.8780   22.9730    4.7480 O.2   449  UDM449     -0.2085
     24  C1D       -0.6150   18.4090    7.7420 C.3   449  UDM449      0.2401
     25  C2D        0.4960   17.4340    7.4420 C.3   449  UDM449      0.2319
     26  O2'        0.1550   16.6170    6.3180 O.3   449  UDM449     -0.2157
     27  C3D        0.6000   16.6380    8.7580 C.3   449  UDM449      0.2158
     28  C4D        0.1900   17.6490    9.8290 C.3   449  UDM449      0.1799
     29  O4D       -0.5040   18.7270    9.1240 O.3   449  UDM449     -0.3320
     30  O3D       -0.2990   15.5030    8.7780 O.3   449  UDM449     -0.2175
     31  C5D        1.2860   18.2650   10.6970 C.3   449  UDM449      0.1813
     32  O5D        2.2210   18.9330    9.8520 O.3   449  UDM449     -0.3111
     33  PA         3.7810   18.6660    9.9200 P.3   449  UDM449      0.2208
     34  O1A        4.0530   17.2280   10.1860 O.3   449  UDM449     -0.4371
     35  O2A        4.3260   19.2220    8.6690 O.2   449  UDM449     -0.5170
     36  O3A        4.4600   19.5300   11.1410 O.3   449  UDM449     -0.2485
     37  PB         4.5440   19.4250   12.7130 P.3   449  UDM449      0.3768
     38  O1B        4.6680   17.9530   12.9530 O.2   449  UDM449     -0.2551
     39  O2B        5.8050   20.1550   13.0840 O.3   449  UDM449     -0.1395
@<TRIPOS>BOND
     1    23    19    2
     2    19    18    2
     3    19    20    1
     4    18    17    2
     5    20    21    2
     6    26    25    1
     7    17    22    2
     8    17    16   am
     9    21    16    1
    10    16    24    1
    11    25    24    1
    12    25    27    1
    13    24    29    1
    14    35    33    2
    15    27    30    1
    16    27    28    1
    17    29    28    1
    18    28    31    1
    19    32    33    1
    20    32    31    1
    21    33    34    1
    22    33    36    1
    23    36    37    1
    24    37    38    2
    25    37    39    1
    26    37    10    1
    27    10     1    1
    28    12     4    1
    29     5     4    1
    30     5     6    1
    31     5    13    1
    32    14     6    1
    33     3     4    1
    34     3    11    1
    35     3     2    1
    36     1    13    1
    37     1     2    1
    38     9     2    1
    39     9     7   am
    40     8     7    1
    41     7    15    2
