@<TRIPOS>MOLECULE
2aq4_DCP_A_1.pdb
 28 29 0 0 0
SMALL
GASTEIGER

@<TRIPOS>ATOM
      1  N1        27.2760   64.3550   50.2010 N.am  201  DCP201     -0.1802
      2  C2        28.4740   63.6930   50.0000 C.1   201  DCP201      0.2756
      3  N3        29.6710   64.3000   50.3570 N.2   201  DCP201     -0.3024
      4  C4        29.7050   65.5110   51.0340 C.2   201  DCP201      0.2346
      5  C5        28.4780   66.1340   51.3940 C.2   201  DCP201      0.0687
      6  C6        27.2870   65.4770   51.0370 C.2   201  DCP201      0.0835
      7  O2        28.5460   62.5790   49.4650 O.2   201  DCP201     -0.1925
      8  N4        30.8790   66.0470   51.2900 N.pl3 201  DCP201     -0.0921
      9  C1'       25.9720   63.6090   49.9750 C.3   201  DCP201      0.2090
     10  C2'       25.5510   62.7050   51.1190 C.3   201  DCP201      0.0874
     11  C3'       24.6280   63.5040   52.0020 C.3   201  DCP201      0.1857
     12  C4'       23.9010   64.2780   50.8550 C.3   201  DCP201      0.1773
     13  O4'       24.8860   64.5390   49.8710 O.3   201  DCP201     -0.3339
     14  O3'       23.7440   62.5760   52.6870 O.3   201  DCP201     -0.2203
     15  C5'       23.2150   65.5940   51.1860 C.3   201  DCP201      0.1812
     16  O5'       24.2730   66.3440   51.7450 O.3   201  DCP201     -0.3112
     17  PA        24.0930   67.3040   53.0260 P.3   201  DCP201      0.2189
     18  O1A       22.6230   67.7590   53.1720 O.3   201  DCP201     -0.4371
     19  O2A       25.0830   68.4440   52.9140 O.2   201  DCP201     -0.5170
     20  O3A       24.3990   66.4810   54.3780 O.3   201  DCP201     -0.2700
     21  PB        23.5350   65.3350   55.0780 P.3   201  DCP201      0.2277
     22  O1B       24.2500   64.0480   55.1700 O.3   201  DCP201     -0.4368
     23  O2B       22.0960   65.2530   54.5370 O.2   201  DCP201     -0.5168
     24  O3B       23.5230   65.8830   56.5740 O.3   201  DCP201     -0.2258
     25  PG        22.6540   67.0590   57.1870 P.3   201  DCP201      0.5373
     26  O1G       23.7560   67.9540   57.8240 O.3   201  DCP201     -0.1143
     27  O2G       21.6590   66.3450   58.2070 O.3   201  DCP201     -0.1143
     28  O3G       21.7770   67.7860   56.0630 O.2   201  DCP201     -0.2221
@<TRIPOS>BOND
     1     7     2    2
     2    13     9    1
     3    13    12    1
     4     9     1    1
     5     9    10    1
     6     2     1   am
     7     2     3    2
     8     1     6    1
     9     3     4    2
    10    12    15    1
    11    12    11    1
    12     4     8    1
    13     4     5    1
    14     6     5    2
    15    10    11    1
    16    15    16    1
    17    16    17    1
    18    11    14    1
    19    19    17    2
    20    17    18    1
    21    17    20    1
    22    20    21    1
    23    23    21    2
    24    21    22    1
    25    21    24    1
    26    28    25    2
    27    24    25    1
    28    25    26    1
    29    25    27    1
