@<TRIPOS>MOLECULE
2aq6_PLP_A_1.pdb
 16 16 0 0 0
SMALL
GASTEIGER

@<TRIPOS>ATOM
      1  N1         8.5910   28.8530   51.0950 N.ar  401  PLP401     -0.2452
      2  C2         9.7240   29.6560   51.4750 C.ar  401  PLP401      0.0982
      3  C2A        9.5000   30.9350   52.3090 C.3   401  PLP401      0.0555
      4  C3        11.0660   29.2580   51.0640 C.ar  401  PLP401      0.2120
      5  O3        12.1740   30.0320   51.4270 O.3   401  PLP401     -0.2852
      6  C4        11.2400   28.0470   50.2710 C.ar  401  PLP401      0.0822
      7  C4A       12.6830   27.5750   49.8000 C.2   401  PLP401      0.2372
      8  O4A       13.7490   28.2070   50.0760 O.2   401  PLP401     -0.2830
      9  C5        10.0620   27.2490   49.9010 C.ar  401  PLP401      0.0333
     10  C6         8.7550   27.6660   50.3200 C.ar  401  PLP401      0.0969
     11  C5A       10.2070   25.9540   49.0500 C.3   401  PLP401      0.1819
     12  O4P       10.3860   26.2390   47.6750 O.3   401  PLP401     -0.2653
     13  P          9.1380   26.1030   46.6590 P.3   401  PLP401      0.5329
     14  O1P        8.5680   24.6070   46.6630 O.3   401  PLP401     -0.1145
     15  O2P        9.6660   26.4790   45.2100 O.2   401  PLP401     -0.2224
     16  O3P        7.9460   27.1130   47.0430 O.3   401  PLP401     -0.1145
@<TRIPOS>BOND
     1    15    13    2
     2    13    14    1
     3    13    16    1
     4    13    12    1
     5    12    11    1
     6    11     9    1
     7     7     8    2
     8     7     6    1
     9     9     6   ar
    10     9    10   ar
    11     6     4   ar
    12    10     1   ar
    13     4     5    1
    14     4     2   ar
    15     1     2   ar
    16     2     3    1
