@<TRIPOS>MOLECULE
2aq7_TL5_A_1.pdb
 15 15 0 0 0
SMALL
GASTEIGER

@<TRIPOS>ATOM
      1  O1        22.1480   87.6940    0.9150 O.2   600  TL5600     -0.2799
      2  C1        22.9200   88.6240    1.0870 C.2   600  TL5600      0.2209
      3  C2        23.2540   89.0800    2.2900 C.2   600  TL5600      0.0589
      4  C9        22.6340   88.5620    3.5550 C.3   600  TL5600      0.0380
      5  S1        23.6250   89.4110   -0.2000 S.3   600  TL5600     -0.0631
      6  C4        24.4690   90.5370    0.8680 C.3   600  TL5600      0.1191
      7  C3        24.1710   90.0360    2.2570 C.2   600  TL5600      0.1852
      8  O2        24.7800   90.5040    3.3460 O.2   600  TL5600     -0.2904
      9  C10       23.9290   91.9580    0.7290 C.3   600  TL5600      0.0235
     10  C5        25.9640   90.4880    0.6030 C.2   600  TL5600     -0.0133
     11  C6        26.5520   90.7770   -0.5790 C.2   600  TL5600     -0.0252
     12  C11       25.8180   91.2110   -1.8240 C.3   600  TL5600      0.0307
     13  C7        28.0250   90.6920   -0.6220 C.2   600  TL5600     -0.0091
     14  C8        28.7210   91.0360   -1.7040 C.2   600  TL5600     -0.0261
     15  C12       30.2190   90.9570   -1.6720 C.3   600  TL5600      0.0307
@<TRIPOS>BOND
     1    12    11    1
     2    14    15    1
     3    14    13    2
     4    13    11    1
     5    11    10    2
     6     5     6    1
     7     5     2    1
     8    10     6    1
     9     9     6    1
    10     6     7    1
    11     1     2    2
    12     2     3    1
    13     7     3    2
    14     7     8    1
    15     3     4    1
