@<TRIPOS>MOLECULE
2aq8_NAD_A_1.pdb
 44 48 0 0 0
SMALL
GASTEIGER

@<TRIPOS>ATOM
      1  PA         0.4090  -32.7840   11.0690 P.3   270  NAD270      0.2189
      2  O1A        0.5730  -31.4080   10.4620 O.2   270  NAD270     -0.5170
      3  O2A       -0.6470  -33.7600   10.5760 O.3   270  NAD270     -0.4371
      4  O5B        0.2320  -32.6620   12.6610 O.3   270  NAD270     -0.3112
      5  C5B        0.7530  -31.5500   13.3800 C.3   270  NAD270      0.1813
      6  C4B       -0.3690  -31.1210   14.3080 C.3   270  NAD270      0.1821
      7  O4B        0.1240  -30.0890   15.1520 O.3   270  NAD270     -0.3135
      8  C3B       -1.5410  -30.5260   13.5330 C.3   270  NAD270      0.2184
      9  O3B       -2.7030  -31.2380   13.9400 O.3   270  NAD270     -0.2174
     10  C2B       -1.6170  -29.1200   14.0250 C.3   270  NAD270      0.2570
     11  O2B       -2.9630  -28.6620   14.1020 O.3   270  NAD270     -0.2130
     12  C1B       -0.9800  -29.2730   15.4110 C.3   270  NAD270      0.3186
     13  N9A       -0.6620  -27.9520   15.9270 N.pl3 270  NAD270     -0.1439
     14  C8A        0.0750  -26.9890   15.3620 C.3   270  NAD270      0.3377
     15  N7A        0.0750  -25.8860   16.1400 N.2   270  NAD270     -0.2095
     16  C5A       -0.7120  -26.1710   17.2020 C.2   270  NAD270      0.2526
     17  C6A       -1.1520  -25.4500   18.4050 C.2   270  NAD270      0.4393
     18  N6A       -0.7650  -24.1730   18.6400 N.pl3 270  NAD270      0.2180
     19  N1A       -1.9590  -26.1240   19.2480 N.2   270  NAD270      0.0021
     20  C2A       -2.3600  -27.3950   19.0380 C.3   270  NAD270      0.5254
     21  N3A       -2.0040  -28.1140   17.9670 N.2   270  NAD270     -0.0055
     22  C4A       -1.2020  -27.5270   17.0480 C.2   270  NAD270      0.3518
     23  O3         1.8730  -33.4410   10.9260 O.3   270  NAD270     -0.2703
     24  PN         2.4270  -34.7750   11.6210 P.3   270  NAD270      0.2189
     25  O1N        3.6200  -35.1860   10.8000 O.2   270  NAD270     -0.5170
     26  O2N        1.3330  -35.7810   11.8330 O.3   270  NAD270     -0.4371
     27  O5D        2.8780  -34.1820   13.0420 O.3   270  NAD270     -0.3112
     28  C5D        2.5780  -34.8510   14.2560 C.3   270  NAD270      0.1813
     29  C4D        3.8170  -34.9200   15.1470 C.3   270  NAD270      0.1799
     30  O4D        4.6880  -35.9140   14.5650 O.3   270  NAD270     -0.3327
     31  C3D        4.6190  -33.6390   15.2020 C.3   270  NAD270      0.2158
     32  O3D        5.1690  -33.5760   16.5340 O.3   270  NAD270     -0.2175
     33  C2D        5.7270  -33.9040   14.1890 C.3   270  NAD270      0.2309
     34  O2D        6.9310  -33.1920   14.4300 O.3   270  NAD270     -0.2158
     35  C1D        6.0080  -35.3610   14.4610 C.3   270  NAD270      0.2263
     36  N1N        6.7770  -36.1210   13.4610 N.pl3 270  NAD270     -0.2787
     37  C2N        6.5140  -36.0180   12.1500 C.3   270  NAD270      0.1244
     38  C3N        7.2280  -36.7890   11.2370 C.2   270  NAD270      0.0544
     39  C7N        6.9470  -36.6990    9.7760 C.2   270  NAD270      0.2818
     40  O7N        7.8300  -37.0500    9.0140 O.2   270  NAD270     -0.2670
     41  N7N        5.7410  -36.3160    9.3240 N.am  270  NAD270     -0.0839
     42  C4N        8.2680  -37.6310   11.6900 C.2   270  NAD270      0.0033
     43  C5N        8.5130  -37.7170   13.0690 C.2   270  NAD270      0.0157
     44  C6N        7.7360  -36.9450   13.9350 C.2   270  NAD270      0.0633
@<TRIPOS>BOND
     1    40    39    2
     2    41    39   am
     3    39    38    1
     4     2     1    2
     5     3     1    1
     6    25    24    2
     7    23     1    1
     8    23    24    1
     9     1     4    1
    10    38    42    2
    11    38    37    1
    12    24    26    1
    13    24    27    1
    14    42    43    1
    15    37    36    1
    16     4     5    1
    17    27    28    1
    18    43    44    2
    19     5     6    1
    20    36    44    1
    21    36    35    1
    22     8     9    1
    23     8    10    1
    24     8     6    1
    25    10    11    1
    26    10    12    1
    27    33    34    1
    28    33    35    1
    29    33    31    1
    30    28    29    1
    31     6     7    1
    32    35    30    1
    33    30    29    1
    34    29    31    1
    35     7    12    1
    36    31    32    1
    37    14    13    1
    38    14    15    1
    39    12    13    1
    40    13    22    1
    41    15    16    2
    42    22    16    1
    43    22    21    2
    44    16    17    1
    45    21    20    1
    46    17    18    1
    47    17    19    2
    48    20    19    1
