@<TRIPOS>MOLECULE
2aqb_TL6_A_1.pdb
 13 13 0 0 0
SMALL
GASTEIGER

@<TRIPOS>ATOM
      1  O1        22.2660   88.0160    1.1160 O.2   600  TL6600     -0.2799
      2  C1        23.0760   88.9270    1.1820 C.2   600  TL6600      0.2209
      3  S1        23.8050   89.5290   -0.1930 S.3   600  TL6600     -0.0630
      4  C4        24.6930   90.7300    0.7510 C.3   600  TL6600      0.1194
      5  C10       24.1800   92.1180    0.3990 C.3   600  TL6600      0.0235
      6  C3        24.3800   90.4160    2.1900 C.2   600  TL6600      0.1853
      7  O2        25.0050   91.0010    3.2170 O.2   600  TL6600     -0.2904
      8  C2        23.4360   89.4940    2.3300 C.2   600  TL6600      0.0589
      9  C9        22.8240   89.1300    3.6500 C.3   600  TL6600      0.0380
     10  C5        26.1890   90.6170    0.5240 C.2   600  TL6600     -0.0091
     11  C6        26.7320   90.4520   -0.6830 C.2   600  TL6600     -0.0033
     12  C7        28.1870   90.3500   -0.8030 C.2   600  TL6600     -0.0003
     13  C8        28.8330   90.9270   -1.8010 C.2   600  TL6600     -0.0000
@<TRIPOS>BOND
     1    13    12    2
     2    12    11    1
     3    11    10    2
     4     3     4    1
     5     3     2    1
     6     5     4    1
     7    10     4    1
     8     4     6    1
     9     1     2    2
    10     2     8    1
    11     6     8    2
    12     6     7    1
    13     8     9    1
