@<TRIPOS>MOLECULE
2aqd_HEM_A_1.pdb
 43 50 0 0 0
SMALL
GASTEIGER

@<TRIPOS>ATOM
      1 FE        -11.3740   -2.4950   -1.2750 Fe    400  HEM400      0.0000
      2  CHA      -14.1110   -0.4760   -1.0880 C.2   400  HEM400      0.0000
      3  CHB      -10.0100   -0.4920   -3.6740 C.2   400  HEM400      0.0000
      4  CHC       -8.7490   -4.5640   -1.5270 C.2   400  HEM400      0.0000
      5  CHD      -12.5540   -4.2750    1.3750 C.2   400  HEM400      0.0000
      6  NA       -11.9290   -0.7590   -2.1950 N.ar  400  HEM400      0.0000
      7  C1A      -13.0780   -0.0810   -1.9860 C.ar  400  HEM400      0.0000
      8  C2A      -13.1140    1.0320   -2.8060 C.ar  400  HEM400      0.0000
      9  C3A      -11.9290    1.0430   -3.5420 C.ar  400  HEM400      0.0000
     10  C4A      -11.2560   -0.1020   -3.1620 C.ar  400  HEM400      0.0000
     11  CMA      -11.4770    2.0910   -4.5500 C.3   400  HEM400      0.0000
     12  CAA      -14.1750    2.1480   -2.7590 C.3   400  HEM400      0.0000
     13  CBA      -13.9750    3.1020   -1.5890 C.3   400  HEM400      0.0000
     14  CGA      -15.0890    4.1700   -1.5970 C.2   400  HEM400      0.0000
     15  O1A      -15.3260    4.7830   -2.6390 O.co2 400  HEM400      0.0000
     16  O2A      -15.8630    4.2500   -0.6460 O.co2 400  HEM400      0.0000
     17  NB        -9.6200   -2.5040   -2.3830 N.2   400  HEM400      0.0000
     18  C1B       -9.2970   -1.6730   -3.3730 C.2   400  HEM400      0.0000
     19  C2B       -8.1350   -2.0860   -4.0360 C.2   400  HEM400      0.0000
     20  C3B       -7.7890   -3.2910   -3.4370 C.2   400  HEM400      0.0000
     21  C4B       -8.7190   -3.4830   -2.4130 C.2   400  HEM400      0.0000
     22  CMB       -7.4190   -1.2630   -5.0990 C.3   400  HEM400      0.0000
     23  CAB       -6.6660   -4.1070   -3.6880 C.3   400  HEM400      0.0000
     24  CBB       -6.0070   -4.2370   -4.9670 C.3   400  HEM400      0.0000
     25  NC       -10.7100   -4.0910   -0.1760 N.ar  400  HEM400      0.0000
     26  C1C       -9.6110   -4.8080   -0.4390 C.ar  400  HEM400      0.0000
     27  C2C       -9.4040   -5.7940    0.5190 C.ar  400  HEM400      0.0000
     28  C3C      -10.5040   -5.7040    1.3840 C.ar  400  HEM400      0.0000
     29  C4C      -11.3150   -4.6940    0.8720 C.ar  400  HEM400      0.0000
     30  CMC       -8.1740   -6.7050    0.6090 C.3   400  HEM400      0.0000
     31  CAC      -10.7750   -6.4070    2.5660 C.3   400  HEM400      0.0000
     32  CBC      -10.5880   -7.8240    2.7790 C.3   400  HEM400      0.0000
     33  ND       -13.0400   -2.4030   -0.0640 N.2   400  HEM400      0.0000
     34  C1D      -13.3980   -3.2810    0.8810 C.2   400  HEM400      0.0000
     35  C2D      -14.6930   -3.0550    1.3390 C.2   400  HEM400      0.0000
     36  C3D      -15.1490   -1.9520    0.6290 C.2   400  HEM400      0.0000
     37  C4D      -14.0910   -1.5750   -0.2120 C.2   400  HEM400      0.0000
     38  CMD      -15.4760   -3.9000    2.3260 C.3   400  HEM400      0.0000
     39  CAD      -16.5450   -1.3080    0.7330 C.3   400  HEM400      0.0000
     40  CBD      -16.5490   -0.1030    1.7040 C.3   400  HEM400      0.0000
     41  CGD      -17.8630    0.6880    1.7760 C.2   400  HEM400      0.0000
     42  O1D      -18.8510    0.2280    1.2270 O.co2 400  HEM400      0.0000
     43  O2D      -17.9070    1.6950    2.4750 O.co2 400  HEM400      0.0000
@<TRIPOS>BOND
     1    22    19    1
     2    24    23    1
     3    11     9    1
     4    19    20    2
     5    19    18    1
     6    23    20    1
     7     3    18    1
     8     3    10    2
     9     9    10   ar
    10     9     8   ar
    11    20    21    1
    12    18    17    2
    13    10     6   ar
    14     8    12    1
    15     8     7   ar
    16    12    13    1
    17    15    14   ar
    18    21    17    1
    19    21     4    2
    20    17     1    1
    21     6     7   ar
    22     6     1    1
    23     7     2    2
    24    14    13    1
    25    14    16   ar
    26     4    26    1
    27     1    25    1
    28     1    33    1
    29     2    37    1
    30    26    25   ar
    31    26    27   ar
    32    37    33    2
    33    37    36    1
    34    25    29   ar
    35    33    34    1
    36    27    30    1
    37    27    28   ar
    38    36    39    1
    39    36    35    2
    40    39    40    1
    41    29     5    1
    42    29    28   ar
    43    34    35    1
    44    34     5    2
    45    42    41   ar
    46    35    38    1
    47    28    31    1
    48    40    41    1
    49    41    43   ar
    50    31    32    1
