@<TRIPOS>MOLECULE
2aqh_NAD_A_1.pdb
 44 48 0 0 0
SMALL
GASTEIGER

@<TRIPOS>ATOM
      1  PA         0.3620  -32.6390   11.1240 P.3   270  NAD270      0.2189
      2  O1A        0.5480  -31.3060   10.4870 O.2   270  NAD270     -0.5170
      3  O2A       -0.7040  -33.5360   10.5460 O.3   270  NAD270     -0.4371
      4  O5B        0.2040  -32.4960   12.7190 O.3   270  NAD270     -0.3112
      5  C5B        0.6700  -31.3410   13.3830 C.3   270  NAD270      0.1813
      6  C4B       -0.4690  -30.9780   14.3160 C.3   270  NAD270      0.1821
      7  O4B       -0.0390  -29.9810   15.2150 O.3   270  NAD270     -0.3135
      8  C3B       -1.6810  -30.4320   13.5570 C.3   270  NAD270      0.2184
      9  O3B       -2.8070  -31.1710   13.9870 O.3   270  NAD270     -0.2174
     10  C2B       -1.7550  -29.0120   14.0460 C.3   270  NAD270      0.2570
     11  O2B       -3.0660  -28.5420   14.1170 O.3   270  NAD270     -0.2130
     12  C1B       -1.1220  -29.1330   15.4460 C.3   270  NAD270      0.3186
     13  N9A       -0.7830  -27.8080   15.9840 N.pl3 270  NAD270     -0.1439
     14  C8A       -0.0190  -26.8290   15.4260 C.3   270  NAD270      0.3377
     15  N7A       -0.0270  -25.7650   16.2490 N.2   270  NAD270     -0.2095
     16  C5A       -0.8160  -26.0630   17.3030 C.2   270  NAD270      0.2526
     17  C6A       -1.1880  -25.3550   18.4360 C.2   270  NAD270      0.4393
     18  N6A       -0.9410  -24.0590   18.5740 N.pl3 270  NAD270      0.2180
     19  N1A       -2.0100  -25.9670   19.3320 N.2   270  NAD270      0.0021
     20  C2A       -2.4860  -27.2520   19.1500 C.3   270  NAD270      0.5254
     21  N3A       -2.1080  -27.9420   18.0280 N.2   270  NAD270     -0.0055
     22  C4A       -1.2960  -27.3400   17.1360 C.2   270  NAD270      0.3518
     23  O3         1.8170  -33.2940   10.9750 O.3   270  NAD270     -0.2703
     24  PN         2.3410  -34.6320   11.6660 P.3   270  NAD270      0.2189
     25  O1N        3.4970  -34.9970   10.8400 O.2   270  NAD270     -0.5170
     26  O2N        1.2610  -35.6100   11.8880 O.3   270  NAD270     -0.4371
     27  O5D        2.7990  -34.0580   13.0880 O.3   270  NAD270     -0.3112
     28  C5D        2.4720  -34.6820   14.3090 C.3   270  NAD270      0.1813
     29  C4D        3.7410  -34.8870   15.1360 C.3   270  NAD270      0.1799
     30  O4D        4.5550  -35.9530   14.5940 O.3   270  NAD270     -0.3327
     31  C3D        4.5980  -33.6270   15.1760 C.3   270  NAD270      0.2158
     32  O3D        5.1280  -33.4860   16.4930 O.3   270  NAD270     -0.2175
     33  C2D        5.7080  -33.9880   14.2240 C.3   270  NAD270      0.2309
     34  O2D        6.8710  -33.2210   14.4360 O.3   270  NAD270     -0.2158
     35  C1D        5.8850  -35.4760   14.5450 C.3   270  NAD270      0.2263
     36  N1N        6.6970  -36.1980   13.5570 N.pl3 270  NAD270     -0.2787
     37  C2N        6.4590  -36.0180   12.2160 C.3   270  NAD270      0.1244
     38  C3N        7.2160  -36.7050   11.2840 C.2   270  NAD270      0.0544
     39  C7N        6.8460  -36.6630    9.8250 C.2   270  NAD270      0.2818
     40  O7N        7.7880  -37.1310    8.9490 O.2   270  NAD270     -0.2670
     41  N7N        5.6800  -36.2130    9.3400 N.am  270  NAD270     -0.0839
     42  C4N        8.2790  -37.5210   11.7130 C.2   270  NAD270      0.0033
     43  C5N        8.4920  -37.6830   13.0970 C.2   270  NAD270      0.0157
     44  C6N        7.6980  -37.0140   14.0090 C.2   270  NAD270      0.0633
@<TRIPOS>BOND
     1    40    39    2
     2    41    39   am
     3    39    38    1
     4     2     1    2
     5     3     1    1
     6    25    24    2
     7    23     1    1
     8    23    24    1
     9     1     4    1
    10    38    42    2
    11    38    37    1
    12    24    26    1
    13    24    27    1
    14    42    43    1
    15    37    36    1
    16     4     5    1
    17    27    28    1
    18    43    44    2
    19     5     6    1
    20     8     9    1
    21     8    10    1
    22     8     6    1
    23    36    44    1
    24    36    35    1
    25    10    11    1
    26    10    12    1
    27    33    34    1
    28    33    35    1
    29    33    31    1
    30    28    29    1
    31     6     7    1
    32    35    30    1
    33    30    29    1
    34    29    31    1
    35    31    32    1
    36     7    12    1
    37    14    13    1
    38    14    15    1
    39    12    13    1
    40    13    22    1
    41    15    16    2
    42    22    16    1
    43    22    21    2
    44    16    17    1
    45    21    20    1
    46    17    18    1
    47    17    19    2
    48    20    19    1
