@<TRIPOS>MOLECULE
2aqi_NAD_A_1.pdb
 44 48 0 0 0
SMALL
GASTEIGER

@<TRIPOS>ATOM
      1  PA         0.2390  -32.5660   11.1070 P.3   270  NAD270      0.2189
      2  O1A        0.3960  -31.2100   10.4920 O.2   270  NAD270     -0.5170
      3  O2A       -0.7380  -33.5490   10.5130 O.3   270  NAD270     -0.4371
      4  O5B        0.0370  -32.4340   12.7060 O.3   270  NAD270     -0.3112
      5  C5B        0.6020  -31.2890   13.3390 C.3   270  NAD270      0.1813
      6  C4B       -0.4950  -30.8730   14.2810 C.3   270  NAD270      0.1821
      7  O4B       -0.0130  -29.8580   15.1790 O.3   270  NAD270     -0.3135
      8  C3B       -1.6730  -30.2710   13.4730 C.3   270  NAD270      0.2184
      9  O3B       -2.8830  -30.9080   13.8520 O.3   270  NAD270     -0.2174
     10  C2B       -1.7060  -28.8660   14.0180 C.3   270  NAD270      0.2570
     11  O2B       -3.0360  -28.3940   14.0340 O.3   270  NAD270     -0.2130
     12  C1B       -1.1360  -29.0250   15.4370 C.3   270  NAD270      0.3186
     13  N9A       -0.8470  -27.6890   15.9970 N.pl3 270  NAD270     -0.1439
     14  C8A       -0.0780  -26.7300   15.4390 C.3   270  NAD270      0.3377
     15  N7A       -0.0450  -25.6280   16.1970 N.2   270  NAD270     -0.2095
     16  C5A       -0.8480  -25.8650   17.2530 C.2   270  NAD270      0.2526
     17  C6A       -1.2600  -25.0910   18.4260 C.2   270  NAD270      0.4393
     18  N6A       -0.8220  -23.8100   18.6010 N.pl3 270  NAD270      0.2180
     19  N1A       -2.0700  -25.6970   19.3010 N.2   270  NAD270      0.0021
     20  C2A       -2.5430  -26.9600   19.1300 C.3   270  NAD270      0.5254
     21  N3A       -2.1910  -27.7300   18.0780 N.2   270  NAD270     -0.0055
     22  C4A       -1.3630  -27.2180   17.1270 C.2   270  NAD270      0.3518
     23  O3         1.7140  -33.2130   11.0400 O.3   270  NAD270     -0.2703
     24  PN         2.2750  -34.5330   11.7590 P.3   270  NAD270      0.2189
     25  O1N        3.4410  -34.8250   10.8590 O.2   270  NAD270     -0.5170
     26  O2N        1.2290  -35.5890   11.8970 O.3   270  NAD270     -0.4371
     27  O5D        2.6720  -33.8970   13.1820 O.3   270  NAD270     -0.3112
     28  C5D        2.4480  -34.6360   14.3800 C.3   270  NAD270      0.1813
     29  C4D        3.7110  -34.7610   15.2060 C.3   270  NAD270      0.1799
     30  O4D        4.5330  -35.7620   14.5630 O.3   270  NAD270     -0.3327
     31  C3D        4.4990  -33.4510   15.1990 C.3   270  NAD270      0.2158
     32  O3D        5.0300  -33.3080   16.5200 O.3   270  NAD270     -0.2175
     33  C2D        5.6150  -33.7230   14.2030 C.3   270  NAD270      0.2309
     34  O2D        6.7210  -32.8930   14.4430 O.3   270  NAD270     -0.2158
     35  C1D        5.8810  -35.1770   14.5100 C.3   270  NAD270      0.2263
     36  N1N        6.7030  -35.9240   13.5710 N.pl3 270  NAD270     -0.2787
     37  C2N        6.4140  -35.8240   12.2390 C.3   270  NAD270      0.1244
     38  C3N        7.1520  -36.5280   11.3110 C.2   270  NAD270      0.0544
     39  C7N        6.8310  -36.4440    9.8320 C.2   270  NAD270      0.2818
     40  O7N        7.6380  -36.9000    9.0460 O.2   270  NAD270     -0.2670
     41  N7N        5.6380  -35.9600    9.4210 N.am  270  NAD270     -0.0839
     42  C4N        8.1790  -37.3420   11.7810 C.2   270  NAD270      0.0033
     43  C5N        8.4150  -37.4290   13.1670 C.2   270  NAD270      0.0157
     44  C6N        7.6560  -36.7290   14.0800 C.2   270  NAD270      0.0633
@<TRIPOS>BOND
     1    40    39    2
     2    41    39   am
     3    39    38    1
     4     2     1    2
     5     3     1    1
     6    25    24    2
     7    23     1    1
     8    23    24    1
     9     1     4    1
    10    38    42    2
    11    38    37    1
    12    24    26    1
    13    24    27    1
    14    42    43    1
    15    37    36    1
    16     4     5    1
    17    43    44    2
    18    27    28    1
    19     5     6    1
    20     8     9    1
    21     8    10    1
    22     8     6    1
    23    36    44    1
    24    36    35    1
    25    10    11    1
    26    10    12    1
    27    33    34    1
    28    33    35    1
    29    33    31    1
    30     6     7    1
    31    28    29    1
    32    35    30    1
    33    30    29    1
    34     7    12    1
    35    31    29    1
    36    31    32    1
    37    12    13    1
    38    14    13    1
    39    14    15    1
    40    13    22    1
    41    15    16    2
    42    22    16    1
    43    22    21    2
    44    16    17    1
    45    21    20    1
    46    17    18    1
    47    17    19    2
    48    20    19    1
