@<TRIPOS>MOLECULE
2aqj_TRP_A_1.pdb
 15 16 0 0 0
SMALL
GASTEIGER

@<TRIPOS>ATOM
      1  N          5.3630    6.6310   12.3790 N.3   650  TRP650     -0.1205
      2  CA         5.4330    6.6050   13.8690 C.3   650  TRP650      0.1984
      3  C          4.3080    5.6960   14.3690 C.2   650  TRP650      0.3822
      4  O          3.1470    5.8190   13.9360 O.co2 650  TRP650     -0.2440
      5  CB         5.2750    8.0060   14.4160 C.3   650  TRP650      0.0549
      6  CG         5.3980    8.1420   15.9830 C.2   650  TRP650     -0.0138
      7  CD1        6.5420    8.1560   16.7220 C.2   650  TRP650      0.0907
      8  CD2        4.3430    8.3510   16.8900 C.3   650  TRP650      0.0819
      9  NE1        6.2500    8.3620   18.0550 N.2   650  TRP650     -0.2482
     10  CE2        4.9230    8.4860   18.1660 C.2   650  TRP650      0.0665
     11  CE3        2.9390    8.4600   16.7430 C.2   650  TRP650     -0.0164
     12  CZ2        4.1050    8.6760   19.3030 C.2   650  TRP650      0.0153
     13  CZ3        2.1410    8.6690   17.8700 C.2   650  TRP650     -0.0038
     14  CH2        2.7250    8.7780   19.1400 C.2   650  TRP650      0.0009
     15  OXT        4.5520    4.8100   15.1900 O.co2 650  TRP650     -0.2440
@<TRIPOS>BOND
     1     1     2    1
     2     2     3    1
     3     2     5    1
     4     4     3   ar
     5     3    15   ar
     6     5     6    1
     7     6     7    2
     8     6     8    1
     9     7     9    1
    10    11     8    1
    11    11    13    2
    12     8    10    1
    13    13    14    1
    14     9    10    2
    15    10    12    1
    16    14    12    2
