@<TRIPOS>MOLECULE
2aqk_NAD_A_1.pdb
 44 48 0 0 0
SMALL
GASTEIGER

@<TRIPOS>ATOM
      1  PA         0.4730  -33.0230   11.0320 P.3   270  NAD270      0.2189
      2  O1A        0.6270  -31.7840   10.2470 O.2   270  NAD270     -0.5170
      3  O2A       -0.5090  -33.9710   10.4280 O.3   270  NAD270     -0.4371
      4  O5B        0.1220  -32.7640   12.6010 O.3   270  NAD270     -0.3112
      5  C5B        0.7440  -31.7180   13.2990 C.3   270  NAD270      0.1813
      6  C4B       -0.3150  -31.2490   14.2820 C.3   270  NAD270      0.1821
      7  O4B        0.1700  -30.1940   15.1100 O.3   270  NAD270     -0.3135
      8  C3B       -1.5110  -30.6960   13.4950 C.3   270  NAD270      0.2184
      9  O3B       -2.5950  -31.5290   13.7910 O.3   270  NAD270     -0.2174
     10  C2B       -1.6850  -29.3180   14.0200 C.3   270  NAD270      0.2570
     11  O2B       -3.0460  -28.9370   14.1160 O.3   270  NAD270     -0.2130
     12  C1B       -0.9840  -29.4610   15.3930 C.3   270  NAD270      0.3186
     13  N9A       -0.6870  -28.1430   15.9360 N.pl3 270  NAD270     -0.1439
     14  C8A        0.0610  -27.1810   15.3300 C.3   270  NAD270      0.3377
     15  N7A        0.0350  -26.1000   16.1190 N.2   270  NAD270     -0.2095
     16  C5A       -0.7290  -26.3840   17.2230 C.2   270  NAD270      0.2526
     17  C6A       -1.0770  -25.6300   18.3340 C.2   270  NAD270      0.4393
     18  N6A       -0.8060  -24.3020   18.4670 N.pl3 270  NAD270      0.2180
     19  N1A       -1.8780  -26.2330   19.2420 N.2   270  NAD270      0.0021
     20  C2A       -2.3620  -27.5270   19.0920 C.3   270  NAD270      0.5254
     21  N3A       -1.9900  -28.2470   18.0040 N.2   270  NAD270     -0.0055
     22  C4A       -1.1990  -27.6560   17.0970 C.2   270  NAD270      0.3518
     23  O3         1.9940  -33.5930   11.0620 O.3   270  NAD270     -0.2703
     24  PN         2.4990  -34.9780   11.6590 P.3   270  NAD270      0.2189
     25  O1N        3.6930  -35.2420   10.8380 O.2   270  NAD270     -0.5170
     26  O2N        1.4560  -36.0190   11.7060 O.3   270  NAD270     -0.4371
     27  O5D        2.8190  -34.3020   13.0740 O.3   270  NAD270     -0.3112
     28  C5D        2.4750  -34.9540   14.2680 C.3   270  NAD270      0.1813
     29  C4D        3.7530  -35.1160   15.0610 C.3   270  NAD270      0.1799
     30  O4D        4.6080  -36.0980   14.4390 O.3   270  NAD270     -0.3327
     31  C3D        4.5310  -33.8070   15.1000 C.3   270  NAD270      0.2158
     32  O3D        5.0510  -33.7300   16.3820 O.3   270  NAD270     -0.2175
     33  C2D        5.7190  -34.0910   14.2050 C.3   270  NAD270      0.2309
     34  O2D        6.8320  -33.2640   14.4750 O.3   270  NAD270     -0.2158
     35  C1D        5.9260  -35.5640   14.4720 C.3   270  NAD270      0.2263
     36  N1N        6.7780  -36.2980   13.5160 N.pl3 270  NAD270     -0.2787
     37  C2N        6.5500  -36.1610   12.1710 C.3   270  NAD270      0.1244
     38  C3N        7.3100  -36.8940   11.2700 C.2   270  NAD270      0.0544
     39  C7N        6.9900  -36.8380    9.8120 C.2   270  NAD270      0.2818
     40  O7N        7.9280  -37.3440    8.9500 O.2   270  NAD270     -0.2670
     41  N7N        5.8720  -36.2830    9.3340 N.am  270  NAD270     -0.0839
     42  C4N        8.3620  -37.6800   11.7310 C.2   270  NAD270      0.0033
     43  C5N        8.5670  -37.7900   13.1080 C.2   270  NAD270      0.0157
     44  C6N        7.7710  -37.1230   14.0240 C.2   270  NAD270      0.0633
@<TRIPOS>BOND
     1    40    39    2
     2    41    39   am
     3    39    38    1
     4     2     1    2
     5     3     1    1
     6    25    24    2
     7     1    23    1
     8     1     4    1
     9    23    24    1
    10    38    42    2
    11    38    37    1
    12    24    26    1
    13    24    27    1
    14    42    43    1
    15    37    36    1
    16     4     5    1
    17    27    28    1
    18    43    44    2
    19     5     6    1
    20     8     9    1
    21     8    10    1
    22     8     6    1
    23    36    44    1
    24    36    35    1
    25    10    11    1
    26    10    12    1
    27    33    35    1
    28    33    34    1
    29    33    31    1
    30    28    29    1
    31     6     7    1
    32    30    35    1
    33    30    29    1
    34    29    31    1
    35    31    32    1
    36     7    12    1
    37    14    13    1
    38    14    15    1
    39    12    13    1
    40    13    22    1
    41    15    16    2
    42    22    16    1
    43    22    21    2
    44    16    17    1
    45    21    20    1
    46    17    18    1
    47    17    19    2
    48    20    19    1
