@<TRIPOS>MOLECULE
2aqx_ATP_A_1.pdb
 31 33 0 0 0
SMALL
GASTEIGER

@<TRIPOS>ATOM
      1  PG        -8.6410   47.7340   16.8980 P.3   1462  ATP1462     0.5373
      2  O1G       -9.7710   48.7170   16.7460 O.3   1462  ATP1462    -0.1143
      3  O2G       -7.8610   47.4930   15.6290 O.2   1462  ATP1462    -0.2221
      4  O3G       -8.9080   46.4960   17.7650 O.3   1462  ATP1462    -0.1143
      5  PB        -7.6640   49.5090   18.9520 P.3   1462  ATP1462     0.2277
      6  O1B       -9.0920   49.4540   19.4530 O.3   1462  ATP1462    -0.4368
      7  O2B       -7.0490   50.8120   18.4910 O.2   1462  ATP1462    -0.5168
      8  O3B       -7.4900   48.5530   17.7010 O.3   1462  ATP1462    -0.2258
      9  PA        -7.0080   47.6110   21.0760 P.3   1462  ATP1462     0.2189
     10  O1A       -7.8100   48.1930   22.2040 O.3   1462  ATP1462    -0.4371
     11  O2A       -7.6010   46.3910   20.3800 O.2   1462  ATP1462    -0.5170
     12  O3A       -6.6380   48.7990   20.0110 O.3   1462  ATP1462    -0.2700
     13  O5'       -5.5910   47.2950   21.7250 O.3   1462  ATP1462    -0.3112
     14  C5'       -4.5820   46.9830   20.8060 C.3   1462  ATP1462     0.1813
     15  C4'       -3.4870   46.2040   21.5150 C.3   1462  ATP1462     0.1821
     16  O4'       -2.9680   46.9000   22.6560 O.3   1462  ATP1462    -0.3135
     17  C3'       -4.0220   44.8690   21.9830 C.3   1462  ATP1462     0.2184
     18  O3'       -3.7530   43.9830   20.9130 O.3   1462  ATP1462    -0.2174
     19  C2'       -3.2050   44.5880   23.2230 C.3   1462  ATP1462     0.2570
     20  O2'       -1.9490   43.9510   22.9470 O.3   1462  ATP1462    -0.2130
     21  C1'       -2.8160   45.9580   23.7250 C.3   1462  ATP1462     0.3186
     22  N9        -3.6320   46.4890   24.8210 N.pl3 1462  ATP1462    -0.1439
     23  C8        -4.7190   47.2830   24.6790 C.3   1462  ATP1462     0.3377
     24  N7        -5.2020   47.6600   25.8880 N.2   1462  ATP1462    -0.2095
     25  C5        -4.3840   47.1260   26.8240 C.2   1462  ATP1462     0.2526
     26  C6        -4.2830   47.1380   28.2930 C.2   1462  ATP1462     0.4393
     27  N6        -5.1960   47.8170   29.0360 N.pl3 1462  ATP1462     0.2180
     28  N1        -3.2620   46.4440   28.8780 N.2   1462  ATP1462     0.0021
     29  C2        -2.3730   45.7510   28.1680 C.3   1462  ATP1462     0.5254
     30  N3        -2.3980   45.7170   26.8270 N.2   1462  ATP1462    -0.0055
     31  C4        -3.3520   46.3600   26.1180 C.2   1462  ATP1462     0.3518
@<TRIPOS>BOND
     1     3     1    2
     2     2     1    1
     3     1     8    1
     4     1     4    1
     5     8     5    1
     6     7     5    2
     7     5     6    1
     8     5    12    1
     9    12     9    1
    10    11     9    2
    11    14    15    1
    12    14    13    1
    13    18    17    1
    14     9    13    1
    15     9    10    1
    16    15    17    1
    17    15    16    1
    18    17    19    1
    19    16    21    1
    20    20    19    1
    21    19    21    1
    22    21    22    1
    23    23    22    1
    24    23    24    1
    25    22    31    1
    26    24    25    2
    27    31    25    1
    28    31    30    2
    29    25    26    1
    30    30    29    1
    31    29    28    1
    32    26    28    2
    33    26    27    1
