@<TRIPOS>MOLECULE
2ar6_NAG_A_1.pdb
 14 14 0 0 0
SMALL
GASTEIGER

@<TRIPOS>ATOM
      1  C1         2.8510   40.8400   22.5900 C.3   253  NAG253      0.1665
      2  C2         3.5640   40.4990   21.2730 C.3   253  NAG253      0.1576
      3  C3         2.5710   40.5770   20.1120 C.3   253  NAG253      0.2069
      4  C4         1.3160   39.7540   20.4000 C.3   253  NAG253      0.2134
      5  C5         0.7130   40.1530   21.7430 C.3   253  NAG253      0.1809
      6  C6        -0.4540   39.2590   22.1070 C.3   253  NAG253      0.2141
      7  C7         5.8550   41.0500   20.6830 C.2   253  NAG253      0.2420
      8  C8         6.9870   42.0460   20.8630 C.3   253  NAG253      0.0964
      9  N2         4.6360   41.4540   21.0400 N.am  253  NAG253     -0.2019
     10  O3         3.1870   40.0960   18.9260 O.3   253  NAG253     -0.2184
     11  O4         0.3620   39.9680   19.3700 O.3   253  NAG253     -0.2176
     12  O5         1.6950   40.0100   22.7870 O.3   253  NAG253     -0.3489
     13  O6        -1.2250   39.8090   23.1680 O.3   253  NAG253     -0.2176
     14  O7         6.0930   39.9320   20.2190 O.2   253  NAG253     -0.2733
@<TRIPOS>BOND
     1    10     3    1
     2    11     4    1
     3     3     4    1
     4     3     2    1
     5    14     7    2
     6     4     5    1
     7     7     8    1
     8     7     9   am
     9     9     2    1
    10     2     1    1
    11     5     6    1
    12     5    12    1
    13     6    13    1
    14     1    12    1
