@<TRIPOS>MOLECULE
2ar6_MAN_A_1.pdb
 12 12 0 0 0
SMALL
GASTEIGER

@<TRIPOS>ATOM
      1  C1         4.5080   42.1660   25.3720 C.3   254  MAN254      0.3024
      2  C2         3.3380   41.3130   24.8770 C.3   254  MAN254      0.2434
      3  C3         2.9260   40.2960   25.9560 C.3   254  MAN254      0.2199
      4  C4         4.1350   39.4950   26.4430 C.3   254  MAN254      0.2144
      5  C5         5.2350   40.4620   26.8760 C.3   254  MAN254      0.1836
      6  C6         6.5020   39.7800   27.3650 C.3   254  MAN254      0.2142
      7  O1         4.1780   43.0430   26.1860 O.3   254  MAN254     -0.1869
      8  O2         3.7070   40.6350   23.6590 O.3   254  MAN254     -0.2148
      9  O3         1.9390   39.4160   25.4430 O.3   254  MAN254     -0.2174
     10  O4         3.7470   38.6860   27.5440 O.3   254  MAN254     -0.2176
     11  O5         5.5940   41.3180   25.7720 O.3   254  MAN254     -0.3236
     12  O6         7.1360   39.0490   26.3260 O.3   254  MAN254     -0.2176
@<TRIPOS>BOND
     1     8     2    1
     2     2     1    1
     3     2     3    1
     4     1    11    1
     5     1     7    1
     6     9     3    1
     7    11     5    1
     8     3     4    1
     9    12     6    1
    10     4     5    1
    11     4    10    1
    12     5     6    1
