@<TRIPOS>MOLECULE
2ar8_CTE_A_1.pdb
 16 17 0 0 0
SMALL
GASTEIGER

@<TRIPOS>ATOM
      1  O          2.7870    5.6820   14.0120 O.co2 650  CTE650     -0.2440
      2  C          3.9660    5.5210   14.3920 C.2   650  CTE650      0.3822
      3  OXT        4.2660    4.6120   15.1750 O.co2 650  CTE650     -0.2440
      4  CA         5.0920    6.4370   13.8740 C.3   650  CTE650      0.1987
      5  N          5.1580    6.3700   12.3860 N.3   650  CTE650     -0.1205
      6  CB         4.8990    7.8670   14.4040 C.3   650  CTE650      0.0585
      7  CG         5.0380    7.9590   15.9570 C.2   650  CTE650      0.0001
      8  CD1        6.1730    7.8970   16.6980 C.2   650  CTE650      0.0943
      9  NE1        5.8820    8.0230   18.0230 N.2   650  CTE650     -0.2469
     10  CE2        4.5550    8.1790   18.1490 C.2   650  CTE650      0.0777
     11  CD2        3.9820    8.1250   16.8580 C.2   650  CTE650      0.0126
     12  CE3        2.5950    8.2580   16.6970 C.2   650  CTE650      0.0007
     13  CZ3        1.7790    8.4410   17.8240 C.2   650  CTE650     -0.0029
     14  CH2        2.3290    8.4770   19.1140 C.2   650  CTE650     -0.0043
     15  CZ2        3.7200    8.3480   19.2690 C.3   650  CTE650      0.1416
     16 CL          4.4340    8.3600   20.8470 Cl    650  CTE650     -0.1037
@<TRIPOS>BOND
     1     5     4    1
     2     4     2    1
     3     4     6    1
     4     1     2   ar
     5     2     3   ar
     6     6     7    1
     7     7     8    2
     8     7    11    1
     9    12    11    2
    10    12    13    1
    11     8     9    1
    12    11    10    1
    13    13    14    2
    14     9    10    2
    15    10    15    1
    16    14    15    1
    17    15    16    1
