@<TRIPOS>MOLECULE
2arb_MAN_A_1.pdb
 12 12 0 0 0
SMALL
GASTEIGER

@<TRIPOS>ATOM
      1  C1         4.5100   42.1240   25.7640 C.3   254  MAN254      0.3024
      2  C2         3.3190   41.2800   25.3080 C.3   254  MAN254      0.2434
      3  C3         2.8960   40.3010   26.4200 C.3   254  MAN254      0.2199
      4  C4         4.0750   39.4600   26.8830 C.3   254  MAN254      0.2144
      5  C5         5.2050   40.4060   27.3280 C.3   254  MAN254      0.1836
      6  C6         6.4580   39.6710   27.7710 C.3   254  MAN254      0.2142
      7  O1         4.1090   42.9560   26.8040 O.3   254  MAN254     -0.1869
      8  O2         3.6570   40.5680   24.1060 O.3   254  MAN254     -0.2148
      9  O3         1.8420   39.4720   25.9750 O.3   254  MAN254     -0.2174
     10  O4         3.6500   38.6520   27.9730 O.3   254  MAN254     -0.2176
     11  O5         5.5910   41.2840   26.2260 O.3   254  MAN254     -0.3236
     12  O6         7.0700   39.0080   26.6690 O.3   254  MAN254     -0.2176
@<TRIPOS>BOND
     1     8     2    1
     2     2     1    1
     3     2     3    1
     4     1    11    1
     5     1     7    1
     6     9     3    1
     7    11     5    1
     8     3     4    1
     9    12     6    1
    10     4     5    1
    11     4    10    1
    12     5     6    1
