@<TRIPOS>MOLECULE
2arb_NAG_A_1.pdb
 14 14 0 0 0
SMALL
GASTEIGER

@<TRIPOS>ATOM
      1  C1         2.8110   40.8060   23.0470 C.3   253  NAG253      0.1665
      2  C2         3.5550   40.5300   21.7310 C.3   253  NAG253      0.1576
      3  C3         2.5820   40.5940   20.5480 C.3   253  NAG253      0.2069
      4  C4         1.3110   39.7750   20.8230 C.3   253  NAG253      0.2134
      5  C5         0.6950   40.1440   22.1650 C.3   253  NAG253      0.1809
      6  C6        -0.5030   39.2720   22.5010 C.3   253  NAG253      0.2141
      7  C7         5.8090   41.2550   21.1100 C.2   253  NAG253      0.2420
      8  C8         6.8020   42.4020   21.0480 C.3   253  NAG253      0.0964
      9  N2         4.5980   41.5420   21.5890 N.am  253  NAG253     -0.2019
     10  O3         3.2300   40.0770   19.3950 O.3   253  NAG253     -0.2184
     11  O4         0.3560   40.0070   19.8010 O.3   253  NAG253     -0.2176
     12  O5         1.6640   39.9650   23.2100 O.3   253  NAG253     -0.3489
     13  O6        -1.2360   39.7910   23.6050 O.3   253  NAG253     -0.2176
     14  O7         6.1410   40.1400   20.7020 O.2   253  NAG253     -0.2733
@<TRIPOS>BOND
     1    10     3    1
     2    11     4    1
     3     3     4    1
     4     3     2    1
     5    14     7    2
     6     4     5    1
     7     8     7    1
     8     7     9   am
     9     9     2    1
    10     2     1    1
    11     5     6    1
    12     5    12    1
    13     6    13    1
    14     1    12    1
