@<TRIPOS>MOLECULE
2arc_ARA_A_1.pdb
 10 10 0 0 0
SMALL
GASTEIGER

@<TRIPOS>ATOM
      1  C1         9.1890   38.2120   35.2390 C.3   171  ARA171      0.3024
      2  C2        10.1580   39.3340   35.6970 C.3   171  ARA171      0.2434
      3  C3        11.3440   38.7510   36.4670 C.3   171  ARA171      0.2199
      4  C4        10.8680   37.8350   37.5910 C.3   171  ARA171      0.2143
      5  C5         9.9200   36.7820   37.0180 C.3   171  ARA171      0.1804
      6  O1         8.0270   38.7670   34.7080 O.3   171  ARA171     -0.1869
      7  O2        10.6460   40.0570   34.5680 O.3   171  ARA171     -0.2148
      8  O3        12.1400   39.7990   37.0050 O.3   171  ARA171     -0.2174
      9  O4        10.2210   38.5890   38.6170 O.3   171  ARA171     -0.2176
     10  O5         8.8020   37.4050   36.3590 O.3   171  ARA171     -0.3237
@<TRIPOS>BOND
     1     7     2    1
     2     6     1    1
     3     1     2    1
     4     1    10    1
     5     2     3    1
     6    10     5    1
     7     3     8    1
     8     3     4    1
     9     5     4    1
    10     4     9    1
