@<TRIPOS>MOLECULE
2are_MAN_A_1.pdb
 12 12 0 0 0
SMALL
GASTEIGER

@<TRIPOS>ATOM
      1  C1         4.7640   42.0550   25.6370 C.3   253  MAN253      0.3024
      2  C2         3.6720   41.1930   25.0060 C.3   253  MAN253      0.2434
      3  C3         3.0880   40.2510   26.0630 C.3   253  MAN253      0.2199
      4  C4         4.2050   39.4170   26.6960 C.3   253  MAN253      0.2144
      5  C5         5.2680   40.3600   27.2700 C.3   253  MAN253      0.1836
      6  C6         6.4520   39.6200   27.8570 C.3   253  MAN253      0.2142
      7  O1         4.2100   42.8460   26.6330 O.3   253  MAN253     -0.1869
      8  O2         4.2230   40.4340   23.9410 O.3   253  MAN253     -0.2148
      9  O3         2.1260   39.4080   25.4630 O.3   253  MAN253     -0.2174
     10  O4         3.6760   38.6030   27.7360 O.3   253  MAN253     -0.2176
     11  O5         5.7810   41.2210   26.2280 O.3   253  MAN253     -0.3236
     12  O6         7.1650   38.9340   26.8380 O.3   253  MAN253     -0.2176
@<TRIPOS>BOND
     1     8     2    1
     2     2     1    1
     3     2     3    1
     4     9     3    1
     5     1    11    1
     6     1     7    1
     7     3     4    1
     8    11     5    1
     9     4     5    1
    10     4    10    1
    11    12     6    1
    12     5     6    1
