@<TRIPOS>MOLECULE
2arm_OIN_A_1.pdb
 21 24 0 0 0
SMALL
GASTEIGER

@<TRIPOS>ATOM
      1  C10       14.3500   22.8900    1.4090 C.3   401  OIN401      0.0896
      2  N         13.9530   23.7980    0.3230 N.3   401  OIN401     -0.2738
      3  C11       14.2440   25.1580    0.3700 C.3   401  OIN401      0.0611
      4  C17       13.9740   25.5840   -1.0310 C.3   401  OIN401      0.0175
      5  C16       12.6670   24.8070   -1.2000 C.3   401  OIN401      0.0175
      6  C15       12.6310   24.1650    0.1470 C.3   401  OIN401      0.0611
      7  C14       11.7730   24.6900    1.2640 C.3   401  OIN401      0.0596
      8  C13       12.4120   25.9400    1.7980 C.3   401  OIN401      0.1715
      9  C12       13.9180   26.0490    1.5450 C.3   401  OIN401      0.0596
     10  O2        11.5720   26.8250    2.6270 O.3   401  OIN401     -0.4519
     11  C7        10.3380   26.1920    3.1490 C.2   401  OIN401      0.3231
     12  O3        10.4440   25.4730    4.1360 O.2   401  OIN401     -0.2497
     13  C9         8.9630   26.4510    2.5290 C.3   401  OIN401      0.1541
     14  C8         7.8550   26.2850    3.5610 C.3   401  OIN401      0.1975
     15  OH         7.9420   27.2370    4.6070 O.3   401  OIN401     -0.2194
     16  C6         8.6980   25.6100    1.3170 C.ar  401  OIN401     -0.0094
     17  C5         8.3620   26.2330    0.1210 C.ar  401  OIN401     -0.0037
     18  C4         8.1380   25.4890   -1.0280 C.ar  401  OIN401     -0.0003
     19  C3         8.2400   24.1100   -0.9950 C.ar  401  OIN401     -0.0000
     20  C2         8.5780   23.4790    0.1870 C.ar  401  OIN401     -0.0003
     21  C1         8.8000   24.2230    1.3380 C.ar  401  OIN401     -0.0037
@<TRIPOS>BOND
     1     5     4    1
     2     5     6    1
     3     4     3    1
     4    18    19   ar
     5    18    17   ar
     6    19    20   ar
     7    17    16   ar
     8     6     2    1
     9     6     3    1
    10     6     7    1
    11    20    21   ar
    12     2     3    1
    13     2     1    1
    14     3     9    1
    15     7     8    1
    16    16    21   ar
    17    16    13    1
    18     9     8    1
    19     8    10    1
    20    13    11    1
    21    13    14    1
    22    10    11    1
    23    11    12    2
    24    14    15    1
