@<TRIPOS>MOLECULE
2art_AMP_A_1.pdb
 22 24 0 0 0
SMALL
GASTEIGER

@<TRIPOS>ATOM
      1  P         10.8220   30.8500   25.7590 P.3   302  AMP302      0.3942
      2  O1P       10.6570   32.2950   25.6200 O.3   302  AMP302     -0.1425
      3  O2P       11.9550   30.2990   24.8240 O.3   302  AMP302     -0.1425
      4  O5'        9.4560   30.1410   25.3040 O.3   302  AMP302     -0.2926
      5  C5'        8.7400   29.4560   26.2250 C.3   302  AMP302      0.1831
      6  C4'        7.8960   28.2830   25.8570 C.3   302  AMP302      0.1822
      7  O4'        8.4990   27.0300   26.1640 O.3   302  AMP302     -0.3135
      8  C3'        6.5680   28.2140   26.5880 C.3   302  AMP302      0.2184
      9  O3'        5.4050   29.0150   26.4450 O.3   302  AMP302     -0.2174
     10  C2'        6.1780   26.8110   26.3540 C.3   302  AMP302      0.2570
     11  O2'        5.5860   26.5460   25.0510 O.3   302  AMP302     -0.2130
     12  C1'        7.4820   26.0220   26.5050 C.3   302  AMP302      0.3186
     13  N9         7.9170   25.6120   27.8470 N.pl3 302  AMP302     -0.1439
     14  C8         7.3680   25.8030   29.0770 C.3   302  AMP302      0.3377
     15  N7         8.0790   25.2790   30.0180 N.2   302  AMP302     -0.2095
     16  C5         9.1600   24.6980   29.4760 C.2   302  AMP302      0.2526
     17  C6        10.2900   23.9890   29.8770 C.2   302  AMP302      0.4393
     18  N6        10.4170   23.7830   31.1530 N.pl3 302  AMP302      0.2180
     19  N1        11.2200   23.5350   28.9830 N.2   302  AMP302      0.0021
     20  C2        11.1180   23.7390   27.6270 C.3   302  AMP302      0.5254
     21  N3        10.0590   24.4090   27.2110 N.2   302  AMP302     -0.0055
     22  C4         9.0740   24.9020   28.0490 C.2   302  AMP302      0.3518
@<TRIPOS>BOND
     1     3     1    1
     2    11    10    1
     3     4     1    1
     4     4     5    1
     5     2     1    1
     6     6     7    1
     7     6     5    1
     8     6     8    1
     9     7    12    1
    10    10    12    1
    11    10     8    1
    12     9     8    1
    13    12    13    1
    14    21    20    1
    15    21    22    2
    16    20    19    1
    17    13    22    1
    18    13    14    1
    19    22    16    1
    20    19    17    2
    21    14    15    1
    22    16    17    1
    23    16    15    2
    24    17    18    1
