@<TRIPOS>MOLECULE
2art_LPA_A_1.pdb
 12 12 0 0 0
SMALL
GASTEIGER

@<TRIPOS>ATOM
      1  O1        12.7060   28.6340   27.1320 O.co2 301  LPA301     -0.2457
      2  O2        11.2080   30.4640   27.3130 O.co2 301  LPA301     -0.2457
      3  C1        12.3440   29.7180   27.6520 C.2   301  LPA301      0.3649
      4  C2        13.1570   30.3500   28.7910 C.3   301  LPA301      0.1141
      5  C3        14.3870   29.5560   29.2690 C.3   301  LPA301      0.0118
      6  C4        14.2390   29.0580   30.7030 C.3   301  LPA301      0.0015
      7  C5        15.5890   28.7430   31.3360 C.3   301  LPA301      0.0117
      8  C6        15.5450   27.9080   32.6170 C.3   301  LPA301      0.0588
      9  C7        14.4570   28.4910   33.4850 C.3   301  LPA301      0.0242
     10  C8        14.8750   29.0420   34.9160 C.3   301  LPA301      0.0696
     11  S8        16.5720   29.2880   35.0520 S.3   301  LPA301     -0.0821
     12  S6        16.9640   28.0620   33.4970 S.3   301  LPA301     -0.0830
@<TRIPOS>BOND
     1     1     3   ar
     2     2     3   ar
     3     3     4    1
     4     4     5    1
     5     5     6    1
     6     6     7    1
     7     7     8    1
     8     8     9    1
     9     8    12    1
    10     9    10    1
    11    12    11    1
    12    10    11    1
