@<TRIPOS>MOLECULE
2aru_ATP_A_1.pdb
 31 33 0 0 0
SMALL
GASTEIGER

@<TRIPOS>ATOM
      1  PG        13.3180   29.7740   29.6010 P.3   1065  ATP1065     0.5373
      2  O1G       14.5660   30.3430   28.9290 O.2   1065  ATP1065    -0.2221
      3  O2G       12.5580   28.5240   29.0940 O.3   1065  ATP1065    -0.1143
      4  O3G       12.5260   30.7410   30.5180 O.3   1065  ATP1065    -0.1143
      5  PB        12.7680   30.0870   26.7110 P.3   1065  ATP1065     0.2277
      6  O1B       12.6240   28.6190   26.3840 O.2   1065  ATP1065    -0.5168
      7  O2B       14.1800   30.5770   26.4580 O.3   1065  ATP1065    -0.4368
      8  O3B       12.4190   30.4230   28.3030 O.3   1065  ATP1065    -0.2258
      9  PA        10.2850   31.1380   25.4650 P.3   1065  ATP1065     0.2189
     10  O1A        9.9000   32.5820   25.3010 O.3   1065  ATP1065    -0.4371
     11  O2A        9.9350   30.2980   24.2720 O.2   1065  ATP1065    -0.5170
     12  O3A       11.8730   31.0380   25.7850 O.3   1065  ATP1065    -0.2700
     13  O5'        9.4680   30.6080   26.7140 O.3   1065  ATP1065    -0.3112
     14  C5'        9.5670   29.2140   27.0270 C.3   1065  ATP1065     0.1813
     15  C4'        8.5000   28.4100   26.2580 C.3   1065  ATP1065     0.1821
     16  O4'        8.9000   27.0160   26.3560 O.3   1065  ATP1065    -0.3135
     17  C3'        7.0710   28.4410   26.8410 C.3   1065  ATP1065     0.2184
     18  O3'        6.2810   29.5290   26.3220 O.3   1065  ATP1065    -0.2174
     19  C2'        6.5460   27.0570   26.4830 C.3   1065  ATP1065     0.2570
     20  O2'        5.9950   26.9920   25.1600 O.3   1065  ATP1065    -0.2130
     21  C1'        7.7830   26.1530   26.5620 C.3   1065  ATP1065     0.3186
     22  N9         8.0610   25.6210   27.9060 N.pl3 1065  ATP1065    -0.1439
     23  C8         7.2760   25.6640   29.0620 C.3   1065  ATP1065     0.3377
     24  N7         7.8400   25.1110   30.1060 N.2   1065  ATP1065    -0.2095
     25  C5         9.0800   24.6720   29.6260 C.2   1065  ATP1065     0.2526
     26  C6        10.1670   24.0120   30.2480 C.2   1065  ATP1065     0.4393
     27  N6        10.1540   23.6780   31.5480 N.pl3 1065  ATP1065     0.2180
     28  N1        11.2830   23.7100   29.4720 N.2   1065  ATP1065     0.0021
     29  C2        11.2920   24.0560   28.1600 C.3   1065  ATP1065     0.5254
     30  N3        10.3180   24.6870   27.4760 N.2   1065  ATP1065    -0.0055
     31  C4         9.2290   24.9710   28.2730 C.2   1065  ATP1065     0.3518
@<TRIPOS>BOND
     1    11     9    2
     2    20    19    1
     3    10     9    1
     4     9    12    1
     5     9    13    1
     6    12     5    1
     7    15    16    1
     8    15    17    1
     9    15    14    1
    10    18    17    1
    11    16    21    1
    12     6     5    2
    13     7     5    1
    14    19    21    1
    15    19    17    1
    16    21    22    1
    17     5     8    1
    18    13    14    1
    19    30    29    1
    20    30    31    2
    21    22    31    1
    22    22    23    1
    23    29    28    1
    24    31    25    1
    25     8     1    1
    26     2     1    2
    27    23    24    1
    28     3     1    1
    29    28    26    2
    30     1     4    1
    31    25    24    2
    32    25    26    1
    33    26    27    1
