@<TRIPOS>MOLECULE
2arx_NAG_B_1.pdb
 14 14 0 0 0
SMALL
GASTEIGER

@<TRIPOS>ATOM
      1  C1        -1.9650   -9.4640  -15.1390 C.3   900  NAG900      0.1665
      2  C2        -0.8000   -8.8980  -15.9570 C.3   900  NAG900      0.1576
      3  C3        -1.1580   -7.4580  -16.3490 C.3   900  NAG900      0.2069
      4  C4        -2.5210   -7.3950  -17.0500 C.3   900  NAG900      0.2134
      5  C5        -3.5790   -8.0990  -16.1900 C.3   900  NAG900      0.1809
      6  C6        -4.9480   -8.1620  -16.8320 C.3   900  NAG900      0.2141
      7  C7         1.5500   -9.3260  -15.7250 C.2   900  NAG900      0.2420
      8  C8         2.8020   -9.2660  -14.8620 C.3   900  NAG900      0.0964
      9  N2         0.4220   -8.8880  -15.1820 N.am  900  NAG900     -0.2019
     10  O3        -0.1540   -6.9170  -17.1910 O.3   900  NAG900     -0.2184
     11  O4        -2.8930   -6.0390  -17.2470 O.3   900  NAG900     -0.2176
     12  O5        -3.1640   -9.4500  -15.9120 O.3   900  NAG900     -0.3489
     13  O6        -5.0910   -9.3310  -17.6230 O.3   900  NAG900     -0.2176
     14  O7         1.6110   -9.7870  -16.8660 O.2   900  NAG900     -0.2733
@<TRIPOS>BOND
     1    13     6    1
     2    11     4    1
     3    10     3    1
     4     4     3    1
     5     4     5    1
     6    14     7    2
     7     6     5    1
     8     3     2    1
     9     5    12    1
    10     2     9    1
    11     2     1    1
    12    12     1    1
    13     7     9   am
    14     7     8    1
