@<TRIPOS>MOLECULE
2arx_MAN_A_1.pdb
 11 11 0 0 0
SMALL
GASTEIGER

@<TRIPOS>ATOM
      1  C1         4.7660   42.1440   26.1060 C.3   901  MAN901      0.1777
      2  C2         3.6740   41.3570   25.3780 C.3   901  MAN901      0.2141
      3  C3         3.0970   40.2880   26.3110 C.3   901  MAN901      0.2173
      4  C4         4.2160   39.3930   26.8530 C.3   901  MAN901      0.2142
      5  C5         5.2990   40.2560   27.5120 C.3   901  MAN901      0.1810
      6  C6         6.5060   39.4610   27.9880 C.3   901  MAN901      0.2141
      7  O2         4.2230   40.7360   24.2220 O.3   901  MAN901     -0.2176
      8  O3         2.1510   39.5010   25.6040 O.3   901  MAN901     -0.2175
      9  O4         3.6800   38.4890   27.8050 O.3   901  MAN901     -0.2176
     10  O5         5.7740   41.2510   26.5780 O.3   901  MAN901     -0.3481
     11  O6         7.1720   38.8250   26.9060 O.3   901  MAN901     -0.2176
@<TRIPOS>BOND
     1     7     2    1
     2     2     1    1
     3     2     3    1
     4     8     3    1
     5     1    10    1
     6     3     4    1
     7    10     5    1
     8     4     5    1
     9     4     9    1
    10    11     6    1
    11     5     6    1
