@<TRIPOS>MOLECULE
2arx_BMA_B_1.pdb
 11 11 0 0 0
SMALL
GASTEIGER

@<TRIPOS>ATOM
      1  C1        -1.3540  -17.2320  -19.0570 C.3   902  BMA902      0.1777
      2  C2        -1.7820  -18.3090  -18.0470 C.3   902  BMA902      0.2141
      3  C3        -3.1890  -17.9930  -17.5110 C.3   902  BMA902      0.2173
      4  C4        -3.2760  -16.5570  -16.9870 C.3   902  BMA902      0.2142
      5  C5        -2.8210  -15.6070  -18.0980 C.3   902  BMA902      0.1810
      6  C6        -2.8990  -14.1090  -17.7950 C.3   902  BMA902      0.2141
      7  O2        -0.8500  -18.3780  -16.9800 O.3   902  BMA902     -0.2176
      8  O3        -3.5520  -18.9210  -16.4700 O.3   902  BMA902     -0.2175
      9  O4        -4.6170  -16.2730  -16.6310 O.3   902  BMA902     -0.2176
     10  O5        -1.4610  -15.9220  -18.4720 O.3   902  BMA902     -0.3481
     11  O6        -1.9440  -13.7240  -16.7800 O.3   902  BMA902     -0.2176
@<TRIPOS>BOND
     1     1    10    1
     2     1     2    1
     3    10     5    1
     4     5     6    1
     5     5     4    1
     6     2     3    1
     7     2     7    1
     8     6    11    1
     9     3     4    1
    10     3     8    1
    11     4     9    1
