@<TRIPOS>MOLECULE
2as1_HEM_A_1.pdb
 43 50 0 0 0
SMALL
GASTEIGER

@<TRIPOS>ATOM
      1 FE        -11.5220   -2.6620   -1.4840 Fe    400  HEM400      0.0000
      2  CHA      -14.2120   -0.6100   -1.2530 C.2   400  HEM400      0.0000
      3  CHB      -10.2070   -0.7370   -3.9480 C.2   400  HEM400      0.0000
      4  CHC       -8.8490   -4.6970   -1.6770 C.2   400  HEM400      0.0000
      5  CHD      -12.7090   -4.4440    1.1490 C.2   400  HEM400      0.0000
      6  NA       -12.0980   -0.9640   -2.4370 N.ar  400  HEM400      0.0000
      7  C1A      -13.1920   -0.2300   -2.1630 C.ar  400  HEM400      0.0000
      8  C2A      -13.2510    0.8530   -3.0170 C.ar  400  HEM400      0.0000
      9  C3A      -12.0510    0.8720   -3.7320 C.ar  400  HEM400      0.0000
     10  C4A      -11.4360   -0.3240   -3.4150 C.ar  400  HEM400      0.0000
     11  CMA      -11.6310    1.8120   -4.8520 C.3   400  HEM400      0.0000
     12  CAA      -14.3350    1.9400   -2.9810 C.3   400  HEM400      0.0000
     13  CBA      -14.2070    2.9210   -1.8310 C.3   400  HEM400      0.0000
     14  CGA      -15.3650    3.9340   -1.8730 C.2   400  HEM400      0.0000
     15  O1A      -15.5540    4.5910   -2.9020 O.co2 400  HEM400      0.0000
     16  O2A      -16.0260    4.1450   -0.8570 O.co2 400  HEM400      0.0000
     17  NB        -9.7230   -2.6470   -2.5500 N.2   400  HEM400      0.0000
     18  C1B       -9.3790   -1.7930   -3.5110 C.2   400  HEM400      0.0000
     19  C2B       -8.3010   -2.2810   -4.2550 C.2   400  HEM400      0.0000
     20  C3B       -7.8680   -3.4060   -3.5610 C.2   400  HEM400      0.0000
     21  C4B       -8.8380   -3.6390   -2.5850 C.2   400  HEM400      0.0000
     22  CMB       -7.5890   -1.4650   -5.3270 C.3   400  HEM400      0.0000
     23  CAB       -6.8190   -4.2880   -3.8600 C.3   400  HEM400      0.0000
     24  CBB       -6.1820   -4.4650   -5.1370 C.3   400  HEM400      0.0000
     25  NC       -10.8430   -4.2260   -0.3630 N.ar  400  HEM400      0.0000
     26  C1C       -9.7310   -4.9400   -0.6030 C.ar  400  HEM400      0.0000
     27  C2C       -9.5380   -5.9420    0.3440 C.ar  400  HEM400      0.0000
     28  C3C      -10.6580   -5.8600    1.1810 C.ar  400  HEM400      0.0000
     29  C4C      -11.4440   -4.8290    0.6800 C.ar  400  HEM400      0.0000
     30  CMC       -8.2950   -6.8390    0.4580 C.3   400  HEM400      0.0000
     31  CAC      -10.8780   -6.4710    2.4330 C.3   400  HEM400      0.0000
     32  CBC      -10.7790   -7.8890    2.7240 C.3   400  HEM400      0.0000
     33  ND       -13.1910   -2.5530   -0.2390 N.2   400  HEM400      0.0000
     34  C1D      -13.5860   -3.5060    0.6130 C.2   400  HEM400      0.0000
     35  C2D      -14.8660   -3.2520    1.0910 C.2   400  HEM400      0.0000
     36  C3D      -15.2990   -2.1120    0.4230 C.2   400  HEM400      0.0000
     37  C4D      -14.2480   -1.7460   -0.4280 C.2   400  HEM400      0.0000
     38  CMD      -15.6200   -4.0500    2.1340 C.3   400  HEM400      0.0000
     39  CAD      -16.6980   -1.4650    0.5030 C.3   400  HEM400      0.0000
     40  CBD      -16.6860   -0.1970    1.3790 C.3   400  HEM400      0.0000
     41  CGD      -18.0360    0.5220    1.5280 C.2   400  HEM400      0.0000
     42  O1D      -19.0040    0.0580    0.9470 O.co2 400  HEM400      0.0000
     43  O2D      -18.0670    1.5620    2.1840 O.co2 400  HEM400      0.0000
@<TRIPOS>BOND
     1    22    19    1
     2    24    23    1
     3    11     9    1
     4    19    20    2
     5    19    18    1
     6     3    18    1
     7     3    10    2
     8    23    20    1
     9     9    10   ar
    10     9     8   ar
    11    20    21    1
    12    18    17    2
    13    10     6   ar
    14     8    12    1
    15     8     7   ar
    16    12    13    1
    17    15    14   ar
    18    21    17    1
    19    21     4    2
    20    17     1    1
    21     6     7   ar
    22     6     1    1
    23     7     2    2
    24    14    13    1
    25    14    16   ar
    26     4    26    1
    27     1    25    1
    28     1    33    1
    29     2    37    1
    30    26    25   ar
    31    26    27   ar
    32    37    33    2
    33    37    36    1
    34    25    29   ar
    35    33    34    1
    36    27    30    1
    37    27    28   ar
    38    36    39    1
    39    36    35    2
    40    39    40    1
    41    34    35    1
    42    34     5    2
    43    29     5    1
    44    29    28   ar
    45    42    41   ar
    46    35    38    1
    47    28    31    1
    48    40    41    1
    49    41    43   ar
    50    31    32    1
