@<TRIPOS>MOLECULE
2as2_HEM_A_1.pdb
 43 50 0 0 0
SMALL
GASTEIGER

@<TRIPOS>ATOM
      1 FE        -11.4990   -2.4040   -1.2590 Fe    400  HEM400      0.0000
      2  CHA      -14.2380   -0.3630   -1.0960 C.2   400  HEM400      0.0000
      3  CHB      -10.1110   -0.3390   -3.6010 C.2   400  HEM400      0.0000
      4  CHC       -8.8200   -4.4510   -1.4660 C.2   400  HEM400      0.0000
      5  CHD      -12.6780   -4.1850    1.4090 C.2   400  HEM400      0.0000
      6  NA       -12.0210   -0.7110   -2.1190 N.ar  400  HEM400      0.0000
      7  C1A      -13.2180   -0.0220   -1.9580 C.ar  400  HEM400      0.0000
      8  C2A      -13.1980    1.1710   -2.7500 C.ar  400  HEM400      0.0000
      9  C3A      -12.0750    1.1730   -3.4810 C.ar  400  HEM400      0.0000
     10  C4A      -11.3670   -0.0200   -3.1350 C.ar  400  HEM400      0.0000
     11  CMA      -11.6050    2.1920   -4.5070 C.3   400  HEM400      0.0000
     12  CAA      -14.2790    2.2560   -2.6870 C.3   400  HEM400      0.0000
     13  CBA      -14.0650    3.2210   -1.5020 C.3   400  HEM400      0.0000
     14  CGA      -15.2470    4.2020   -1.5580 C.2   400  HEM400      0.0000
     15  O1A      -15.4400    4.8870   -2.5470 O.co2 400  HEM400      0.0000
     16  O2A      -16.0000    4.3580   -0.4660 O.co2 400  HEM400      0.0000
     17  NB        -9.7620   -2.3890   -2.3220 N.2   400  HEM400      0.0000
     18  C1B       -9.4460   -1.5180   -3.3120 C.2   400  HEM400      0.0000
     19  C2B       -8.2470   -1.9590   -3.9640 C.2   400  HEM400      0.0000
     20  C3B       -7.8730   -3.1500   -3.4040 C.2   400  HEM400      0.0000
     21  C4B       -8.8670   -3.3950   -2.3290 C.2   400  HEM400      0.0000
     22  CMB       -7.5140   -1.1960   -5.0670 C.3   400  HEM400      0.0000
     23  CAB       -6.7220   -4.0490   -3.7730 C.2   400  HEM400      0.0000
     24  CBB       -6.1790   -4.2040   -4.9990 C.2   400  HEM400      0.0000
     25  NC       -10.8120   -3.9340   -0.1480 N.ar  400  HEM400      0.0000
     26  C1C       -9.7020   -4.6830   -0.4290 C.ar  400  HEM400      0.0000
     27  C2C       -9.4990   -5.6640    0.5990 C.ar  400  HEM400      0.0000
     28  C3C      -10.5890   -5.5760    1.4720 C.ar  400  HEM400      0.0000
     29  C4C      -11.4420   -4.5360    0.9430 C.ar  400  HEM400      0.0000
     30  CMC       -8.3200   -6.5980    0.7050 C.3   400  HEM400      0.0000
     31  CAC      -10.9020   -6.3610    2.6960 C.2   400  HEM400      0.0000
     32  CBC      -10.6220   -7.6420    2.8290 C.2   400  HEM400      0.0000
     33  ND       -13.0930   -2.2770   -0.0810 N.2   400  HEM400      0.0000
     34  C1D      -13.4490   -3.1690    0.8680 C.2   400  HEM400      0.0000
     35  C2D      -14.8610   -2.9150    1.3390 C.2   400  HEM400      0.0000
     36  C3D      -15.3110   -1.8730    0.6580 C.2   400  HEM400      0.0000
     37  C4D      -14.1740   -1.4460   -0.2100 C.2   400  HEM400      0.0000
     38  CMD      -15.6000   -3.8370    2.2980 C.3   400  HEM400      0.0000
     39  CAD      -16.7100   -1.2420    0.6470 C.3   400  HEM400      0.0000
     40  CBD      -16.6500   -0.0300    1.6300 C.3   400  HEM400      0.0000
     41  CGD      -17.9640    0.7410    1.7040 C.2   400  HEM400      0.0000
     42  O1D      -19.0050    0.3070    1.2610 O.co2 400  HEM400      0.0000
     43  O2D      -17.9350    1.8040    2.4990 O.co2 400  HEM400      0.0000
@<TRIPOS>BOND
     1    22    19    1
     2    24    23    2
     3    11     9    1
     4    19    20    2
     5    19    18    1
     6    23    20    1
     7     3    18    1
     8     3    10    2
     9     9    10   ar
    10     9     8   ar
    11    20    21    1
    12    18    17    2
    13    10     6   ar
    14     8    12    1
    15     8     7   ar
    16    12    13    1
    17    15    14   ar
    18    21    17    1
    19    21     4    2
    20    17     1    1
    21     6     7   ar
    22     6     1    1
    23     7     2    2
    24    14    13    1
    25    14    16   ar
    26     4    26    1
    27     1    25    1
    28     1    33    1
    29     2    37    1
    30    26    25   ar
    31    26    27   ar
    32    37    33    2
    33    37    36    1
    34    25    29   ar
    35    33    34    1
    36    27    30    1
    37    27    28   ar
    38    39    36    1
    39    39    40    1
    40    36    35    2
    41    34    35    1
    42    34     5    2
    43    29     5    1
    44    29    28   ar
    45    42    41   ar
    46    35    38    1
    47    28    31    1
    48    40    41    1
    49    41    43   ar
    50    31    32    2
