@<TRIPOS>MOLECULE
2as3_HEM_A_1.pdb
 43 50 0 0 0
SMALL
GASTEIGER

@<TRIPOS>ATOM
      1 FE        -11.5380   -2.4540   -1.3840 Fe    400  HEM400      0.0000
      2  CHA      -14.2730   -0.4580   -1.1940 C.2   400  HEM400      0.0000
      3  CHB      -10.1900   -0.4420   -3.7550 C.2   400  HEM400      0.0000
      4  CHC       -8.8980   -4.5130   -1.6230 C.2   400  HEM400      0.0000
      5  CHD      -12.7290   -4.2510    1.2600 C.2   400  HEM400      0.0000
      6  NA       -12.0990   -0.7080   -2.2720 N.ar  400  HEM400      0.0000
      7  C1A      -13.2180   -0.0050   -2.0290 C.ar  400  HEM400      0.0000
      8  C2A      -13.2790    1.0920   -2.8650 C.ar  400  HEM400      0.0000
      9  C3A      -12.1010    1.1010   -3.6120 C.ar  400  HEM400      0.0000
     10  C4A      -11.4350   -0.0530   -3.2450 C.ar  400  HEM400      0.0000
     11  CMA      -11.6760    2.1200   -4.6570 C.3   400  HEM400      0.0000
     12  CAA      -14.3710    2.1770   -2.8250 C.3   400  HEM400      0.0000
     13  CBA      -14.1820    3.1790   -1.7050 C.3   400  HEM400      0.0000
     14  CGA      -15.2910    4.2510   -1.7340 C.2   400  HEM400      0.0000
     15  O1A      -15.5450    4.8300   -2.7920 O.co2 400  HEM400      0.0000
     16  O2A      -16.0190    4.3820   -0.7530 O.co2 400  HEM400      0.0000
     17  NB        -9.7950   -2.4700   -2.5010 N.2   400  HEM400      0.0000
     18  C1B       -9.4310   -1.5820   -3.4250 C.2   400  HEM400      0.0000
     19  C2B       -8.3130   -2.0240   -4.1360 C.2   400  HEM400      0.0000
     20  C3B       -7.9650   -3.2400   -3.5500 C.2   400  HEM400      0.0000
     21  C4B       -8.9050   -3.4610   -2.5420 C.2   400  HEM400      0.0000
     22  CMB       -7.6870   -1.2760   -5.3040 C.3   400  HEM400      0.0000
     23  CAB       -6.8700   -4.0760   -3.8220 C.3   400  HEM400      0.0000
     24  CBB       -6.2140   -4.2170   -5.0990 C.3   400  HEM400      0.0000
     25  NC       -10.8640   -4.0300   -0.2720 N.ar  400  HEM400      0.0000
     26  C1C       -9.7780   -4.7740   -0.5480 C.ar  400  HEM400      0.0000
     27  C2C       -9.5900   -5.7730    0.4040 C.ar  400  HEM400      0.0000
     28  C3C      -10.6730   -5.6490    1.2850 C.ar  400  HEM400      0.0000
     29  C4C      -11.4720   -4.6370    0.7680 C.ar  400  HEM400      0.0000
     30  CMC       -8.3510   -6.6690    0.5440 C.3   400  HEM400      0.0000
     31  CAC      -10.9360   -6.3360    2.4840 C.3   400  HEM400      0.0000
     32  CBC      -10.7440   -7.7460    2.7490 C.3   400  HEM400      0.0000
     33  ND       -13.2060   -2.3710   -0.1470 N.2   400  HEM400      0.0000
     34  C1D      -13.5830   -3.2650    0.7700 C.2   400  HEM400      0.0000
     35  C2D      -14.8730   -3.0200    1.2300 C.2   400  HEM400      0.0000
     36  C3D      -15.3370   -1.9570    0.4600 C.2   400  HEM400      0.0000
     37  C4D      -14.2350   -1.5200   -0.2800 C.2   400  HEM400      0.0000
     38  CMD      -15.7220   -3.9320    2.1040 C.3   400  HEM400      0.0000
     39  CAD      -16.7330   -1.3080    0.5300 C.3   400  HEM400      0.0000
     40  CBD      -16.7580   -0.1300    1.5180 C.3   400  HEM400      0.0000
     41  CGD      -18.0900    0.6260    1.6280 C.2   400  HEM400      0.0000
     42  O1D      -19.0930    0.1460    1.1330 O.co2 400  HEM400      0.0000
     43  O2D      -18.0890    1.6460    2.2920 O.co2 400  HEM400      0.0000
@<TRIPOS>BOND
     1    22    19    1
     2    24    23    1
     3    11     9    1
     4    19    20    2
     5    19    18    1
     6    23    20    1
     7     3    18    1
     8     3    10    2
     9     9    10   ar
    10     9     8   ar
    11    20    21    1
    12    18    17    2
    13    10     6   ar
    14     8    12    1
    15     8     7   ar
    16    12    13    1
    17    15    14   ar
    18    21    17    1
    19    21     4    2
    20    17     1    1
    21     6     7   ar
    22     6     1    1
    23     7     2    2
    24    14    13    1
    25    14    16   ar
    26     4    26    1
    27     1    25    1
    28     1    33    1
    29     2    37    1
    30    26    25   ar
    31    26    27   ar
    32    37    33    2
    33    37    36    1
    34    25    29   ar
    35    33    34    1
    36    27    30    1
    37    27    28   ar
    38    36    39    1
    39    36    35    2
    40    39    40    1
    41    29     5    1
    42    29    28   ar
    43    34    35    1
    44    34     5    2
    45    42    41   ar
    46    35    38    1
    47    28    31    1
    48    40    41    1
    49    41    43   ar
    50    31    32    1
