@<TRIPOS>MOLECULE
2as4_HEM_A_1.pdb
 43 50 0 0 0
SMALL
GASTEIGER

@<TRIPOS>ATOM
      1 FE        -11.6610   -2.5350   -1.4280 Fe    400  HEM400      0.0000
      2  CHA      -14.4180   -0.5720   -1.2940 C.2   400  HEM400      0.0000
      3  CHB      -10.3110   -0.5030   -3.8530 C.2   400  HEM400      0.0000
      4  CHC       -8.9910   -4.5220   -1.6300 C.2   400  HEM400      0.0000
      5  CHD      -12.8270   -4.2980    1.2380 C.2   400  HEM400      0.0000
      6  NA       -12.2150   -0.7790   -2.3430 N.ar  400  HEM400      0.0000
      7  C1A      -13.3770   -0.1280   -2.1500 C.ar  400  HEM400      0.0000
      8  C2A      -13.4080    1.0050   -2.9490 C.ar  400  HEM400      0.0000
      9  C3A      -12.2260    1.0240   -3.6830 C.ar  400  HEM400      0.0000
     10  C4A      -11.5320   -0.1020   -3.2880 C.ar  400  HEM400      0.0000
     11  CMA      -11.7650    2.0330   -4.7070 C.3   400  HEM400      0.0000
     12  CAA      -14.5110    2.0800   -2.9140 C.3   400  HEM400      0.0000
     13  CBA      -14.3450    3.0480   -1.7480 C.3   400  HEM400      0.0000
     14  CGA      -15.4910    4.0690   -1.7760 C.2   400  HEM400      0.0000
     15  O1A      -15.6750    4.7120   -2.8190 O.co2 400  HEM400      0.0000
     16  O2A      -16.1590    4.2660   -0.7610 O.co2 400  HEM400      0.0000
     17  NB        -9.8730   -2.4730   -2.5010 N.2   400  HEM400      0.0000
     18  C1B       -9.5390   -1.6270   -3.4730 C.2   400  HEM400      0.0000
     19  C2B       -8.4250   -2.0820   -4.1830 C.2   400  HEM400      0.0000
     20  C3B       -8.0490   -3.2720   -3.5670 C.2   400  HEM400      0.0000
     21  C4B       -9.0070   -3.4950   -2.5710 C.2   400  HEM400      0.0000
     22  CMB       -7.7190   -1.2860   -5.2700 C.3   400  HEM400      0.0000
     23  CAB       -6.9490   -4.1060   -3.8570 C.3   400  HEM400      0.0000
     24  CBB       -6.2960   -4.2580   -5.1310 C.3   400  HEM400      0.0000
     25  NC       -10.9680   -4.0830   -0.3090 N.ar  400  HEM400      0.0000
     26  C1C       -9.8480   -4.7940   -0.5470 C.ar  400  HEM400      0.0000
     27  C2C       -9.6860   -5.8120    0.3930 C.ar  400  HEM400      0.0000
     28  C3C      -10.7660   -5.6810    1.2800 C.ar  400  HEM400      0.0000
     29  C4C      -11.5640   -4.6770    0.7600 C.ar  400  HEM400      0.0000
     30  CMC       -8.4250   -6.6750    0.5490 C.3   400  HEM400      0.0000
     31  CAC      -11.0120   -6.3600    2.4970 C.3   400  HEM400      0.0000
     32  CBC      -10.7980   -7.7670    2.7440 C.3   400  HEM400      0.0000
     33  ND       -13.3090   -2.4240   -0.1960 N.2   400  HEM400      0.0000
     34  C1D      -13.6790   -3.3090    0.7470 C.2   400  HEM400      0.0000
     35  C2D      -14.9880   -3.0980    1.1810 C.2   400  HEM400      0.0000
     36  C3D      -15.4590   -2.0230    0.4380 C.2   400  HEM400      0.0000
     37  C4D      -14.3730   -1.6050   -0.3530 C.2   400  HEM400      0.0000
     38  CMD      -15.7840   -3.9680    2.1330 C.3   400  HEM400      0.0000
     39  CAD      -16.8540   -1.3670    0.5260 C.3   400  HEM400      0.0000
     40  CBD      -16.8570   -0.1360    1.4450 C.3   400  HEM400      0.0000
     41  CGD      -18.2170    0.5560    1.6580 C.2   400  HEM400      0.0000
     42  O1D      -19.1970    0.1160    1.0680 O.co2 400  HEM400      0.0000
     43  O2D      -18.1810    1.6180    2.2820 O.co2 400  HEM400      0.0000
@<TRIPOS>BOND
     1    22    19    1
     2    24    23    1
     3    11     9    1
     4    19    20    2
     5    19    18    1
     6    23    20    1
     7     3    18    1
     8     3    10    2
     9     9    10   ar
    10     9     8   ar
    11    20    21    1
    12    18    17    2
    13    10     6   ar
    14     8    12    1
    15     8     7   ar
    16    12    13    1
    17    15    14   ar
    18    21    17    1
    19    21     4    2
    20    17     1    1
    21     6     7   ar
    22     6     1    1
    23     7     2    2
    24    14    13    1
    25    14    16   ar
    26     4    26    1
    27     1    25    1
    28     1    33    1
    29     2    37    1
    30    26    25   ar
    31    26    27   ar
    32    37    33    2
    33    37    36    1
    34    25    29   ar
    35    33    34    1
    36    27    30    1
    37    27    28   ar
    38    36    39    1
    39    36    35    2
    40    39    40    1
    41    34    35    1
    42    34     5    2
    43    29     5    1
    44    29    28   ar
    45    42    41   ar
    46    35    38    1
    47    28    31    1
    48    40    41    1
    49    41    43   ar
    50    31    32    1
