@<TRIPOS>MOLECULE
2as6_HEM_A_1.pdb
 43 50 0 0 0
SMALL
GASTEIGER

@<TRIPOS>ATOM
      1 FE        -11.5250   -2.5740   -1.3320 Fe    400  HEM400      0.0000
      2  CHA      -14.2760   -0.5910   -1.2000 C.2   400  HEM400      0.0000
      3  CHB      -10.1490   -0.5520   -3.6980 C.2   400  HEM400      0.0000
      4  CHC       -8.8510   -4.6030   -1.5140 C.2   400  HEM400      0.0000
      5  CHD      -12.7070   -4.3350    1.3200 C.2   400  HEM400      0.0000
      6  NA       -12.0750   -0.8240   -2.2470 N.ar  400  HEM400      0.0000
      7  C1A      -13.2360   -0.1700   -2.0710 C.ar  400  HEM400      0.0000
      8  C2A      -13.2670    0.9530   -2.8740 C.ar  400  HEM400      0.0000
      9  C3A      -12.0450    1.0070   -3.5470 C.ar  400  HEM400      0.0000
     10  C4A      -11.4070   -0.1720   -3.2130 C.ar  400  HEM400      0.0000
     11  CMA      -11.6180    2.0220   -4.6010 C.3   400  HEM400      0.0000
     12  CAA      -14.3420    2.0500   -2.8110 C.3   400  HEM400      0.0000
     13  CBA      -14.1440    3.0380   -1.6770 C.3   400  HEM400      0.0000
     14  CGA      -15.2700    4.0950   -1.6930 C.2   400  HEM400      0.0000
     15  O1A      -15.5070    4.7040   -2.7390 O.co2 400  HEM400      0.0000
     16  O2A      -16.0370    4.1860   -0.7380 O.co2 400  HEM400      0.0000
     17  NB        -9.7340   -2.5510   -2.3900 N.2   400  HEM400      0.0000
     18  C1B       -9.3940   -1.6910   -3.3480 C.2   400  HEM400      0.0000
     19  C2B       -8.2430   -2.1190   -4.0170 C.2   400  HEM400      0.0000
     20  C3B       -7.9450   -3.3650   -3.4720 C.2   400  HEM400      0.0000
     21  C4B       -8.8420   -3.5390   -2.4190 C.2   400  HEM400      0.0000
     22  CMB       -7.5830   -1.3600   -5.1540 C.3   400  HEM400      0.0000
     23  CAB       -6.8410   -4.1910   -3.7450 C.3   400  HEM400      0.0000
     24  CBB       -6.2530   -4.3770   -5.0460 C.3   400  HEM400      0.0000
     25  NC       -10.8590   -4.1550   -0.2250 N.ar  400  HEM400      0.0000
     26  C1C       -9.7460   -4.8670   -0.4530 C.ar  400  HEM400      0.0000
     27  C2C       -9.5560   -5.8570    0.5070 C.ar  400  HEM400      0.0000
     28  C3C      -10.6740   -5.7590    1.3480 C.ar  400  HEM400      0.0000
     29  C4C      -11.4670   -4.7490    0.8230 C.ar  400  HEM400      0.0000
     30  CMC       -8.3590   -6.8170    0.5900 C.3   400  HEM400      0.0000
     31  CAC      -10.9410   -6.4300    2.5560 C.3   400  HEM400      0.0000
     32  CBC      -10.6270   -7.8200    2.8380 C.3   400  HEM400      0.0000
     33  ND       -13.1940   -2.4670   -0.1150 N.2   400  HEM400      0.0000
     34  C1D      -13.5410   -3.3250    0.8480 C.2   400  HEM400      0.0000
     35  C2D      -14.8430   -3.1190    1.2790 C.2   400  HEM400      0.0000
     36  C3D      -15.3280   -2.0700    0.5060 C.2   400  HEM400      0.0000
     37  C4D      -14.2410   -1.6420   -0.2740 C.2   400  HEM400      0.0000
     38  CMD      -15.6320   -3.9960    2.2330 C.3   400  HEM400      0.0000
     39  CAD      -16.7200   -1.4190    0.6060 C.3   400  HEM400      0.0000
     40  CBD      -16.7070   -0.1790    1.5200 C.3   400  HEM400      0.0000
     41  CGD      -18.0190    0.6080    1.6210 C.2   400  HEM400      0.0000
     42  O1D      -19.0220    0.1790    1.0800 O.co2 400  HEM400      0.0000
     43  O2D      -18.0300    1.6040    2.3350 O.co2 400  HEM400      0.0000
@<TRIPOS>BOND
     1    22    19    1
     2    24    23    1
     3    11     9    1
     4    19    20    2
     5    19    18    1
     6    23    20    1
     7     3    18    1
     8     3    10    2
     9     9    10   ar
    10     9     8   ar
    11    20    21    1
    12    18    17    2
    13    10     6   ar
    14     8    12    1
    15     8     7   ar
    16    12    13    1
    17    15    14   ar
    18    21    17    1
    19    21     4    2
    20    17     1    1
    21     6     7   ar
    22     6     1    1
    23     7     2    2
    24    14    13    1
    25    14    16   ar
    26     4    26    1
    27     1    25    1
    28     1    33    1
    29     2    37    1
    30    26    25   ar
    31    26    27   ar
    32    37    33    2
    33    37    36    1
    34    25    29   ar
    35    33    34    1
    36    36    39    1
    37    36    35    2
    38    27    30    1
    39    27    28   ar
    40    39    40    1
    41    29     5    1
    42    29    28   ar
    43    34    35    1
    44    34     5    2
    45    42    41   ar
    46    35    38    1
    47    28    31    1
    48    40    41    1
    49    41    43   ar
    50    31    32    1
