@<TRIPOS>MOLECULE
2asd_DCP_A_1.pdb
 28 29 0 0 0
SMALL
GASTEIGER

@<TRIPOS>ATOM
      1  N1         6.2520    6.4940   14.5690 N.am  414  DCP414     -0.1802
      2  C2         5.0080    6.3660   15.0960 C.1   414  DCP414      0.2756
      3  N3         4.7050    5.3070   15.8490 N.2   414  DCP414     -0.3024
      4  C4         5.6090    4.3580   16.1120 C.2   414  DCP414      0.2346
      5  C5         6.8930    4.4610   15.5950 C.2   414  DCP414      0.0687
      6  C6         7.1920    5.5590   14.8160 C.2   414  DCP414      0.0835
      7  O2         4.1340    7.2410   14.8980 O.2   414  DCP414     -0.1925
      8  N4         5.2600    3.2720   16.9050 N.pl3 414  DCP414     -0.0921
      9  C1'        6.5770    7.6650   13.7580 C.3   414  DCP414      0.2090
     10  C2'        7.2960    8.6680   14.6600 C.3   414  DCP414      0.0874
     11  C3'        8.7670    8.4900   14.3300 C.3   414  DCP414      0.1857
     12  C4'        8.7210    8.0920   12.8580 C.3   414  DCP414      0.1773
     13  O4'        7.5070    7.3510   12.7390 O.3   414  DCP414     -0.3339
     14  O3'        9.5210    9.6670   14.5580 O.3   414  DCP414     -0.2203
     15  C5'        9.9060    7.2750   12.3920 C.3   414  DCP414      0.1812
     16  O5'       10.0160    6.0780   13.1420 O.3   414  DCP414     -0.3112
     17  PA        11.3250    5.6850   13.7950 P.3   414  DCP414      0.2189
     18  O1A       11.1460    4.2750   14.2760 O.3   414  DCP414     -0.4371
     19  O2A       12.4240    5.7880   12.7710 O.2   414  DCP414     -0.5170
     20  O3A       11.5550    6.5230   15.0170 O.3   414  DCP414     -0.2700
     21  PB        12.4690    7.7070   15.2050 P.3   414  DCP414      0.2277
     22  O1B       12.8860    8.3690   13.9270 O.2   414  DCP414     -0.5168
     23  O2B       11.7230    8.7090   16.0420 O.3   414  DCP414     -0.4368
     24  O3B       13.6870    7.2210   15.9630 O.3   414  DCP414     -0.2258
     25  PG        15.0210    6.7300   15.3680 P.3   414  DCP414      0.5373
     26  O1G       15.1430    6.6170   13.8650 O.2   414  DCP414     -0.2221
     27  O2G       15.2480    5.3340   15.9030 O.3   414  DCP414     -0.1143
     28  O3G       16.1030    7.6990   15.7750 O.3   414  DCP414     -0.1143
@<TRIPOS>BOND
     1    15    12    1
     2    15    16    1
     3    13    12    1
     4    13     9    1
     5    19    17    2
     6    12    11    1
     7    16    17    1
     8     9     1    1
     9     9    10    1
    10    17    18    1
    11    17    20    1
    12    26    25    2
    13    22    21    2
    14    11    14    1
    15    11    10    1
    16     1     6    1
    17     1     2   am
    18     6     5    2
    19     7     2    2
    20    20    21    1
    21     2     3    2
    22    21    24    1
    23    21    23    1
    24    25    28    1
    25    25    27    1
    26    25    24    1
    27     5     4    1
    28     3     4    2
    29     4     8    1
