@<TRIPOS>MOLECULE
2asf_CIT_A_1.pdb
 13 12 0 0 0
SMALL
GASTEIGER

@<TRIPOS>ATOM
      1  C1        26.9800   48.9280   30.5720 C.2   1001  CIT1001     0.3680
      2  O1        27.9930   48.7840   29.8440 O.co2 1001  CIT1001    -0.2455
      3  O2        26.8430   48.3650   31.6780 O.co2 1001  CIT1001    -0.2455
      4  C2        25.8570   49.8260   30.0880 C.3   1001  CIT1001     0.1560
      5  C3        25.2880   49.3530   28.7350 C.3   1001  CIT1001     0.2402
      6  O7        26.1270   49.7340   27.6300 O.3   1001  CIT1001    -0.2129
      7  C4        25.0030   47.8430   28.7240 C.3   1001  CIT1001     0.1560
      8  C5        24.4270   47.3410   27.4090 C.2   1001  CIT1001     0.3680
      9  O3        23.5120   47.9850   26.8440 O.co2 1001  CIT1001    -0.2455
     10  O4        24.9270   46.3000   26.9260 O.co2 1001  CIT1001    -0.2455
     11  C6        24.0570   50.1580   28.4990 C.2   1001  CIT1001     0.3927
     12  O5        23.0840   50.0000   29.2450 O.co2 1001  CIT1001    -0.2429
     13  O6        24.0870   50.9640   27.5380 O.co2 1001  CIT1001    -0.2429
@<TRIPOS>BOND
     1     9     8   ar
     2    10     8   ar
     3     8     7    1
     4    13    11   ar
     5     6     5    1
     6    11     5    1
     7    11    12   ar
     8     7     5    1
     9     5     4    1
    10     2     1   ar
    11     4     1    1
    12     1     3   ar
