@<TRIPOS>MOLECULE
2asm_ATP_A_1.pdb
 31 33 0 0 0
SMALL
GASTEIGER

@<TRIPOS>ATOM
      1  PG        63.9700   52.1090   -0.2420 P.3   425  ATP425      0.5373
      2  O1G       63.8590   51.9370   -1.6880 O.2   425  ATP425     -0.2221
      3  O2G       65.4020   51.9130    0.2640 O.3   425  ATP425     -0.1143
      4  O3G       63.3440   53.4090    0.2430 O.3   425  ATP425     -0.1143
      5  PB        61.6440   50.8260    0.9770 P.3   425  ATP425      0.2277
      6  O1B       61.1390   49.4740    0.7000 O.3   425  ATP425     -0.4368
      7  O2B       60.7630   51.9960    0.4870 O.2   425  ATP425     -0.5168
      8  O3B       63.1590   50.8750    0.4020 O.3   425  ATP425     -0.2258
      9  PA        60.9510   51.3220    3.7580 P.3   425  ATP425      0.2189
     10  O1A       61.0060   52.7710    4.0210 O.3   425  ATP425     -0.4371
     11  O2A       59.5530   50.7760    3.4840 O.2   425  ATP425     -0.5170
     12  O3A       61.9420   50.9550    2.5580 O.3   425  ATP425     -0.2700
     13  O5'       61.6420   50.5720    5.0100 O.3   425  ATP425     -0.3112
     14  C5'       61.9000   49.1920    5.0330 C.3   425  ATP425      0.1813
     15  C4'       63.1690   48.9830    5.8460 C.3   425  ATP425      0.1821
     16  O4'       62.9340   49.5040    7.1460 O.3   425  ATP425     -0.3135
     17  C3'       63.5320   47.5110    6.0260 C.3   425  ATP425      0.2184
     18  O3'       64.9320   47.3300    5.9200 O.3   425  ATP425     -0.2174
     19  C2'       63.0190   47.1950    7.4110 C.3   425  ATP425      0.2570
     20  O2'       63.6810   46.1180    8.0340 O.3   425  ATP425     -0.2130
     21  C1'       63.2790   48.5240    8.0950 C.3   425  ATP425      0.3186
     22  N9        62.4760   48.7300    9.3030 N.pl3 425  ATP425     -0.1439
     23  C8        61.1090   48.7320    9.4300 C.3   425  ATP425      0.3377
     24  N7        60.8030   48.9850   10.7110 N.2   425  ATP425     -0.2095
     25  C5        61.9460   49.1670   11.4010 C.2   425  ATP425      0.2526
     26  C6        62.2050   49.4490   12.7260 C.2   425  ATP425      0.4393
     27  N6        61.2170   49.5180   13.6280 N.pl3 425  ATP425      0.2180
     28  N1        63.5230   49.5810   13.1130 N.2   425  ATP425      0.0021
     29  C2        64.5590   49.4310   12.2090 C.3   425  ATP425      0.5254
     30  N3        64.2900   49.1440   10.8930 N.2   425  ATP425     -0.0055
     31  C4        63.0080   49.0170   10.5110 C.2   425  ATP425      0.3518
@<TRIPOS>BOND
     1     2     1    2
     2     1     4    1
     3     1     3    1
     4     1     8    1
     5     8     5    1
     6     7     5    2
     7     6     5    1
     8     5    12    1
     9    12     9    1
    10    11     9    2
    11     9    10    1
    12     9    13    1
    13    13    14    1
    14    14    15    1
    15    15    17    1
    16    15    16    1
    17    18    17    1
    18    17    19    1
    19    16    21    1
    20    19    20    1
    21    19    21    1
    22    21    22    1
    23    22    23    1
    24    22    31    1
    25    23    24    1
    26    31    30    2
    27    31    25    1
    28    24    25    2
    29    30    29    1
    30    25    26    1
    31    29    28    1
    32    26    28    2
    33    26    27    1
