@<TRIPOS>MOLECULE
2asn_HEM_X_1.pdb
 43 50 0 0 0
SMALL
GASTEIGER

@<TRIPOS>ATOM
      1 FE         17.3810   13.8000  116.7860 Fe    201  HEM201      0.0000
      2  CHA       17.6070   14.4890  120.0870 C.2   201  HEM201      0.0000
      3  CHB       20.2600   12.0260  116.9410 C.2   201  HEM201      0.0000
      4  CHC       16.8210   12.7080  113.6050 C.2   201  HEM201      0.0000
      5  CHD       14.7580   16.0360  116.4490 C.2   201  HEM201      0.0000
      6  NA        18.6820   13.3580  118.2020 N.2   201  HEM201      0.0000
      7  C1A       18.6220   13.7620  119.5420 C.2   201  HEM201      0.0000
      8  C2A       19.7880   13.2980  120.2500 C.2   201  HEM201      0.0000
      9  C3A       20.5230   12.6340  119.3760 C.2   201  HEM201      0.0000
     10  C4A       19.8470   12.6480  118.0880 C.2   201  HEM201      0.0000
     11  CMA       21.8670   11.9340  119.6070 C.3   201  HEM201      0.0000
     12  CAA       20.1560   13.5210  121.7320 C.3   201  HEM201      0.0000
     13  CBA       19.4350   12.4770  122.5630 C.3   201  HEM201      0.0000
     14  CGA       19.7000   12.5050  124.0800 C.2   201  HEM201      0.0000
     15  O1A       20.7610   12.0370  124.5190 O.co2 201  HEM201      0.0000
     16  O2A       18.8830   12.9780  124.8780 O.co2 201  HEM201      0.0000
     17  NB        18.2950   12.5630  115.5510 N.ar  201  HEM201      0.0000
     18  C1B       19.5060   11.9320  115.7810 C.ar  201  HEM201      0.0000
     19  C2B       19.8280   11.1350  114.6220 C.ar  201  HEM201      0.0000
     20  C3B       18.8980   11.3130  113.7260 C.ar  201  HEM201      0.0000
     21  C4B       17.8700   12.1880  114.2890 C.ar  201  HEM201      0.0000
     22  CMB       21.1170   10.3690  114.4680 C.3   201  HEM201      0.0000
     23  CAB       18.8160   10.6870  112.3620 C.2   201  HEM201      0.0000
     24  CBB       19.1120    9.4300  112.1710 C.2   201  HEM201      0.0000
     25  NC        16.0410   14.3480  115.2700 N.2   201  HEM201      0.0000
     26  C1C       15.9830   13.7160  114.0340 C.2   201  HEM201      0.0000
     27  C2C       14.8580   14.2710  113.3140 C.2   201  HEM201      0.0000
     28  C3C       14.3140   15.2190  114.1020 C.2   201  HEM201      0.0000
     29  C4C       15.0360   15.2490  115.3600 C.2   201  HEM201      0.0000
     30  CMC       14.4260   13.8180  111.8990 C.3   201  HEM201      0.0000
     31  CAC       13.0680   16.0770  113.8800 C.2   201  HEM201      0.0000
     32  CBC       12.2930   15.9560  112.8260 C.2   201  HEM201      0.0000
     33  ND        16.3440   15.0700  118.0550 N.ar  201  HEM201      0.0000
     34  C1D       15.2510   15.8430  117.7310 C.ar  201  HEM201      0.0000
     35  C2D       14.7590   16.4440  118.9510 C.ar  201  HEM201      0.0000
     36  C3D       15.6400   15.9140  120.0720 C.ar  201  HEM201      0.0000
     37  C4D       16.6250   15.1250  119.4130 C.ar  201  HEM201      0.0000
     38  CMD       13.5730   17.3690  119.0930 C.3   201  HEM201      0.0000
     39  CAD       15.6090   16.2760  121.5650 C.3   201  HEM201      0.0000
     40  CBD       14.8360   15.1710  122.2980 C.3   201  HEM201      0.0000
     41  CGD       15.0390   15.4280  123.7830 C.2   201  HEM201      0.0000
     42  O1D       15.7300   16.3560  124.2600 O.co2 201  HEM201      0.0000
     43  O2D       14.4600   14.6320  124.4880 O.co2 201  HEM201      0.0000
@<TRIPOS>BOND
     1    30    27    1
     2    24    23    2
     3    23    20    1
     4    32    31    2
     5    27    26    1
     6    27    28    2
     7     4    26    2
     8     4    21    1
     9    20    21   ar
    10    20    19   ar
    11    31    28    1
    12    26    25    1
    13    28    29    1
    14    21    17   ar
    15    22    19    1
    16    19    18   ar
    17    25    29    2
    18    25     1    1
    19    29     5    1
    20    17    18   ar
    21    17     1    1
    22    18     3    1
    23     5    34    2
    24     1    33    1
    25     1     6    1
    26     3    10    2
    27    34    33   ar
    28    34    35   ar
    29    33    37   ar
    30    10     6    1
    31    10     9    1
    32     6     7    2
    33    35    38    1
    34    35    36   ar
    35     9    11    1
    36     9     8    2
    37    37    36   ar
    38    37     2    2
    39     7     2    1
    40     7     8    1
    41    36    39    1
    42     8    12    1
    43    39    40    1
    44    12    13    1
    45    40    41    1
    46    13    14    1
    47    41    42   ar
    48    41    43   ar
    49    14    15   ar
    50    14    16   ar
