@<TRIPOS>MOLECULE
2aso_ATP_A_1.pdb
 31 33 0 0 0
SMALL
GASTEIGER

@<TRIPOS>ATOM
      1  PG         6.4160    2.5260   24.8400 P.3   425  ATP425      0.5373
      2  O1G        5.8960    2.6870   23.4720 O.2   425  ATP425     -0.2221
      3  O2G        5.3140    2.6640   25.8750 O.3   425  ATP425     -0.1143
      4  O3G        7.2350    1.2440   25.0090 O.3   425  ATP425     -0.1143
      5  PB         9.0410    3.8080   24.9670 P.3   425  ATP425      0.2277
      6  O1B        9.3220    5.1640   24.5570 O.3   425  ATP425     -0.4368
      7  O2B        9.5440    2.6820   24.1070 O.2   425  ATP425     -0.5168
      8  O3B        7.4290    3.7710   25.1070 O.3   425  ATP425     -0.2258
      9  PA        10.8840    3.3360   27.1430 P.3   425  ATP425      0.2189
     10  O1A       11.0140    1.8830   27.3940 O.3   425  ATP425     -0.4371
     11  O2A       11.9570    3.9630   26.2490 O.2   425  ATP425     -0.5170
     12  O3A        9.4150    3.6140   26.5120 O.3   425  ATP425     -0.2700
     13  O5'       10.7620    4.1310   28.5190 O.3   425  ATP425     -0.3112
     14  C5'       10.6250    5.5230   28.6350 C.3   425  ATP425      0.1813
     15  C4'        9.8350    5.7590   29.9160 C.3   425  ATP425      0.1821
     16  O4'       10.5560    5.1920   31.0100 O.3   425  ATP425     -0.3135
     17  C3'        9.5790    7.2050   30.2870 C.3   425  ATP425      0.2184
     18  O3'        8.2440    7.2950   30.8350 O.3   425  ATP425     -0.2174
     19  C2'       10.6520    7.4290   31.3220 C.3   425  ATP425      0.2570
     20  O2'       10.4040    8.4560   32.2010 O.3   425  ATP425     -0.2130
     21  C1'       10.6610    6.1160   32.0500 C.3   425  ATP425      0.3186
     22  N9        11.8820    5.8880   32.8030 N.pl3 425  ATP425     -0.1439
     23  C8        13.1360    5.9210   32.2690 C.3   425  ATP425      0.3377
     24  N7        14.0260    5.7020   33.2600 N.2   425  ATP425     -0.2095
     25  C5        13.3620    5.5010   34.4050 C.2   425  ATP425      0.2526
     26  C6        13.8290    5.2240   35.6900 C.2   425  ATP425      0.4393
     27  N6        15.1440    5.2780   35.9880 N.pl3 425  ATP425      0.2180
     28  N1        12.9140    5.0680   36.6800 N.2   425  ATP425      0.0021
     29  C2        11.5680    5.1970   36.4000 C.3   425  ATP425      0.5254
     30  N3        11.1020    5.4630   35.1180 N.2   425  ATP425     -0.0055
     31  C4        11.9970    5.6290   34.1280 C.2   425  ATP425      0.3518
@<TRIPOS>BOND
     1     2     1    2
     2     7     5    2
     3     6     5    1
     4     1     4    1
     5     1     8    1
     6     1     3    1
     7     5     8    1
     8     5    12    1
     9    11     9    2
    10    12     9    1
    11     9    10    1
    12     9    13    1
    13    13    14    1
    14    14    15    1
    15    15    17    1
    16    15    16    1
    17    17    18    1
    18    17    19    1
    19    16    21    1
    20    19    21    1
    21    19    20    1
    22    21    22    1
    23    23    22    1
    24    23    24    1
    25    22    31    1
    26    24    25    2
    27    31    25    1
    28    31    30    2
    29    25    26    1
    30    30    29    1
    31    26    27    1
    32    26    28    2
    33    29    28    1
