@<TRIPOS>MOLECULE
2asp_ATP_A_1.pdb
 31 33 0 0 0
SMALL
GASTEIGER

@<TRIPOS>ATOM
      1  PG       148.9680   -2.5650   -0.4380 P.3   425  ATP425      0.5373
      2  O1G      148.7480   -2.7440   -1.8990 O.2   425  ATP425     -0.2221
      3  O2G      150.3720   -2.8230    0.0620 O.3   425  ATP425     -0.1143
      4  O3G      148.3890   -1.2620    0.0730 O.3   425  ATP425     -0.1143
      5  PB       146.6310   -3.8020    0.8480 P.3   425  ATP425      0.2277
      6  O1B      146.1210   -5.2020    0.6050 O.3   425  ATP425     -0.4368
      7  O2B      145.8000   -2.6140    0.4120 O.2   425  ATP425     -0.5168
      8  O3B      148.1310   -3.7550    0.2640 O.3   425  ATP425     -0.2258
      9  PA       145.9510   -3.3060    3.6250 P.3   425  ATP425      0.2189
     10  O1A      146.1160   -1.8430    3.9070 O.3   425  ATP425     -0.4371
     11  O2A      144.5610   -3.8770    3.4000 O.2   425  ATP425     -0.5170
     12  O3A      146.9460   -3.6920    2.4270 O.3   425  ATP425     -0.2700
     13  O5'      146.6620   -4.0480    4.8660 O.3   425  ATP425     -0.3112
     14  C5'      146.8520   -5.4560    4.9470 C.3   425  ATP425      0.1813
     15  C4'      148.1490   -5.7020    5.6920 C.3   425  ATP425      0.1821
     16  O4'      147.9490   -5.1690    6.9960 O.3   425  ATP425     -0.3135
     17  C3'      148.5080   -7.1690    5.9020 C.3   425  ATP425      0.2184
     18  O3'      149.9330   -7.3740    5.7870 O.3   425  ATP425     -0.2174
     19  C2'      148.0000   -7.4710    7.2890 C.3   425  ATP425      0.2570
     20  O2'      148.6640   -8.5660    7.9290 O.3   425  ATP425     -0.2130
     21  C1'      148.2780   -6.1380    7.9670 C.3   425  ATP425      0.3186
     22  N9       147.4550   -5.9150    9.1580 N.pl3 425  ATP425     -0.1439
     23  C8       146.1050   -5.9100    9.2620 C.3   425  ATP425      0.3377
     24  N7       145.7200   -5.6470   10.5200 N.2   425  ATP425     -0.2095
     25  C5       146.8520   -5.4590   11.2290 C.2   425  ATP425      0.2526
     26  C6       147.1520   -5.1740   12.6300 C.2   425  ATP425      0.4393
     27  N6       146.1470   -5.0070   13.5270 N.pl3 425  ATP425      0.2180
     28  N1       148.4470   -5.0560   12.9710 N.2   425  ATP425      0.0021
     29  C2       149.4410   -5.2190   12.0750 C.3   425  ATP425      0.5254
     30  N3       149.2440   -5.5040   10.7780 N.2   425  ATP425     -0.0055
     31  C4       147.9790   -5.6350   10.3300 C.2   425  ATP425      0.3518
@<TRIPOS>BOND
     1     2     1    2
     2     1     3    1
     3     1     4    1
     4     1     8    1
     5     8     5    1
     6     7     5    2
     7     6     5    1
     8     5    12    1
     9    12     9    1
    10    11     9    2
    11     9    10    1
    12     9    13    1
    13    13    14    1
    14    14    15    1
    15    15    17    1
    16    15    16    1
    17    18    17    1
    18    17    19    1
    19    16    21    1
    20    19    20    1
    21    19    21    1
    22    21    22    1
    23    22    23    1
    24    22    31    1
    25    23    24    1
    26    31    30    2
    27    31    25    1
    28    24    25    2
    29    30    29    1
    30    25    26    1
    31    29    28    1
    32    26    28    2
    33    26    27    1
