@<TRIPOS>MOLECULE
2asu_III_A_1.pdb
 26 25 0 0 0
SMALL
GASTEIGER

@<TRIPOS>ATOM
      1  N         61.7140   49.4090    5.4320 N.3   468  CYS468     -0.1221
      2  CA        62.1450   50.8680    5.5070 C.3   468  CYS468      0.1808
      3  C         61.1570   51.7600    6.2430 C.2   468  CYS468      0.2602
      4  O         59.9520   51.5170    6.2730 O.2   468  CYS468     -0.2717
      5  CB        62.3710   51.4280    4.1020 C.3   468  CYS468      0.0970
      6  SG        60.8800   51.7320    3.1200 S.3   468  CYS468     -0.0800
      7  N         61.6690   52.8270    6.8320 N.am  469  GLY469     -0.1942
      8  CA        60.8250   53.9360    7.2450 C.3   469  GLY469      0.2014
      9  C         60.0620   53.6540    8.5200 C.2   469  GLY469      0.2639
     10  O         58.9850   54.1720    8.7290 O.2   469  GLY469     -0.2714
     11  N         60.6230   52.8010    9.3700 N.am  470  LYS470     -0.1963
     12  CA        60.0690   52.5870   10.6960 C.3   470  LYS470      0.1728
     13  C         61.0970   53.0670   11.7340 C.2   470  LYS470      0.2616
     14  O         62.3290   52.8440   11.6100 O.2   470  LYS470     -0.2715
     15  CB        59.6940   51.1060   10.8840 C.3   470  LYS470      0.0334
     16  N         60.6040   53.7520   12.7470 N.am  471  ARG471     -0.1977
     17  CA        61.4450   54.2110   13.8500 C.3   471  ARG471      0.1597
     18  C         60.9120   53.6470   15.1560 C.2   471  ARG471      0.2287
     19  O         59.8030   53.1250   15.1560 O.2   471  ARG471     -0.2864
     20  CB        61.4490   55.7260   13.9270 C.3   471  ARG471      0.0334
     21  CG        62.4250   56.2530   14.9280 C.3   471  ARG471      0.0492
     22  CD        62.9700   57.5950   14.5740 C.3   471  ARG471      0.2205
     23  NE        61.9440   58.6280   14.6430 N.pl3 471  ARG471     -0.0865
     24  CZ        62.1670   59.9150   14.4240 C.cat 471  ARG471      0.5346
     25  NH1       63.3890   60.3260   14.1140 N.pl3 471  ARG471      0.1354
     26  NH2       61.1680   60.7930   14.5350 N.pl3 471  ARG471      0.1354
@<TRIPOS>BOND
     1     6     5    1
     2     5     2    1
     3     1     2    1
     4     2     3    1
     5     3     4    2
     6     3     7   am
     7     7     8    1
     8     8     9    1
     9     9    10    2
    10     9    11   am
    11    11    12    1
    12    12    15    1
    13    12    13    1
    14    14    13    2
    15    13    16   am
    16    16    17    1
    17    17    20    1
    18    17    18    1
    19    20    21    1
    20    25    24    1
    21    24    26    1
    22    24    23    2
    23    22    23    1
    24    22    21    1
    25    18    19    2
