@<TRIPOS>MOLECULE
2at0_HEM_X_1.pdb
 43 50 0 0 0
SMALL
GASTEIGER

@<TRIPOS>ATOM
      1 FE         10.7270   20.1890   36.3180 Fe    185  HEM185      0.0000
      2  CHA       11.2690   23.2650   34.9410 C.2   185  HEM185      0.0000
      3  CHB        7.3760   20.6210   35.9780 C.2   185  HEM185      0.0000
      4  CHC       10.1770   17.4470   38.2570 C.2   185  HEM185      0.0000
      5  CHD       14.0780   19.6180   36.3910 C.2   185  HEM185      0.0000
      6  NA         9.5640   21.6280   35.5990 N.ar  185  HEM185      0.0000
      7  C1A        9.9770   22.8640   35.1420 C.ar  185  HEM185      0.0000
      8  C2A        8.8230   23.6740   34.8230 C.ar  185  HEM185      0.0000
      9  C3A        7.7430   22.9430   35.1020 C.ar  185  HEM185      0.0000
     10  C4A        8.1890   21.6480   35.5850 C.ar  185  HEM185      0.0000
     11  CMA        6.2760   23.3660   34.9540 C.3   185  HEM185      0.0000
     12  CAA        8.8480   25.1050   34.2630 C.3   185  HEM185      0.0000
     13  CBA        8.7150   26.1040   35.3930 C.3   185  HEM185      0.0000
     14  CGA        8.6390   27.5270   34.9120 C.2   185  HEM185      0.0000
     15  O1A        9.3880   27.9080   33.9760 O.co2 185  HEM185      0.0000
     16  O2A        7.8090   28.3000   35.4330 O.co2 185  HEM185      0.0000
     17  NB         9.1070   19.2310   36.9940 N.2   185  HEM185      0.0000
     18  C1B        7.7960   19.5270   36.6830 C.2   185  HEM185      0.0000
     19  C2B        6.9240   18.5380   37.2750 C.2   185  HEM185      0.0000
     20  C3B        7.6950   17.6770   37.9320 C.2   185  HEM185      0.0000
     21  C4B        9.0720   18.0820   37.7530 C.2   185  HEM185      0.0000
     22  CMB        5.3900   18.5210   37.1120 C.3   185  HEM185      0.0000
     23  CAB        7.2520   16.4170   38.6920 C.2   185  HEM185      0.0000
     24  CBB        7.6310   16.2050   39.9490 C.2   185  HEM185      0.0000
     25  NC        11.9380   18.8080   37.1890 N.ar  185  HEM185      0.0000
     26  C1C       11.4850   17.7140   37.9040 C.ar  185  HEM185      0.0000
     27  C2C       12.6210   16.8950   38.2160 C.ar  185  HEM185      0.0000
     28  C3C       13.7090   17.4950   37.7080 C.ar  185  HEM185      0.0000
     29  C4C       13.2890   18.7140   37.0330 C.ar  185  HEM185      0.0000
     30  CMC       12.5300   15.5670   38.9850 C.3   185  HEM185      0.0000
     31  CAC       15.1390   16.9430   37.7240 C.2   185  HEM185      0.0000
     32  CBC       16.1820   17.7200   38.0130 C.2   185  HEM185      0.0000
     33  ND        12.3430   21.2300   35.7540 N.2   185  HEM185      0.0000
     34  C1D       13.6620   20.8070   35.8650 C.2   185  HEM185      0.0000
     35  C2D       14.5570   21.8080   35.3630 C.2   185  HEM185      0.0000
     36  C3D       13.6980   22.9260   34.9200 C.2   185  HEM185      0.0000
     37  C4D       12.3630   22.5020   35.1970 C.2   185  HEM185      0.0000
     38  CMD       16.0750   21.7780   35.2960 C.3   185  HEM185      0.0000
     39  CAD       14.1380   24.2450   34.3060 C.3   185  HEM185      0.0000
     40  CBD       14.0900   24.1690   32.7870 C.3   185  HEM185      0.0000
     41  CGD       14.4940   25.5350   32.2990 C.2   185  HEM185      0.0000
     42  O1D       13.6220   26.2670   31.7800 O.co2 185  HEM185      0.0000
     43  O2D       15.6870   25.9210   32.4650 O.co2 185  HEM185      0.0000
@<TRIPOS>BOND
     1    42    41   ar
     2    41    43   ar
     3    41    40    1
     4    40    39    1
     5    15    14   ar
     6    12     8    1
     7    12    13    1
     8    39    36    1
     9     8     9   ar
    10     8     7   ar
    11    14    13    1
    12    14    16   ar
    13    36    37    1
    14    36    35    2
    15     2     7    2
    16     2    37    1
    17    11     9    1
    18     9    10   ar
    19     7     6   ar
    20    37    33    2
    21    38    35    1
    22    35    34    1
    23    10     6   ar
    24    10     3    2
    25     6     1    1
    26    33    34    1
    27    33     1    1
    28    34     5    2
    29     3    18    1
    30     1    17    1
    31     1    25    1
    32     5    29    1
    33    18    17    2
    34    18    19    1
    35    17    21    1
    36    29    25   ar
    37    29    28   ar
    38    22    19    1
    39    25    26   ar
    40    19    20    2
    41    28    31    1
    42    28    27   ar
    43    31    32    2
    44    21    20    1
    45    21     4    2
    46    26    27   ar
    47    26     4    1
    48    20    23    1
    49    27    30    1
    50    23    24    2
