@<TRIPOS>MOLECULE
2at3_HEM_X_1.pdb
 43 50 0 0 0
SMALL
GASTEIGER

@<TRIPOS>ATOM
      1 FE         11.1180   20.0850   36.4410 Fe    185  HEM185      0.0000
      2  CHA       11.5380   23.0920   34.8730 C.2   185  HEM185      0.0000
      3  CHB        7.7910   20.3330   35.9700 C.2   185  HEM185      0.0000
      4  CHC       10.6660   17.3440   38.3760 C.2   185  HEM185      0.0000
      5  CHD       14.5060   19.6920   36.5630 C.2   185  HEM185      0.0000
      6  NA         9.9050   21.3900   35.5840 N.ar  185  HEM185      0.0000
      7  C1A       10.2530   22.6200   35.0410 C.ar  185  HEM185      0.0000
      8  C2A        9.0920   23.3590   34.6380 C.ar  185  HEM185      0.0000
      9  C3A        8.0610   22.5940   34.9200 C.ar  185  HEM185      0.0000
     10  C4A        8.5510   21.3740   35.5240 C.ar  185  HEM185      0.0000
     11  CMA        6.5800   22.9270   34.6920 C.3   185  HEM185      0.0000
     12  CAA        9.0500   24.7740   34.0370 C.3   185  HEM185      0.0000
     13  CBA        8.6470   25.7570   35.1530 C.3   185  HEM185      0.0000
     14  CGA        8.7540   27.2090   34.7650 C.2   185  HEM185      0.0000
     15  O1A        9.5560   27.5680   33.8680 O.co2 185  HEM185      0.0000
     16  O2A        8.0180   28.0280   35.3310 O.co2 185  HEM185      0.0000
     17  NB         9.5280   19.0470   37.0590 N.2   185  HEM185      0.0000
     18  C1B        8.2160   19.2610   36.7340 C.2   185  HEM185      0.0000
     19  C2B        7.3690   18.2690   37.3520 C.2   185  HEM185      0.0000
     20  C3B        8.1940   17.4480   38.0450 C.2   185  HEM185      0.0000
     21  C4B        9.5430   17.9210   37.8520 C.2   185  HEM185      0.0000
     22  CMB        5.8370   18.2360   37.1810 C.3   185  HEM185      0.0000
     23  CAB        7.9090   16.2030   38.8860 C.2   185  HEM185      0.0000
     24  CBB        6.8070   16.0860   39.5920 C.2   185  HEM185      0.0000
     25  NC        12.3590   18.7710   37.2870 N.ar  185  HEM185      0.0000
     26  C1C       11.9630   17.6840   38.0560 C.ar  185  HEM185      0.0000
     27  C2C       13.1250   16.9570   38.4540 C.ar  185  HEM185      0.0000
     28  C3C       14.1950   17.5830   37.9520 C.ar  185  HEM185      0.0000
     29  C4C       13.7370   18.7540   37.2170 C.ar  185  HEM185      0.0000
     30  CMC       13.0870   15.7020   39.3240 C.3   185  HEM185      0.0000
     31  CAC       15.6430   17.1220   38.1610 C.2   185  HEM185      0.0000
     32  CBC       16.6920   17.6730   37.5720 C.2   185  HEM185      0.0000
     33  ND        12.7010   21.1780   35.8400 N.2   185  HEM185      0.0000
     34  C1D       14.0330   20.8500   35.9980 C.2   185  HEM185      0.0000
     35  C2D       14.9020   21.8380   35.4320 C.2   185  HEM185      0.0000
     36  C3D       13.9870   22.8730   34.9190 C.2   185  HEM185      0.0000
     37  C4D       12.6640   22.4050   35.2110 C.2   185  HEM185      0.0000
     38  CMD       16.4340   21.8830   35.3800 C.3   185  HEM185      0.0000
     39  CAD       14.3710   24.1740   34.2300 C.3   185  HEM185      0.0000
     40  CBD       14.2900   23.9870   32.7270 C.3   185  HEM185      0.0000
     41  CGD       14.7610   25.2370   32.0460 C.2   185  HEM185      0.0000
     42  O1D       15.8280   25.1930   31.3740 O.co2 185  HEM185      0.0000
     43  O2D       14.0800   26.2750   32.1860 O.co2 185  HEM185      0.0000
@<TRIPOS>BOND
     1    42    41   ar
     2    41    43   ar
     3    41    40    1
     4    40    39    1
     5    15    14   ar
     6    12     8    1
     7    12    13    1
     8    39    36    1
     9     8     9   ar
    10     8     7   ar
    11    11     9    1
    12    14    13    1
    13    14    16   ar
    14     2     7    2
    15     2    37    1
    16    36    37    1
    17    36    35    2
    18     9    10   ar
    19     7     6   ar
    20    37    33    2
    21    38    35    1
    22    35    34    1
    23    10     6   ar
    24    10     3    2
    25     6     1    1
    26    33    34    1
    27    33     1    1
    28     3    18    1
    29    34     5    2
    30     1    17    1
    31     1    25    1
    32     5    29    1
    33    18    17    2
    34    18    19    1
    35    17    21    1
    36    22    19    1
    37    29    25   ar
    38    29    28   ar
    39    25    26   ar
    40    19    20    2
    41    32    31    2
    42    21    20    1
    43    21     4    2
    44    28    31    1
    45    28    27   ar
    46    20    23    1
    47    26     4    1
    48    26    27   ar
    49    27    30    1
    50    23    24    2
