@<TRIPOS>MOLECULE
2at5_FDE_X_1.pdb
 39 46 0 0 0
SMALL
GASTEIGER

@<TRIPOS>ATOM
      1  CHA       11.1930   23.0110   35.1870 C.2   185  FDE185      0.0000
      2  C1A        9.8800   22.6890   35.3510 C.ar  185  FDE185      0.0000
      3  C2A        8.7810   23.5610   35.0020 C.ar  185  FDE185      0.0000
      4  CAA        8.8900   24.9670   34.4270 C.3   185  FDE185      0.0000
      5  CBA        8.5860   26.0040   35.4910 C.3   185  FDE185      0.0000
      6  CGA        8.6620   27.4220   35.0140 C.2   185  FDE185      0.0000
      7  O1A        9.4940   27.7540   34.1250 O.co2 185  FDE185      0.0000
      8  O2A        7.8870   28.2550   35.5080 O.co2 185  FDE185      0.0000
      9  C3A        7.6620   22.8790   35.2580 C.ar  185  FDE185      0.0000
     10  CMA        6.2290   23.3570   35.0530 C.3   185  FDE185      0.0000
     11  C4A        8.0400   21.5720   35.7540 C.ar  185  FDE185      0.0000
     12  NA         9.4180   21.4760   35.8300 N.ar  185  FDE185      0.0000
     13  CHB        7.2080   20.5760   36.1730 C.2   185  FDE185      0.0000
     14  C1B        7.5810   19.4650   36.9020 C.2   185  FDE185      0.0000
     15  C2B        6.6890   18.5120   37.4720 C.2   185  FDE185      0.0000
     16  C3B        7.4010   17.6490   38.1920 C.2   185  FDE185      0.0000
     17  CME        6.8180   16.4470   38.9670 C.3   185  FDE185      0.0000
     18  C4B        8.7910   18.0100   38.0700 C.2   185  FDE185      0.0000
     19  NB         8.8590   19.1320   37.2640 N.2   185  FDE185      0.0000
     20  CHC        9.8900   17.3610   38.6200 C.2   185  FDE185      0.0000
     21  C1C       11.1920   17.6290   38.2850 C.ar  185  FDE185      0.0000
     22  C2C       12.3460   16.8530   38.7390 C.ar  185  FDE185      0.0000
     23  C3C       13.4190   17.3800   38.2140 C.ar  185  FDE185      0.0000
     24  CMF       14.8220   16.8250   38.4660 C.3   185  FDE185      0.0000
     25  C4C       13.0180   18.5040   37.4120 C.ar  185  FDE185      0.0000
     26  NC        11.6380   18.6510   37.5040 N.ar  185  FDE185      0.0000
     27  CHD       13.8390   19.3130   36.7420 C.2   185  FDE185      0.0000
     28  C1D       13.4820   20.4770   36.1420 C.2   185  FDE185      0.0000
     29  C2D       14.4100   21.4220   35.6100 C.2   185  FDE185      0.0000
     30  CMD       15.9220   21.2770   35.5220 C.3   185  FDE185      0.0000
     31  C3D       13.6290   22.5600   35.1140 C.2   185  FDE185      0.0000
     32  CAD       14.1270   23.8260   34.4830 C.3   185  FDE185      0.0000
     33  CBD       13.9400   23.7290   32.9790 C.3   185  FDE185      0.0000
     34  CGD       14.3420   25.0390   32.3690 C.2   185  FDE185      0.0000
     35  O1D       13.7970   25.3320   31.2800 O.co2 185  FDE185      0.0000
     36  O2D       15.2000   25.7640   32.9620 O.co2 185  FDE185      0.0000
     37  C4D       12.2650   22.2230   35.4420 C.2   185  FDE185      0.0000
     38  ND        12.1830   20.9680   36.0170 N.2   185  FDE185      0.0000
     39 FE         10.4900   19.9960   36.5970 Fe    185  FDE185      0.0000
@<TRIPOS>BOND
     1    35    34   ar
     2    34    36   ar
     3    34    33    1
     4    33    32    1
     5     7     6   ar
     6     4     3    1
     7     4     5    1
     8    32    31    1
     9     3     9   ar
    10     3     2   ar
    11     6     5    1
    12     6     8   ar
    13    10     9    1
    14    31    37    1
    15    31    29    2
    16     1     2    2
    17     1    37    1
    18     9    11   ar
    19     2    12   ar
    20    37    38    2
    21    30    29    1
    22    29    28    1
    23    11    12   ar
    24    11    13    2
    25    12    39    1
    26    38    28    1
    27    38    39    1
    28    28    27    2
    29    13    14    1
    30    39    19    1
    31    39    26    1
    32    27    25    1
    33    14    19    2
    34    14    15    1
    35    19    18    1
    36    25    26   ar
    37    25    23   ar
    38    15    16    2
    39    26    21   ar
    40    18    16    1
    41    18    20    2
    42    16    17    1
    43    23    24    1
    44    23    22   ar
    45    21    20    1
    46    21    22   ar
