@<TRIPOS>MOLECULE
2at6_FDE_X_1.pdb
 39 46 0 0 0
SMALL
GASTEIGER

@<TRIPOS>ATOM
      1  CHA       11.2340   23.1060   35.0640 C.2   185  FDE185      0.0000
      2  C1A        9.9310   22.7810   35.2650 C.ar  185  FDE185      0.0000
      3  C2A        8.8050   23.6290   34.9280 C.ar  185  FDE185      0.0000
      4  CAA        8.8690   25.0510   34.3400 C.3   185  FDE185      0.0000
      5  CBA        8.5370   26.0770   35.4230 C.3   185  FDE185      0.0000
      6  CGA        8.6390   27.5040   34.9690 C.2   185  FDE185      0.0000
      7  O1A        9.4100   27.8540   34.0300 O.co2 185  FDE185      0.0000
      8  O2A        7.9040   28.3360   35.4740 O.co2 185  FDE185      0.0000
      9  C3A        7.7030   22.9360   35.2210 C.ar  185  FDE185      0.0000
     10  CMA        6.2570   23.4200   35.0300 C.3   185  FDE185      0.0000
     11  C4A        8.1070   21.6600   35.7380 C.ar  185  FDE185      0.0000
     12  NA         9.4780   21.5760   35.7320 N.ar  185  FDE185      0.0000
     13  CHB        7.2800   20.6580   36.1550 C.2   185  FDE185      0.0000
     14  C1B        7.7010   19.5470   36.8860 C.2   185  FDE185      0.0000
     15  C2B        6.8160   18.5330   37.4300 C.2   185  FDE185      0.0000
     16  C3B        7.5370   17.6600   38.1170 C.2   185  FDE185      0.0000
     17  CME        6.9650   16.4220   38.8690 C.3   185  FDE185      0.0000
     18  C4B        8.9130   18.0550   37.9700 C.2   185  FDE185      0.0000
     19  NB         9.0100   19.2050   37.1900 N.2   185  FDE185      0.0000
     20  CHC        9.9950   17.3880   38.4980 C.2   185  FDE185      0.0000
     21  C1C       11.3030   17.6940   38.2060 C.ar  185  FDE185      0.0000
     22  C2C       12.4640   16.9690   38.6820 C.ar  185  FDE185      0.0000
     23  C3C       13.5560   17.5140   38.1770 C.ar  185  FDE185      0.0000
     24  CMF       14.9700   16.9960   38.4670 C.3   185  FDE185      0.0000
     25  C4C       13.1240   18.6440   37.3890 C.ar  185  FDE185      0.0000
     26  NC        11.7340   18.7360   37.4580 N.ar  185  FDE185      0.0000
     27  CHD       13.9070   19.5010   36.7540 C.2   185  FDE185      0.0000
     28  C1D       13.5250   20.6370   36.1280 C.2   185  FDE185      0.0000
     29  C2D       14.4700   21.5730   35.5890 C.2   185  FDE185      0.0000
     30  CMD       16.0020   21.4330   35.5450 C.3   185  FDE185      0.0000
     31  C3D       13.6900   22.7040   35.0450 C.2   185  FDE185      0.0000
     32  CAD       14.1780   23.9580   34.3470 C.3   185  FDE185      0.0000
     33  CBD       13.8030   23.7860   32.8750 C.3   185  FDE185      0.0000
     34  CGD       14.2410   24.9200   31.9960 C.2   185  FDE185      0.0000
     35  O1D       15.1730   24.6800   31.1760 O.co2 185  FDE185      0.0000
     36  O2D       13.6800   26.0440   32.0860 O.co2 185  FDE185      0.0000
     37  C4D       12.3170   22.3220   35.3590 C.2   185  FDE185      0.0000
     38  ND        12.2210   21.0870   36.0010 N.2   185  FDE185      0.0000
     39 FE         10.5620   20.1470   36.6320 Fe    185  FDE185      0.0000
@<TRIPOS>BOND
     1    35    34   ar
     2    34    36   ar
     3    34    33    1
     4    33    32    1
     5     7     6   ar
     6     4     3    1
     7     4     5    1
     8    32    31    1
     9     3     9   ar
    10     3     2   ar
    11     6     5    1
    12     6     8   ar
    13    10     9    1
    14    31    37    1
    15    31    29    2
    16     1     2    2
    17     1    37    1
    18     9    11   ar
    19     2    12   ar
    20    37    38    2
    21    30    29    1
    22    29    28    1
    23    12    11   ar
    24    12    39    1
    25    11    13    2
    26    38    28    1
    27    38    39    1
    28    28    27    2
    29    13    14    1
    30    39    19    1
    31    39    26    1
    32    27    25    1
    33    14    19    2
    34    14    15    1
    35    19    18    1
    36    25    26   ar
    37    25    23   ar
    38    15    16    2
    39    26    21   ar
    40    18    16    1
    41    18    20    2
    42    16    17    1
    43    23    24    1
    44    23    22   ar
    45    21    20    1
    46    21    22   ar
