@<TRIPOS>MOLECULE
2at8_FDD_X_1.pdb
 41 48 0 0 0
SMALL
GASTEIGER

@<TRIPOS>ATOM
      1  O2D       15.0540   25.8570   32.8000 O.co2 185  FDD185      0.0000
      2  CGD       14.1450   25.1500   32.2470 C.2   185  FDD185      0.0000
      3  O1D       13.5360   25.4660   31.1970 O.co2 185  FDD185      0.0000
      4  CBD       13.7520   23.8500   32.8870 C.3   185  FDD185      0.0000
      5  CAD       13.9750   23.9570   34.3920 C.3   185  FDD185      0.0000
      6  C3D       13.4330   22.6870   35.0500 C.2   185  FDD185      0.0000
      7  C2D       14.2350   21.5580   35.4650 C.2   185  FDD185      0.0000
      8  CMD       15.7510   21.4770   35.3610 C.3   185  FDD185      0.0000
      9  C4D       12.0790   22.2730   35.3540 C.2   185  FDD185      0.0000
     10  CHA       11.0050   23.1010   35.0950 C.2   185  FDD185      0.0000
     11  ND        12.0170   21.0180   35.9350 N.2   185  FDD185      0.0000
     12  C1D       13.3410   20.5670   36.0050 C.2   185  FDD185      0.0000
     13  CHD       13.7220   19.3870   36.5700 C.2   185  FDD185      0.0000
     14  C4C       12.8820   18.5650   37.2540 C.ar  185  FDD185      0.0000
     15  C3C       13.3070   17.4180   38.0140 C.ar  185  FDD185      0.0000
     16  CMF       14.7650   16.9340   38.0970 C.3   185  FDD185      0.0000
     17  C2C       12.2400   16.9030   38.5960 C.ar  185  FDD185      0.0000
     18  CMC       12.1860   15.6490   39.5110 C.3   185  FDD185      0.0000
     19 FE         10.3780   20.0780   36.4710 Fe    185  FDD185      0.0000
     20  NA         9.2840   21.4800   35.7450 N.ar  185  FDD185      0.0000
     21  C1A        9.7100   22.7210   35.2640 C.ar  185  FDD185      0.0000
     22  NC        11.5280   18.7240   37.3570 N.ar  185  FDD185      0.0000
     23  C1C       11.1050   17.7050   38.1740 C.ar  185  FDD185      0.0000
     24  CHC        9.7860   17.4360   38.5020 C.2   185  FDD185      0.0000
     25  C4B        8.6870   18.0680   37.9170 C.2   185  FDD185      0.0000
     26  C3B        7.2880   17.6500   38.0530 C.2   185  FDD185      0.0000
     27  CME        6.8850   16.4040   38.8950 C.3   185  FDD185      0.0000
     28  C2B        6.5430   18.4860   37.3540 C.2   185  FDD185      0.0000
     29  CMB        5.0110   18.4510   37.1570 C.3   185  FDD185      0.0000
     30  NB         8.7650   19.1760   37.1180 N.2   185  FDD185      0.0000
     31  C1B        7.4560   19.4630   36.7680 C.2   185  FDD185      0.0000
     32  CHB        7.0420   20.5520   36.0600 C.2   185  FDD185      0.0000
     33  C4A        7.8940   21.5650   35.6580 C.ar  185  FDD185      0.0000
     34  C3A        7.4760   22.8710   35.1700 C.ar  185  FDD185      0.0000
     35  CMA        6.0040   23.3340   34.9940 C.3   185  FDD185      0.0000
     36  C2A        8.5810   23.5670   34.9100 C.ar  185  FDD185      0.0000
     37  CAA        8.6910   24.9830   34.3360 C.3   185  FDD185      0.0000
     38  CBA        8.4020   25.9970   35.4190 C.3   185  FDD185      0.0000
     39  CGA        8.4090   27.4240   34.9430 C.2   185  FDD185      0.0000
     40  O1A        9.2150   27.7910   34.0500 O.co2 185  FDD185      0.0000
     41  O2A        7.5750   28.2210   35.4400 O.co2 185  FDD185      0.0000
@<TRIPOS>BOND
     1     3     2   ar
     2     2     1   ar
     3     2     4    1
     4     4     5    1
     5    40    39   ar
     6    37    36    1
     7    37    38    1
     8     5     6    1
     9    36    34   ar
    10    36    21   ar
    11    39    38    1
    12    39    41   ar
    13    35    34    1
    14     6     9    1
    15     6     7    2
    16    10    21    2
    17    10     9    1
    18    34    33   ar
    19    21    20   ar
    20     9    11    2
    21     8     7    1
    22     7    12    1
    23    33    20   ar
    24    33    32    2
    25    20    19    1
    26    11    12    1
    27    11    19    1
    28    12    13    2
    29    32    31    1
    30    19    30    1
    31    19    22    1
    32    13    14    1
    33    31    30    2
    34    31    28    1
    35    30    25    1
    36    29    28    1
    37    14    22   ar
    38    14    15   ar
    39    28    26    2
    40    22    23   ar
    41    25    26    1
    42    25    24    2
    43    15    16    1
    44    15    17   ar
    45    26    27    1
    46    23    24    1
    47    23    17   ar
    48    17    18    1
