@<TRIPOS>MOLECULE
2at9_RET_A_1.pdb
 20 20 0 0 0
SMALL
GASTEIGER

@<TRIPOS>ATOM
      1  C1        15.0580    9.9670   -3.4770 C.3   249  RET249      0.0183
      2  C2        14.3370   10.6680   -4.6210 C.3   249  RET249      0.0044
      3  C3        14.6870   12.1100   -4.8250 C.3   249  RET249      0.0047
      4  C4        14.6020   12.9630   -3.5780 C.3   249  RET249      0.0217
      5  C5        15.0280   12.2410   -2.3210 C.2   249  RET249     -0.0479
      6  C6        15.2720   10.9100   -2.2580 C.2   249  RET249     -0.0307
      7  C7        15.7590   10.3000   -1.0100 C.2   249  RET249     -0.0052
      8  C8        15.9840    9.0130   -0.7280 C.2   249  RET249     -0.0046
      9  C9        16.4450    8.3860    0.4900 C.2   249  RET249     -0.0219
     10  C10       16.5500    7.0510    0.4530 C.2   249  RET249     -0.0043
     11  C11       16.9590    6.1370    1.4960 C.2   249  RET249     -0.0007
     12  C12       17.0380    4.8000    1.3650 C.2   249  RET249     -0.0046
     13  C13       17.4210    3.8140    2.3530 C.2   249  RET249     -0.0261
     14  C14       17.4030    2.5200    1.9580 C.2   249  RET249     -0.0300
     15  C15       17.7250    1.3120    2.7080 C.3   249  RET249      0.0304
     16  C16       14.1930    8.7630   -3.1270 C.3   249  RET249      0.0043
     17  C17       16.4060    9.4900   -3.9810 C.3   249  RET249      0.0043
     18  C18       15.1700   13.2090   -1.1680 C.3   249  RET249      0.0260
     19  C19       16.7600    9.2380    1.6970 C.3   249  RET249      0.0310
     20  C20       17.7930    4.2750    3.7440 C.3   249  RET249      0.0307
@<TRIPOS>BOND
     1     3     2    1
     2     3     4    1
     3     2     1    1
     4    17     1    1
     5     4     5    1
     6     1    16    1
     7     1     6    1
     8     5     6    2
     9     5    18    1
    10     6     7    1
    11     7     8    2
    12     8     9    1
    13    10     9    2
    14    10    11    1
    15     9    19    1
    16    12    11    2
    17    12    13    1
    18    14    13    2
    19    14    15    1
    20    13    20    1
