@<TRIPOS>MOLECULE
2ath_3EA_A_1.pdb
 34 37 0 0 0
SMALL
GASTEIGER

@<TRIPOS>ATOM
      1  C13       19.9500    4.7520   34.7340 C.3   1001  3EA1001     0.0004
      2  C12       19.5250    5.1610   36.1450 C.3   1001  3EA1001     0.0049
      3  C11       19.2060    3.9110   36.9630 C.3   1001  3EA1001     0.0326
      4  C10       18.8240    4.2420   38.4090 C.ar  1001  3EA1001     0.0489
      5  C5        19.7340    4.8190   39.2830 C.ar  1001  3EA1001     0.1756
      6  O4        21.0140    5.2580   39.0810 O.2   1001  3EA1001    -0.3537
      7  N3        21.4900    5.7870   40.2970 N.ar  1001  3EA1001    -0.0730
      8  C2        20.5160    5.6660   41.1970 C.ar  1001  3EA1001     0.1940
      9  C1        20.6280    6.2230   42.6220 C.3   1001  3EA1001     0.4381
     10  F34       19.8670    7.3010   42.7830 F     1001  3EA1001    -0.1643
     11  F33       20.2740    5.3290   43.5380 F     1001  3EA1001    -0.1643
     12  F32       21.8910    6.5720   42.8310 F     1001  3EA1001    -0.1643
     13  C6        19.4120    5.0610   40.6150 C.ar  1001  3EA1001     0.0619
     14  C7        18.1500    4.7190   41.0940 C.ar  1001  3EA1001     0.0078
     15  C8        17.2290    4.1420   40.2290 C.ar  1001  3EA1001     0.0368
     16  C9        17.5610    3.9050   38.8960 C.ar  1001  3EA1001     0.1375
     17  O14       16.7140    3.2810   38.0320 O.3   1001  3EA1001    -0.4755
     18  C15       15.3060    3.4540   38.2640 C.3   1001  3EA1001     0.2093
     19  C16       14.7290    3.9750   36.9490 C.3   1001  3EA1001     0.0946
     20  C17       15.5860    5.1860   36.5800 C.3   1001  3EA1001     0.2093
     21  O18       14.9770    5.9190   35.5100 O.3   1001  3EA1001    -0.4753
     22  C19       15.7240    7.0070   35.1860 C.ar  1001  3EA1001     0.1386
     23  C20       15.4160    8.2440   35.7500 C.ar  1001  3EA1001     0.0384
     24  C24       16.7160    6.8900   34.2170 C.ar  1001  3EA1001     0.0384
     25  C23       17.4090    8.0220   33.7950 C.ar  1001  3EA1001     0.0203
     26  C22       17.0930    9.2610   34.3440 C.ar  1001  3EA1001     0.0606
     27  C21       16.1000    9.3720   35.3180 C.ar  1001  3EA1001     0.0203
     28  C25       15.9850   10.6670   35.6070 C.ar  1001  3EA1001     0.0202
     29  C26       16.8470   11.3610   34.8680 C.ar  1001  3EA1001     0.0764
     30  N27       17.5220   10.4950   34.1120 N.ar  1001  3EA1001    -0.3160
     31  C28       18.6800   10.8360   33.2710 C.3   1001  3EA1001     0.2211
     32  C29       18.2610   10.8490   31.7970 C.2   1001  3EA1001     0.3875
     33  O31       19.1670   10.6640   30.9570 O.co2 1001  3EA1001    -0.2435
     34  O30       17.0520   11.0390   31.5420 O.co2 1001  3EA1001    -0.2435
@<TRIPOS>BOND
     1    33    32   ar
     2    34    32   ar
     3    32    31    1
     4    31    30    1
     5    25    24   ar
     6    25    26   ar
     7    30    26   ar
     8    30    29   ar
     9    24    22   ar
    10    26    27   ar
    11     1     2    1
    12    29    28   ar
    13    22    21    1
    14    22    23   ar
    15    27    28   ar
    16    27    23   ar
    17    21    20    1
    18     2     3    1
    19    20    19    1
    20    19    18    1
    21     3     4    1
    22    17    18    1
    23    17    16    1
    24     4    16   ar
    25     4     5   ar
    26    16    15   ar
    27     6     5   ar
    28     6     7   ar
    29     5    13   ar
    30    15    14   ar
    31     7     8   ar
    32    13    14   ar
    33    13     8   ar
    34     8     9    1
    35     9    10    1
    36     9    12    1
    37     9    11    1
