@<TRIPOS>MOLECULE
2ati_GLC_A_1.pdb
 12 12 0 0 0
SMALL
GASTEIGER

@<TRIPOS>ATOM
      1  C1        27.2370   74.2970  151.4430 C.3   847  GLC847      0.3024
      2  C2        26.5470   73.5840  152.6130 C.3   847  GLC847      0.2434
      3  C3        25.1100   74.0830  152.8050 C.3   847  GLC847      0.2199
      4  C4        25.0870   75.6100  152.8840 C.3   847  GLC847      0.2144
      5  C5        25.8050   76.2220  151.6750 C.3   847  GLC847      0.1836
      6  C6        25.8900   77.7310  151.7620 C.3   847  GLC847      0.2142
      7  O1        26.6410   73.9380  150.2460 O.3   847  GLC847     -0.1869
      8  O2        26.5340   72.1920  152.3640 O.3   847  GLC847     -0.2148
      9  O3        24.5620   73.5430  154.0060 O.3   847  GLC847     -0.2174
     10  O4        23.7420   76.0620  152.9230 O.3   847  GLC847     -0.2176
     11  O5        27.1620   75.7240  151.5910 O.3   847  GLC847     -0.3236
     12  O6        26.4220   78.1420  153.0160 O.3   847  GLC847     -0.2176
@<TRIPOS>BOND
     1     7     1    1
     2     1    11    1
     3     1     2    1
     4    11     5    1
     5     5     6    1
     6     5     4    1
     7     6    12    1
     8     8     2    1
     9     2     3    1
    10     3     4    1
    11     3     9    1
    12     4    10    1
