@<TRIPOS>MOLECULE
2ati_PLP_A_1.pdb
 15 15 0 0 0
SMALL
GASTEIGER

@<TRIPOS>ATOM
      1  N1        21.0480   73.7590  143.7720 N.ar  1001  PLP1001    -0.2452
      2  C2        20.1960   74.6780  143.1890 C.ar  1001  PLP1001     0.0978
      3  C2A       20.0610   74.6460  141.6930 C.3   1001  PLP1001     0.0555
      4  C3        19.5040   75.5830  143.9820 C.ar  1001  PLP1001     0.2049
      5  O3        18.6610   76.4840  143.3910 O.3   1001  PLP1001    -0.2857
      6  C4        19.6890   75.5490  145.4200 C.ar  1001  PLP1001     0.0182
      7  C4A       18.9840   76.4780  146.2730 C.3   1001  PLP1001     0.0342
      8  C5        20.6060   74.5480  145.9620 C.ar  1001  PLP1001     0.0261
      9  C6        21.2500   73.6900  145.1190 C.ar  1001  PLP1001     0.0965
     10  C5A       20.9260   74.3500  147.4370 C.3   1001  PLP1001     0.1815
     11  O4P       19.9320   73.4860  147.9800 O.3   1001  PLP1001    -0.2653
     12  P         19.9490   72.7380  149.3840 P.3   1001  PLP1001     0.5329
     13  O1P       21.1340   71.8540  149.3160 O.2   1001  PLP1001    -0.2224
     14  O2P       18.6580   72.0060  149.4000 O.3   1001  PLP1001    -0.1145
     15  O3P       20.0440   73.8560  150.3230 O.3   1001  PLP1001    -0.1145
@<TRIPOS>BOND
     1     3     2    1
     2     2     1   ar
     3     2     4   ar
     4     5     4    1
     5     1     9   ar
     6     4     6   ar
     7     9     8   ar
     8     6     8   ar
     9     6     7    1
    10     8    10    1
    11    10    11    1
    12    11    12    1
    13    13    12    2
    14    12    14    1
    15    12    15    1
