@<TRIPOS>MOLECULE
2ati_IHU_A_1.pdb
 23 24 0 0 0
SMALL
GASTEIGER

@<TRIPOS>ATOM
      1  C51       18.6200   84.1510  102.6240 C.3   848  IHU848      0.2525
      2  O54       18.6630   85.5030  103.0930 O.3   848  IHU848     -0.4701
      3  C19       17.4350   86.0360  103.3460 C.ar  848  IHU848      0.1541
      4  C20       16.3410   85.7590  102.5300 C.ar  848  IHU848      0.0415
      5  C21       15.1080   86.3520  102.7850 C.ar  848  IHU848      0.0452
      6  C22       14.9710   87.2270  103.8580 C.ar  848  IHU848      0.1972
      7  O55       13.7660   87.8140  104.0900 O.3   848  IHU848     -0.2865
      8  C23       16.0640   87.5040  104.6760 C.ar  848  IHU848      0.0617
      9  C18       17.2980   86.9060  104.4250 C.ar  848  IHU848      0.1120
     10  N17       18.3780   87.1190  105.1770 N.am  848  IHU848     -0.1574
     11  C15       18.4660   87.8760  106.2700 C.2   848  IHU848      0.3505
     12  O16       17.4960   88.4630  106.7490 O.2   848  IHU848     -0.2484
     13  N14       19.6590   87.9350  106.8600 N.am  848  IHU848     -0.1221
     14  C12       20.7200   87.2970  106.3680 C.2   848  IHU848      0.2734
     15  O13       20.7240   86.6670  105.3110 O.2   848  IHU848     -0.2679
     16  C3        22.0030   87.4310  107.1920 C.ar  848  IHU848      0.0662
     17  C4        21.9940   86.9830  108.5100 C.ar  848  IHU848      0.0077
     18  C5        23.1690   86.9480  109.2550 C.ar  848  IHU848      0.0298
     19  C6        24.3610   87.3670  108.6740 C.ar  848  IHU848      0.1410
     20  F10       25.5140   87.3100  109.3690 F     848  IHU848     -0.2041
     21  C1        24.3770   87.8240  107.3610 C.ar  848  IHU848      0.0412
     22  C2        23.1990   87.8610  106.6210 C.ar  848  IHU848      0.0643
     23 CL11       23.2630   88.5160  105.0220 Cl    848  IHU848     -0.0820
@<TRIPOS>BOND
     1     4     5   ar
     2     4     3   ar
     3     1     2    1
     4     5     6   ar
     5     2     3    1
     6     3     9   ar
     7     6     7    1
     8     6     8   ar
     9     9     8   ar
    10     9    10    1
    11    23    22    1
    12    10    11   am
    13    15    14    2
    14    11    12    2
    15    11    13   am
    16    14    13   am
    17    14    16    1
    18    22    16   ar
    19    22    21   ar
    20    16    17   ar
    21    21    19   ar
    22    17    18   ar
    23    19    18   ar
    24    19    20    1
