@<TRIPOS>MOLECULE
2atj_HEM_A_1.pdb
 43 50 0 0 0
SMALL
GASTEIGER

@<TRIPOS>ATOM
      1 FE         -1.8680    0.6040   31.2880 Fe    350  HEM350      0.0000
      2  CHA        1.4350    1.5840   31.6040 C.2   350  HEM350      0.0000
      3  CHB       -2.7250    2.6180   33.9440 C.2   350  HEM350      0.0000
      4  CHC       -5.1520   -0.0670   30.7320 C.2   350  HEM350      0.0000
      5  CHD       -1.0160   -1.1810   28.4300 C.2   350  HEM350      0.0000
      6  NA        -0.8710    1.8330   32.4820 N.2   350  HEM350      0.0000
      7  C1A        0.4960    2.1280   32.4810 C.2   350  HEM350      0.0000
      8  C2A        0.8280    2.9990   33.6160 C.2   350  HEM350      0.0000
      9  C3A       -0.3190    3.2650   34.2830 C.2   350  HEM350      0.0000
     10  C4A       -1.3790    2.5720   33.5670 C.2   350  HEM350      0.0000
     11  CMA       -0.4570    4.0530   35.5780 C.3   350  HEM350      0.0000
     12  CAA        2.2050    3.5040   34.0070 C.3   350  HEM350      0.0000
     13  CBA        2.5740    4.8100   33.3140 C.3   350  HEM350      0.0000
     14  CGA        3.9240    5.3380   33.7510 C.2   350  HEM350      0.0000
     15  O1A        4.4460    6.2530   33.0850 O.co2 350  HEM350      0.0000
     16  O2A        4.4660    4.8370   34.7580 O.co2 350  HEM350      0.0000
     17  NB        -3.5700    1.1380   32.1770 N.ar  350  HEM350      0.0000
     18  C1B       -3.7490    1.9530   33.2920 C.ar  350  HEM350      0.0000
     19  C2B       -5.1350    1.9400   33.7320 C.ar  350  HEM350      0.0000
     20  C3B       -5.8340    1.1410   32.8660 C.ar  350  HEM350      0.0000
     21  C4B       -4.8560    0.6910   31.8630 C.ar  350  HEM350      0.0000
     22  CMB       -5.6990    2.6780   34.9440 C.3   350  HEM350      0.0000
     23  CAB       -7.2080    0.8680   32.9620 C.3   350  HEM350      0.0000
     24  CBB       -7.8040   -0.4450   32.9230 C.3   350  HEM350      0.0000
     25  NC        -2.8790   -0.3460   29.8630 N.2   350  HEM350      0.0000
     26  C1C       -4.2420   -0.5190   29.7850 C.2   350  HEM350      0.0000
     27  C2C       -4.6200   -1.2250   28.5570 C.2   350  HEM350      0.0000
     28  C3C       -3.4670   -1.5260   27.8790 C.2   350  HEM350      0.0000
     29  C4C       -2.3790   -0.9990   28.7190 C.2   350  HEM350      0.0000
     30  CMC       -6.0600   -1.5200   28.1320 C.3   350  HEM350      0.0000
     31  CAC       -3.2980   -2.1550   26.6240 C.3   350  HEM350      0.0000
     32  CBC       -4.0980   -3.2330   26.0920 C.3   350  HEM350      0.0000
     33  ND        -0.1570    0.2070   30.2950 N.ar  350  HEM350      0.0000
     34  C1D        0.0250   -0.6450   29.1820 C.ar  350  HEM350      0.0000
     35  C2D        1.4450   -0.9190   28.9560 C.ar  350  HEM350      0.0000
     36  C3D        2.1380   -0.1070   29.8310 C.ar  350  HEM350      0.0000
     37  C4D        1.1400    0.6240   30.6330 C.ar  350  HEM350      0.0000
     38  CMD        2.0050   -1.9870   28.0100 C.3   350  HEM350      0.0000
     39  CAD        3.6500    0.0600   29.9470 C.3   350  HEM350      0.0000
     40  CBD        4.1500    1.0790   28.9360 C.3   350  HEM350      0.0000
     41  CGD        5.6590    1.2550   28.9590 C.2   350  HEM350      0.0000
     42  O1D        6.1520    2.1650   28.2620 O.co2 350  HEM350      0.0000
     43  O2D        6.3490    0.4910   29.6680 O.co2 350  HEM350      0.0000
@<TRIPOS>BOND
     1    32    31    1
     2    31    28    1
     3    28    27    2
     4    28    29    1
     5    38    35    1
     6    30    27    1
     7    42    41   ar
     8     5    29    1
     9     5    34    2
    10    27    26    1
    11    29    25    2
    12    40    41    1
    13    40    39    1
    14    35    34   ar
    15    35    36   ar
    16    41    43   ar
    17    34    33   ar
    18    26    25    1
    19    26     4    2
    20    36    39    1
    21    36    37   ar
    22    25     1    1
    23    33    37   ar
    24    33     1    1
    25    37     2    2
    26     4    21    1
    27     1    17    1
    28     1     6    1
    29     2     7    1
    30    21    17   ar
    31    21    20   ar
    32    17    18   ar
    33     7     6    2
    34     7     8    1
    35     6    10    1
    36    20    23    1
    37    20    19   ar
    38    24    23    1
    39    15    14   ar
    40    18    19   ar
    41    18     3    1
    42    13    14    1
    43    13    12    1
    44    10     3    2
    45    10     9    1
    46     8    12    1
    47     8     9    2
    48    19    22    1
    49    14    16   ar
    50     9    11    1
