@<TRIPOS>MOLECULE
2atj_BHO_A_1.pdb
 10 10 0 0 0
SMALL
GASTEIGER

@<TRIPOS>ATOM
      1  C1        -2.9840    6.7380   33.0120 C.ar  353  BHO353      0.0227
      2  C2        -4.0070    7.6350   33.4650 C.ar  353  BHO353      0.0019
      3  C3        -3.6880    8.6160   34.4150 C.ar  353  BHO353      0.0001
      4  C4        -2.4390    8.6060   35.0470 C.ar  353  BHO353      0.0000
      5  C5        -1.4600    7.6730   34.6660 C.ar  353  BHO353      0.0001
      6  C6        -1.6700    6.8450   33.5570 C.ar  353  BHO353      0.0019
      7  C         -3.2820    5.7340   31.9620 C.2   353  BHO353      0.1101
      8  O1        -2.3040    4.9860   31.5470 O.2   353  BHO353     -0.5359
      9  N         -4.4780    5.5670   31.5200 N.am  353  BHO353     -0.1984
     10  O2        -4.7360    4.5470   30.5740 O.3   353  BHO353     -0.4024
@<TRIPOS>BOND
     1    10     9    1
     2     9     7   am
     3     8     7    2
     4     7     1    1
     5     1     2   ar
     6     1     6   ar
     7     2     3   ar
     8     6     5   ar
     9     3     4   ar
    10     5     4   ar
