@<TRIPOS>MOLECULE
2atl_DCP_A_1.pdb
 28 29 0 0 0
SMALL
GASTEIGER

@<TRIPOS>ATOM
      1  N1        10.5630   -6.0400    4.9590 N.am  414  DCP414     -0.1802
      2  C2        10.8150   -5.8830    6.2960 C.1   414  DCP414      0.2756
      3  N3        10.4750   -4.7430    6.9140 N.2   414  DCP414     -0.3024
      4  C4         9.8920   -3.7540    6.2450 C.2   414  DCP414      0.2346
      5  C5         9.6100   -3.8710    4.8950 C.2   414  DCP414      0.0687
      6  C6         9.9630   -5.0540    4.2590 C.2   414  DCP414      0.0835
      7  O2        11.6450   -6.6150    6.8700 O.2   414  DCP414     -0.1925
      8  N4         9.5710   -2.6110    6.9290 N.pl3 414  DCP414     -0.0921
      9  C1'       10.9270   -7.3090    4.3070 C.3   414  DCP414      0.2090
     10  C2'        9.7540   -8.2790    4.4170 C.3   414  DCP414      0.0874
     11  C3'        9.0190   -8.0790    3.0960 C.3   414  DCP414      0.1857
     12  C4'       10.1730   -7.8660    2.1210 C.3   414  DCP414      0.1773
     13  O4'       11.1140   -7.1550    2.9110 O.3   414  DCP414     -0.3339
     14  O3'        8.1680   -9.1700    2.7670 O.3   414  DCP414     -0.2203
     15  C5'        9.8470   -7.0270    0.9040 C.3   414  DCP414      0.1812
     16  O5'        9.1320   -5.8620    1.2720 O.3   414  DCP414     -0.3112
     17  PA         7.7920   -5.6590    0.6440 P.3   414  DCP414      0.2189
     18  O1A        7.3640   -4.2330    0.8180 O.3   414  DCP414     -0.4371
     19  O2A        7.9340   -5.9630   -0.8250 O.2   414  DCP414     -0.5170
     20  O3A        6.7470   -6.4970    1.3450 O.3   414  DCP414     -0.2700
     21  PB         6.0510   -7.7630    0.9030 P.3   414  DCP414      0.2277
     22  O1B        6.8660   -8.5170   -0.1090 O.2   414  DCP414     -0.5168
     23  O2B        5.8590   -8.6500    2.1020 O.3   414  DCP414     -0.4368
     24  O3B        4.6810   -7.4180    0.3730 O.3   414  DCP414     -0.2258
     25  PG         4.3190   -7.2480   -1.1090 P.3   414  DCP414      0.5373
     26  O1G        5.5160   -7.2700   -2.0490 O.2   414  DCP414     -0.2221
     27  O2G        3.6000   -5.9180   -1.2990 O.3   414  DCP414     -0.1143
     28  O3G        3.3960   -8.3840   -1.5310 O.3   414  DCP414     -0.1143
@<TRIPOS>BOND
     1    26    25    2
     2    28    25    1
     3    27    25    1
     4    25    24    1
     5    19    17    2
     6    22    21    2
     7    24    21    1
     8    17    18    1
     9    17    16    1
    10    17    20    1
    11    21    20    1
    12    21    23    1
    13    15    16    1
    14    15    12    1
    15    12    13    1
    16    12    11    1
    17    14    11    1
    18    13     9    1
    19    11    10    1
    20     6     5    2
    21     6     1    1
    22     9    10    1
    23     9     1    1
    24     5     4    1
    25     1     2   am
    26     4     3    2
    27     4     8    1
    28     2     7    2
    29     2     3    2
