@<TRIPOS>MOLECULE
2ato_MYQ_A_1.pdb
 10 9 0 0 0
SMALL
GASTEIGER

@<TRIPOS>ATOM
      1  S         29.1540   55.9780   64.4760 S.3   217  MYQ217      0.0000
      2  O1        32.4260   55.7290   64.1620 O.co2 217  MYQ217      0.0000
      3  O2        32.5570   53.6400   64.8440 O.co2 217  MYQ217      0.0000
      4  O3        30.2880   51.1470   63.5350 O.co2 217  MYQ217      0.0000
      5  O4        31.0220   52.8200   62.2350 O.co2 217  MYQ217      0.0000
      6  C1        31.8050   54.6580   64.5590 C.2   217  MYQ217      0.0000
      7  C2        30.3280   54.6390   64.7310 C.3   217  MYQ217      0.0000
      8  C3        29.6690   53.3290   64.2790 C.3   217  MYQ217      0.0000
      9  C4        30.3710   52.3850   63.3100 C.2   217  MYQ217      0.0000
     10 AU         30.2530   58.1890   64.0770 Au    217  MYQ217      0.0000
@<TRIPOS>BOND
     1     5     9   ar
     2     9     4   ar
     3     9     8    1
     4    10     1    1
     5     2     6   ar
     6     8     7    1
     7     1     7    1
     8     6     7    1
     9     6     3   ar
