@<TRIPOS>MOLECULE
2atq_GDP_A_1.pdb
 28 30 0 0 0
SMALL
GASTEIGER

@<TRIPOS>ATOM
      1  PB        -1.7990  150.0130   32.3940 P.3   999  GDP999      0.5373
      2  O1B       -3.0690  149.2530   32.3380 O.3   999  GDP999     -0.1143
      3  O2B       -0.4410  149.4020   33.0050 O.3   999  GDP999     -0.1143
      4  O3B       -1.8680  151.6340   32.2470 O.2   999  GDP999     -0.2221
      5  O3A       -2.1470  150.2500   34.0190 O.3   999  GDP999     -0.2261
      6  PA        -3.6120  150.9610   34.3620 P.3   999  GDP999      0.2231
      7  O1A       -3.6720  152.3250   33.7480 O.2   999  GDP999     -0.5169
      8  O2A       -4.8430  150.0580   33.7900 O.3   999  GDP999     -0.4370
      9  O5'       -3.7870  151.1180   35.9810 O.3   999  GDP999     -0.3111
     10  C5'       -5.0800  151.7200   36.1630 C.3   999  GDP999      0.1813
     11  C4'       -5.4330  151.9680   37.6340 C.3   999  GDP999      0.1799
     12  O4'       -4.4850  152.9150   38.2060 O.3   999  GDP999     -0.3326
     13  C3'       -6.8350  152.6050   37.7150 C.3   999  GDP999      0.2158
     14  O3'       -7.8220  151.6570   38.1440 O.3   999  GDP999     -0.2175
     15  C2'       -6.6990  153.8070   38.6790 C.3   999  GDP999      0.2310
     16  O2'       -7.6110  153.7110   39.7930 O.3   999  GDP999     -0.2158
     17  C1'       -5.2130  153.7920   39.1290 C.3   999  GDP999      0.2293
     18  N9        -4.6390  155.1610   39.1200 N.pl3 999  GDP999     -0.2354
     19  C8        -4.8540  156.1340   40.0690 C.3   999  GDP999      0.2246
     20  N7        -4.1950  157.2170   39.7620 N.2   999  GDP999     -0.2322
     21  C5        -3.5190  157.0150   38.6030 C.2   999  GDP999      0.2182
     22  C6        -2.6380  157.8140   37.7980 C.1   999  GDP999      0.2372
     23  O6        -2.3730  158.9570   38.1220 O.2   999  GDP999     -0.2069
     24  N1        -2.1130  157.2670   36.6520 N.2   999  GDP999     -0.2485
     25  C2        -2.4160  155.9710   36.2860 C.1   999  GDP999      0.2531
     26  N2        -1.8740  155.4480   35.1350 N.pl3 999  GDP999     -0.0226
     27  N3        -3.2280  155.2210   37.0260 N.2   999  GDP999     -0.3074
     28  C4        -3.7860  155.6930   38.1780 C.2   999  GDP999      0.2300
@<TRIPOS>BOND
     1     4     1    2
     2     2     1    1
     3     1     3    1
     4     1     5    1
     5     7     6    2
     6     8     6    1
     7     5     6    1
     8     6     9    1
     9    26    25    1
    10     9    10    1
    11    10    11    1
    12    25    24    2
    13    25    27    2
    14    24    22    2
    15    27    28    2
    16    11    13    1
    17    11    12    1
    18    13    14    1
    19    13    15    1
    20    22    23    2
    21    22    21    1
    22    28    21    1
    23    28    18    1
    24    12    17    1
    25    21    20    2
    26    15    17    1
    27    15    16    1
    28    18    17    1
    29    18    19    1
    30    20    19    1
