@<TRIPOS>MOLECULE
2ats_DLY_A_1.pdb
 10 9 0 0 0
SMALL
GASTEIGER

@<TRIPOS>ATOM
      1  N        -42.9210   25.3560    5.3910 N.3   3001  DLY3001    -0.1208
      2  CA       -43.3810   24.7440    6.6890 C.3   3001  DLY3001     0.1943
      3  C        -42.2300   24.5600    7.6390 C.2   3001  DLY3001     0.3819
      4  O        -41.1070   24.7790    7.2210 O.co2 3001  DLY3001    -0.2441
      5  CB       -44.0510   23.3970    6.4180 C.3   3001  DLY3001     0.0307
      6  CG       -43.1250   22.2890    5.9130 C.3   3001  DLY3001     0.0036
      7  CD       -43.9480   21.0510    5.5600 C.3   3001  DLY3001     0.0206
      8  CE       -43.1970   19.7160    5.5370 C.3   3001  DLY3001     0.1093
      9  NZ       -42.0460   19.7400    4.6470 N.3   3001  DLY3001    -0.1314
     10  OXT      -42.3980   24.1490    8.8130 O.co2 3001  DLY3001    -0.2441
@<TRIPOS>BOND
     1     9     8    1
     2     1     2    1
     3     8     7    1
     4     7     6    1
     5     6     5    1
     6     5     2    1
     7     2     3    1
     8     4     3   ar
     9     3    10   ar
