@<TRIPOS>MOLECULE
2atv_GDP_A_1.pdb
 28 30 0 0 0
SMALL
GASTEIGER

@<TRIPOS>ATOM
      1  PB        12.5660   20.6920    9.6430 P.3   415  GDP415      0.5373
      2  O1B       13.1210   19.6950   10.6350 O.3   415  GDP415     -0.1143
      3  O2B       12.2880   22.0260   10.3230 O.3   415  GDP415     -0.1143
      4  O3B       13.4680   20.8780    8.4490 O.2   415  GDP415     -0.2221
      5  O3A       11.1310   20.1500    9.1940 O.3   415  GDP415     -0.2261
      6  PA        10.7370   19.2650    7.9070 P.3   415  GDP415      0.2231
      7  O1A       10.7390   20.0830    6.6460 O.2   415  GDP415     -0.5169
      8  O2A       11.6450   18.0580    7.8290 O.3   415  GDP415     -0.4370
      9  O5'        9.2330   18.9060    8.2200 O.3   415  GDP415     -0.3111
     10  C5'        9.0240   18.0730    9.3640 C.3   415  GDP415      0.1813
     11  C4'        7.7670   17.2760    9.1710 C.3   415  GDP415      0.1799
     12  O4'        6.6370   18.1570    9.0870 O.3   415  GDP415     -0.3326
     13  C3'        7.7560   16.4660    7.8910 C.3   415  GDP415      0.2158
     14  O3'        7.0530   15.2640    8.1890 O.3   415  GDP415     -0.2175
     15  C2'        6.9540   17.3010    6.9160 C.3   415  GDP415      0.2310
     16  O2'        6.2310   16.5630    5.9350 O.3   415  GDP415     -0.2158
     17  C1'        5.9750   17.9850    7.8350 C.3   415  GDP415      0.2293
     18  N9         5.5450   19.3220    7.3570 N.pl3 415  GDP415     -0.2354
     19  C8         6.3380   20.3410    6.9840 C.3   415  GDP415      0.2246
     20  N7         5.6070   21.4180    6.6340 N.2   415  GDP415     -0.2322
     21  C5         4.3140   21.0780    6.7990 C.2   415  GDP415      0.2182
     22  C6         3.0190   21.7220    6.6400 C.1   415  GDP415      0.2372
     23  O6         2.9370   22.8920    6.2380 O.2   415  GDP415     -0.2069
     24  N1         1.9220   21.0130    6.9440 N.2   415  GDP415     -0.2485
     25  C2         1.9590   19.7360    7.3690 C.1   415  GDP415      0.2531
     26  N2         0.7990   19.1120    7.6360 N.pl3 415  GDP415     -0.0226
     27  N3         3.1040   19.0680    7.5430 N.2   415  GDP415     -0.3074
     28  C4         4.2850   19.6910    7.2860 C.2   415  GDP415      0.2300
@<TRIPOS>BOND
     1    16    15    1
     2    23    22    2
     3    20    21    2
     4    20    19    1
     5    22    21    1
     6    22    24    2
     7     7     6    2
     8    21    28    1
     9    15    17    1
    10    15    13    1
    11    24    25    2
    12    19    18    1
    13    28    18    1
    14    28    27    2
    15    18    17    1
    16    25    27    2
    17    25    26    1
    18     8     6    1
    19    17    12    1
    20    13    14    1
    21    13    11    1
    22     6     9    1
    23     6     5    1
    24     9    10    1
    25     4     1    2
    26    12    11    1
    27    11    10    1
    28     5     1    1
    29     1     3    1
    30     1     2    1
