@<TRIPOS>MOLECULE
2atx_GNP_A_1.pdb
 32 34 0 0 0
SMALL
GASTEIGER

@<TRIPOS>ATOM
      1  PG         3.9680    3.2600   46.9880 P.3   200  GNP200      0.4884
      2  O1G        4.8860    3.8740   47.9810 O.3   200  GNP200     -0.1240
      3  O2G        4.5110    2.1500   46.1930 O.2   200  GNP200     -0.2331
      4  O3G        2.7710    2.8430   47.8550 O.3   200  GNP200     -0.1240
      5  N3B        3.4230    4.2950   45.8580 N.3   200  GNP200     -0.0163
      6  PB         4.2930    4.9330   44.6710 P.3   200  GNP200      0.4669
      7  O1B        5.1810    6.0260   45.1600 O.3   200  GNP200     -0.1253
      8  O2B        4.9880    3.7900   44.0160 O.2   200  GNP200     -0.2351
      9  O3A        3.4570    5.6600   43.5890 O.3   200  GNP200     -0.2360
     10  PA         2.7740    5.0050   42.3860 P.3   200  GNP200      0.2220
     11  O1A        3.8390    5.0150   41.3370 O.2   200  GNP200     -0.5170
     12  O2A        2.2230    3.6870   42.7920 O.3   200  GNP200     -0.4370
     13  O5'        1.5810    5.8590   41.8100 O.3   200  GNP200     -0.3111
     14  C5'        0.3990    6.1800   42.6240 C.3   200  GNP200      0.1813
     15  C4'       -0.6540    6.9440   41.8210 C.3   200  GNP200      0.1799
     16  O4'       -0.0610    8.0280   41.0310 O.3   200  GNP200     -0.3326
     17  C3'       -1.3800    6.0690   40.8140 C.3   200  GNP200      0.2158
     18  O3'       -2.7770    6.3720   40.6950 O.3   200  GNP200     -0.2175
     19  C2'       -0.6390    6.3640   39.5370 C.3   200  GNP200      0.2310
     20  O2'       -1.4130    6.1380   38.4030 O.3   200  GNP200     -0.2158
     21  C1'       -0.4100    7.8620   39.6660 C.3   200  GNP200      0.2293
     22  N9         0.7040    8.4850   38.9350 N.pl3 200  GNP200     -0.2354
     23  C8         2.0400    8.1220   39.0510 C.3   200  GNP200      0.2246
     24  N7         2.8420    8.8810   38.3440 N.2   200  GNP200     -0.2322
     25  C5         1.9920    9.7880   37.7260 C.2   200  GNP200      0.2182
     26  C6         2.3080   10.8360   36.8450 C.1   200  GNP200      0.2372
     27  O6         3.4260   11.1320   36.4670 O.2   200  GNP200     -0.2069
     28  N1         1.2030   11.5580   36.4080 N.2   200  GNP200     -0.2485
     29  C2        -0.0800   11.2400   36.8250 C.1   200  GNP200      0.2531
     30  N2        -1.0540   11.9960   36.3060 N.pl3 200  GNP200     -0.0226
     31  N3        -0.4090   10.2450   37.6680 N.2   200  GNP200     -0.3074
     32  C4         0.6710    9.5610   38.0780 C.2   200  GNP200      0.2300
@<TRIPOS>BOND
     1    30    29    1
     2    28    29    2
     3    28    26    2
     4    27    26    2
     5    29    31    2
     6    26    25    1
     7    31    32    2
     8    25    32    1
     9    25    24    2
    10    32    22    1
    11    24    23    1
    12    20    19    1
    13    22    23    1
    14    22    21    1
    15    19    21    1
    16    19    17    1
    17    21    16    1
    18    18    17    1
    19    17    15    1
    20    16    15    1
    21    11    10    2
    22    13    10    1
    23    13    14    1
    24    15    14    1
    25    10    12    1
    26    10     9    1
    27     9     6    1
    28     8     6    2
    29     6     7    1
    30     6     5    1
    31     5     1    1
    32     3     1    2
    33     1     4    1
    34     1     2    1
