@<TRIPOS>MOLECULE
2atz_DGT_A_1.pdb
 31 33 0 0 0
SMALL
GASTEIGER

@<TRIPOS>ATOM
      1  PG         6.3740   28.6380   -5.9020 P.3   201  DGT201      0.5373
      2  O1G        6.7070   29.6440   -4.8490 O.3   201  DGT201     -0.1143
      3  O2G        7.0460   27.3820   -5.6060 O.3   201  DGT201     -0.1143
      4  O3G        6.4830   29.3130   -7.2320 O.2   201  DGT201     -0.2221
      5  O3B        4.8020   28.2330   -5.9030 O.3   201  DGT201     -0.2258
      6  PB         3.6050   28.7670   -4.9490 P.3   201  DGT201      0.2277
      7  O1B        4.1180   28.7980   -3.4990 O.3   201  DGT201     -0.4368
      8  O2B        2.4850   27.8200   -5.0630 O.2   201  DGT201     -0.5168
      9  O3A        3.1120   30.1930   -5.4360 O.3   201  DGT201     -0.2700
     10  PA         3.3580   31.6830   -4.8190 P.3   201  DGT201      0.2189
     11  O1A        3.2480   32.5160   -6.0550 O.2   201  DGT201     -0.5170
     12  O2A        4.5840   31.6440   -3.8660 O.3   201  DGT201     -0.4371
     13  O5'        1.9110   31.8700   -4.0700 O.3   201  DGT201     -0.3112
     14  C5'        1.6250   31.1810   -2.8340 C.3   201  DGT201      0.1812
     15  C4'        0.1990   30.6390   -2.9160 C.3   201  DGT201      0.1772
     16  O4'       -0.6130   31.7510   -3.1740 O.3   201  DGT201     -0.3347
     17  C3'       -0.1450   29.6500   -4.0550 C.3   201  DGT201      0.1857
     18  O3'        0.1810   28.3010   -3.6920 O.3   201  DGT201     -0.2203
     19  C2'       -1.6430   29.8590   -4.2250 C.3   201  DGT201      0.0865
     20  C1'       -1.7870   31.3420   -3.8590 C.3   201  DGT201      0.1981
     21  N9        -1.9000   32.1710   -5.0720 N.pl3 201  DGT201     -0.2374
     22  C8        -0.8850   32.6250   -5.8890 C.3   201  DGT201      0.2245
     23  N7        -1.4080   33.3640   -6.9200 N.2   201  DGT201     -0.2322
     24  C5        -2.7470   33.3220   -6.8000 C.2   201  DGT201      0.2182
     25  C6        -3.8790   33.8940   -7.5500 C.1   201  DGT201      0.2372
     26  O6        -3.6390   34.6040   -8.6140 O.2   201  DGT201     -0.2069
     27  N1        -5.1010   33.6590   -7.0600 N.2   201  DGT201     -0.2485
     28  C2        -5.3640   32.9610   -5.9460 C.1   201  DGT201      0.2531
     29  N2        -6.6560   32.7990   -5.6170 N.pl3 201  DGT201     -0.0226
     30  N3        -4.3650   32.4000   -5.1690 N.2   201  DGT201     -0.3074
     31  C4        -3.0760   32.5860   -5.5470 C.2   201  DGT201      0.2299
@<TRIPOS>BOND
     1    26    25    2
     2    25    27    2
     3    25    24    1
     4     4     1    2
     5    27    28    2
     6    23    24    2
     7    23    22    1
     8    24    31    1
     9    11    10    2
    10    28    29    1
    11    28    30    2
    12     5     1    1
    13     5     6    1
    14     1     3    1
    15     1     2    1
    16    22    21    1
    17    31    30    2
    18    31    21    1
    19     9     6    1
    20     9    10    1
    21    21    20    1
    22     8     6    2
    23     6     7    1
    24    10    13    1
    25    10    12    1
    26    19    17    1
    27    19    20    1
    28    13    14    1
    29    17    18    1
    30    17    15    1
    31    20    16    1
    32    16    15    1
    33    15    14    1
