@<TRIPOS>MOLECULE
2auo_HEM_A_1.pdb
 43 50 0 0 0
SMALL
GASTEIGER

@<TRIPOS>ATOM
      1 FE         42.7800   -2.2110   20.3490 Fe    153  HEM153      0.0000
      2  CHA       41.8580   -0.5590   17.4990 C.2   153  HEM153      0.0000
      3  CHB       39.5170   -2.0810   21.4750 C.2   153  HEM153      0.0000
      4  CHC       43.7890   -3.4780   23.3830 C.2   153  HEM153      0.0000
      5  CHD       45.9510   -2.6120   19.0950 C.2   153  HEM153      0.0000
      6  NA        41.0530   -1.4580   19.6480 N.2   153  HEM153      0.0000
      7  C1A       40.8610   -0.8070   18.4410 C.2   153  HEM153      0.0000
      8  C2A       39.4660   -0.4740   18.2490 C.2   153  HEM153      0.0000
      9  C3A       38.8100   -0.9040   19.3600 C.2   153  HEM153      0.0000
     10  C4A       39.7950   -1.5120   20.2310 C.2   153  HEM153      0.0000
     11  CMA       37.3280   -0.7640   19.6690 C.3   153  HEM153      0.0000
     12  CAA       38.9110    0.1510   16.9820 C.3   153  HEM153      0.0000
     13  CBA       38.6930   -0.9200   15.9360 C.3   153  HEM153      0.0000
     14  CGA       38.5960   -0.3570   14.5320 C.2   153  HEM153      0.0000
     15  O1A       37.8730    0.6370   14.3210 O.co2 153  HEM153      0.0000
     16  O2A       39.2490   -0.9170   13.6300 O.co2 153  HEM153      0.0000
     17  NB        41.8390   -2.7100   22.0540 N.ar  153  HEM153      0.0000
     18  C1B       40.4750   -2.6440   22.3190 C.ar  153  HEM153      0.0000
     19  C2B       40.1810   -3.1250   23.6450 C.ar  153  HEM153      0.0000
     20  C3B       41.3770   -3.4550   24.2190 C.ar  153  HEM153      0.0000
     21  C4B       42.4130   -3.1890   23.2250 C.ar  153  HEM153      0.0000
     22  CMB       38.7890   -3.2330   24.2510 C.3   153  HEM153      0.0000
     23  CAB       41.6220   -4.0220   25.4670 C.3   153  HEM153      0.0000
     24  CBB       41.0600   -3.5830   26.7140 C.3   153  HEM153      0.0000
     25  NC        44.5040   -2.9400   21.0800 N.2   153  HEM153      0.0000
     26  C1C       44.7580   -3.3770   22.3780 C.2   153  HEM153      0.0000
     27  C2C       46.1740   -3.6760   22.5380 C.2   153  HEM153      0.0000
     28  C3C       46.7820   -3.4430   21.3300 C.2   153  HEM153      0.0000
     29  C4C       45.7290   -3.0160   20.4210 C.2   153  HEM153      0.0000
     30  CMC       46.8270   -4.0970   23.8490 C.3   153  HEM153      0.0000
     31  CAC       48.1320   -3.4550   20.9710 C.3   153  HEM153      0.0000
     32  CBC       49.1770   -4.2560   21.5420 C.3   153  HEM153      0.0000
     33  ND        43.7100   -1.6930   18.6540 N.ar  153  HEM153      0.0000
     34  C1D       45.0230   -1.9570   18.2900 C.ar  153  HEM153      0.0000
     35  C2D       45.3330   -1.3530   17.0050 C.ar  153  HEM153      0.0000
     36  C3D       44.2080   -0.7280   16.5880 C.ar  153  HEM153      0.0000
     37  C4D       43.1860   -0.9660   17.6000 C.ar  153  HEM153      0.0000
     38  CMD       46.6680   -1.4140   16.2810 C.3   153  HEM153      0.0000
     39  CAD       44.0430    0.1190   15.3390 C.3   153  HEM153      0.0000
     40  CBD       44.0960    1.6040   15.6500 C.3   153  HEM153      0.0000
     41  CGD       43.8040    2.4510   14.4270 C.2   153  HEM153      0.0000
     42  O1D       44.6510    2.4900   13.5130 O.co2 153  HEM153      0.0000
     43  O2D       42.7210    3.0650   14.3690 O.co2 153  HEM153      0.0000
@<TRIPOS>BOND
     1    42    41   ar
     2    16    14   ar
     3    15    14   ar
     4    43    41   ar
     5    41    40    1
     6    14    13    1
     7    39    40    1
     8    39    36    1
     9    13    12    1
    10    38    35    1
    11    36    35   ar
    12    36    37   ar
    13    12     8    1
    14    35    34   ar
    15     2    37    2
    16     2     7    1
    17    37    33   ar
    18     8     7    1
    19     8     9    2
    20    34    33   ar
    21    34     5    2
    22     7     6    2
    23    33     1    1
    24     5    29    1
    25     9    11    1
    26     9    10    1
    27     6    10    1
    28     6     1    1
    29    10     3    2
    30     1    25    1
    31     1    17    1
    32    29    25    2
    33    29    28    1
    34    31    28    1
    35    31    32    1
    36    25    26    1
    37    28    27    2
    38     3    18    1
    39    17    18   ar
    40    17    21   ar
    41    18    19   ar
    42    26    27    1
    43    26     4    2
    44    27    30    1
    45    21     4    1
    46    21    20   ar
    47    19    20   ar
    48    19    22    1
    49    20    23    1
    50    23    24    1
