@<TRIPOS>MOLECULE
2aup_HEM_A_1.pdb
 43 50 0 0 0
SMALL
GASTEIGER

@<TRIPOS>ATOM
      1 FE         17.9150    7.3510   20.4710 Fe    147  HEM147      0.0000
      2  CHA       17.0020    9.2490   17.7460 C.2   147  HEM147      0.0000
      3  CHB       14.7540    7.6230   21.7410 C.2   147  HEM147      0.0000
      4  CHC       19.0710    6.3880   23.5770 C.2   147  HEM147      0.0000
      5  CHD       21.1090    7.1960   19.2730 C.2   147  HEM147      0.0000
      6  NA        16.2470    8.1970   19.8550 N.2   147  HEM147      0.0000
      7  C1A       16.0200    8.9160   18.6790 C.2   147  HEM147      0.0000
      8  C2A       14.6280    9.2830   18.5760 C.2   147  HEM147      0.0000
      9  C3A       14.0020    8.7840   19.6620 C.2   147  HEM147      0.0000
     10  C4A       15.0000    8.1550   20.4770 C.2   147  HEM147      0.0000
     11  CMA       12.5080    8.8600   19.9450 C.3   147  HEM147      0.0000
     12  CAA       13.9400   10.1410   17.5210 C.3   147  HEM147      0.0000
     13  CBA       13.2280    9.3140   16.4580 C.3   147  HEM147      0.0000
     14  CGA       14.1880    8.6660   15.4800 C.2   147  HEM147      0.0000
     15  O1A       14.7350    9.3860   14.6220 O.co2 147  HEM147      0.0000
     16  O2A       14.3940    7.4390   15.5810 O.co2 147  HEM147      0.0000
     17  NB        17.0870    7.0130   22.2400 N.ar  147  HEM147      0.0000
     18  C1B       15.7350    7.0850   22.5670 C.ar  147  HEM147      0.0000
     19  C2B       15.5040    6.6720   23.9390 C.ar  147  HEM147      0.0000
     20  C3B       16.7240    6.4000   24.4910 C.ar  147  HEM147      0.0000
     21  C4B       17.7030    6.6200   23.4260 C.ar  147  HEM147      0.0000
     22  CMB       14.1300    6.4760   24.5750 C.3   147  HEM147      0.0000
     23  CAB       17.0340    5.8810   25.7520 C.3   147  HEM147      0.0000
     24  CBB       16.2560    5.9780   26.9660 C.3   147  HEM147      0.0000
     25  NC        19.6810    6.8600   21.2430 N.2   147  HEM147      0.0000
     26  C1C       19.9970    6.4930   22.5470 C.2   147  HEM147      0.0000
     27  C2C       21.4130    6.2080   22.6930 C.2   147  HEM147      0.0000
     28  C3C       21.9830    6.4290   21.4750 C.2   147  HEM147      0.0000
     29  C4C       20.8990    6.7880   20.5820 C.2   147  HEM147      0.0000
     30  CMC       22.1110    5.7550   23.9760 C.3   147  HEM147      0.0000
     31  CAC       23.3410    6.4600   21.1260 C.3   147  HEM147      0.0000
     32  CBC       24.3730    5.5870   21.6130 C.3   147  HEM147      0.0000
     33  ND        18.8470    8.0710   18.8760 N.ar  147  HEM147      0.0000
     34  C1D       20.1710    7.8540   18.5080 C.ar  147  HEM147      0.0000
     35  C2D       20.5100    8.5630   17.2940 C.ar  147  HEM147      0.0000
     36  C3D       19.3920    9.2060   16.9100 C.ar  147  HEM147      0.0000
     37  C4D       18.3450    8.8790   17.8670 C.ar  147  HEM147      0.0000
     38  CMD       21.8590    8.5820   16.5690 C.3   147  HEM147      0.0000
     39  CAD       19.2730   10.1020   15.6890 C.3   147  HEM147      0.0000
     40  CBD       19.6110   11.5480   16.0130 C.3   147  HEM147      0.0000
     41  CGD       19.3630   12.4800   14.8430 C.2   147  HEM147      0.0000
     42  O1D       20.0870   12.3720   13.8320 O.co2 147  HEM147      0.0000
     43  O2D       18.4400   13.3150   14.9440 O.co2 147  HEM147      0.0000
@<TRIPOS>BOND
     1    42    41   ar
     2    15    14   ar
     3    41    43   ar
     4    41    40    1
     5    14    16   ar
     6    14    13    1
     7    39    40    1
     8    39    36    1
     9    13    12    1
    10    38    35    1
    11    36    35   ar
    12    36    37   ar
    13    35    34   ar
    14    12     8    1
    15     2    37    2
    16     2     7    1
    17    37    33   ar
    18    34    33   ar
    19    34     5    2
    20     8     7    1
    21     8     9    2
    22     7     6    2
    23    33     1    1
    24     5    29    1
    25     9    11    1
    26     9    10    1
    27     6     1    1
    28     6    10    1
    29     1    25    1
    30     1    17    1
    31    10     3    2
    32    29    25    2
    33    29    28    1
    34    31    28    1
    35    31    32    1
    36    25    26    1
    37    28    27    2
    38     3    18    1
    39    17    18   ar
    40    17    21   ar
    41    26    27    1
    42    26     4    2
    43    18    19   ar
    44    27    30    1
    45    21     4    1
    46    21    20   ar
    47    19    20   ar
    48    19    22    1
    49    20    23    1
    50    23    24    1
