@<TRIPOS>MOLECULE
2auq_HEM_A_1.pdb
 43 50 0 0 0
SMALL
GASTEIGER

@<TRIPOS>ATOM
      1 FE         42.7540   -2.2040   20.3440 Fe    147  HEM147      0.0000
      2  CHA       41.7830   -0.4980   17.5240 C.2   147  HEM147      0.0000
      3  CHB       39.5010   -2.1390   21.5040 C.2   147  HEM147      0.0000
      4  CHC       43.8300   -3.5130   23.3430 C.2   147  HEM147      0.0000
      5  CHD       45.9360   -2.5140   19.0580 C.2   147  HEM147      0.0000
      6  NA        41.0030   -1.4450   19.6720 N.2   147  HEM147      0.0000
      7  C1A       40.7930   -0.7580   18.4900 C.2   147  HEM147      0.0000
      8  C2A       39.3810   -0.4230   18.3430 C.2   147  HEM147      0.0000
      9  C3A       38.7380   -0.9170   19.4280 C.2   147  HEM147      0.0000
     10  C4A       39.7480   -1.5330   20.2680 C.2   147  HEM147      0.0000
     11  CMA       37.2290   -0.9110   19.6740 C.3   147  HEM147      0.0000
     12  CAA       38.7660    0.2710   17.1310 C.3   147  HEM147      0.0000
     13  CBA       38.6260   -0.6930   15.9590 C.3   147  HEM147      0.0000
     14  CGA       38.4670    0.0210   14.6330 C.2   147  HEM147      0.0000
     15  O1A       37.5240    0.8280   14.4980 O.co2 147  HEM147      0.0000
     16  O2A       39.2870   -0.2270   13.7240 O.co2 147  HEM147      0.0000
     17  NB        41.8480   -2.7390   22.0540 N.ar  147  HEM147      0.0000
     18  C1B       40.4850   -2.6930   22.3400 C.ar  147  HEM147      0.0000
     19  C2B       40.2280   -3.2030   23.6620 C.ar  147  HEM147      0.0000
     20  C3B       41.4380   -3.5260   24.2240 C.ar  147  HEM147      0.0000
     21  C4B       42.4480   -3.2460   23.2070 C.ar  147  HEM147      0.0000
     22  CMB       38.8390   -3.4040   24.2620 C.3   147  HEM147      0.0000
     23  CAB       41.6960   -4.0550   25.4940 C.3   147  HEM147      0.0000
     24  CBB       40.9830   -3.7310   26.7050 C.3   147  HEM147      0.0000
     25  NC        44.5200   -2.8960   21.0500 N.2   147  HEM147      0.0000
     26  C1C       44.7880   -3.3550   22.3340 C.2   147  HEM147      0.0000
     27  C2C       46.2090   -3.6310   22.4860 C.2   147  HEM147      0.0000
     28  C3C       46.8130   -3.3940   21.2690 C.2   147  HEM147      0.0000
     29  C4C       45.7410   -2.9500   20.3780 C.2   147  HEM147      0.0000
     30  CMC       46.8650   -4.0480   23.8000 C.3   147  HEM147      0.0000
     31  CAC       48.1640   -3.5000   20.8950 C.3   147  HEM147      0.0000
     32  CBC       49.2990   -3.8020   21.7440 C.3   147  HEM147      0.0000
     33  ND        43.6650   -1.6240   18.6450 N.ar  147  HEM147      0.0000
     34  C1D       44.9850   -1.8590   18.2680 C.ar  147  HEM147      0.0000
     35  C2D       45.2640   -1.2390   16.9850 C.ar  147  HEM147      0.0000
     36  C3D       44.1230   -0.6300   16.5880 C.ar  147  HEM147      0.0000
     37  C4D       43.1200   -0.8920   17.6030 C.ar  147  HEM147      0.0000
     38  CMD       46.5710   -1.2660   16.1980 C.3   147  HEM147      0.0000
     39  CAD       43.9700    0.2230   15.3360 C.3   147  HEM147      0.0000
     40  CBD       44.0720    1.7100   15.6290 C.3   147  HEM147      0.0000
     41  CGD       43.8960    2.5590   14.3860 C.2   147  HEM147      0.0000
     42  O1D       44.7250    2.4400   13.4590 O.co2 147  HEM147      0.0000
     43  O2D       42.9250    3.3430   14.3360 O.co2 147  HEM147      0.0000
@<TRIPOS>BOND
     1    42    41   ar
     2    16    14   ar
     3    43    41   ar
     4    41    40    1
     5    15    14   ar
     6    14    13    1
     7    39    40    1
     8    39    36    1
     9    13    12    1
    10    38    35    1
    11    36    35   ar
    12    36    37   ar
    13    35    34   ar
    14    12     8    1
    15     2    37    2
    16     2     7    1
    17    37    33   ar
    18    34    33   ar
    19    34     5    2
    20     8     7    1
    21     8     9    2
    22     7     6    2
    23    33     1    1
    24     5    29    1
    25     9    11    1
    26     9    10    1
    27     6    10    1
    28     6     1    1
    29    10     3    2
    30     1    25    1
    31     1    17    1
    32    29    25    2
    33    29    28    1
    34    31    28    1
    35    31    32    1
    36    25    26    1
    37    28    27    2
    38     3    18    1
    39    17    18   ar
    40    17    21   ar
    41    26    27    1
    42    26     4    2
    43    18    19   ar
    44    27    30    1
    45    21     4    1
    46    21    20   ar
    47    19    20   ar
    48    19    22    1
    49    20    23    1
    50    23    24    1
