@<TRIPOS>MOLECULE
2aur_HEM_A_1.pdb
 43 50 0 0 0
SMALL
GASTEIGER

@<TRIPOS>ATOM
      1 FE         17.7450    7.5020   20.2920 Fe    147  HEM147      0.0000
      2  CHA       16.7080    9.5300   17.6610 C.2   147  HEM147      0.0000
      3  CHB       14.6090    7.7440   21.6580 C.2   147  HEM147      0.0000
      4  CHC       19.0020    6.6430   23.3710 C.2   147  HEM147      0.0000
      5  CHD       20.9270    7.6030   19.0380 C.2   147  HEM147      0.0000
      6  NA        16.0360    8.4040   19.7570 N.2   147  HEM147      0.0000
      7  C1A       15.7600    9.1680   18.6140 C.2   147  HEM147      0.0000
      8  C2A       14.3480    9.5140   18.5410 C.2   147  HEM147      0.0000
      9  C3A       13.7680    8.9810   19.6360 C.2   147  HEM147      0.0000
     10  C4A       14.8050    8.3310   20.4070 C.2   147  HEM147      0.0000
     11  CMA       12.2760    9.0030   19.9440 C.3   147  HEM147      0.0000
     12  CAA       13.6020   10.3040   17.4620 C.3   147  HEM147      0.0000
     13  CBA       12.9530    9.4070   16.4190 C.3   147  HEM147      0.0000
     14  CGA       13.9680    8.6790   15.5530 C.2   147  HEM147      0.0000
     15  O1A       14.6470    9.3560   14.7490 O.co2 147  HEM147      0.0000
     16  O2A       14.0910    7.4400   15.6790 O.co2 147  HEM147      0.0000
     17  NB        16.9690    7.2090   22.0960 N.ar  147  HEM147      0.0000
     18  C1B       15.6270    7.2140   22.4440 C.ar  147  HEM147      0.0000
     19  C2B       15.4330    6.7740   23.8180 C.ar  147  HEM147      0.0000
     20  C3B       16.6740    6.5890   24.3490 C.ar  147  HEM147      0.0000
     21  C4B       17.6230    6.8530   23.2750 C.ar  147  HEM147      0.0000
     22  CMB       14.0770    6.5190   24.4840 C.3   147  HEM147      0.0000
     23  CAB       17.0000    6.2210   25.6520 C.3   147  HEM147      0.0000
     24  CBB       16.3010    6.6430   26.8460 C.3   147  HEM147      0.0000
     25  NC        19.5490    7.1490   21.0300 N.2   147  HEM147      0.0000
     26  C1C       19.8930    6.7510   22.3160 C.2   147  HEM147      0.0000
     27  C2C       21.3050    6.4160   22.4050 C.2   147  HEM147      0.0000
     28  C3C       21.8670    6.6860   21.1830 C.2   147  HEM147      0.0000
     29  C4C       20.7620    7.1390   20.3420 C.2   147  HEM147      0.0000
     30  CMC       22.0020    5.8240   23.6310 C.3   147  HEM147      0.0000
     31  CAC       23.2010    6.6040   20.7720 C.3   147  HEM147      0.0000
     32  CBC       24.3010    5.9400   21.4300 C.3   147  HEM147      0.0000
     33  ND        18.6120    8.3380   18.6880 N.ar  147  HEM147      0.0000
     34  C1D       19.9340    8.2230   18.2970 C.ar  147  HEM147      0.0000
     35  C2D       20.2030    8.9850   17.0990 C.ar  147  HEM147      0.0000
     36  C3D       19.0510    9.5860   16.7420 C.ar  147  HEM147      0.0000
     37  C4D       18.0510    9.1630   17.7140 C.ar  147  HEM147      0.0000
     38  CMD       21.5450    9.1180   16.3750 C.3   147  HEM147      0.0000
     39  CAD       18.8780   10.5280   15.5480 C.3   147  HEM147      0.0000
     40  CBD       19.1350   11.9860   15.8990 C.3   147  HEM147      0.0000
     41  CGD       18.9440   12.9210   14.7170 C.2   147  HEM147      0.0000
     42  O1D       19.6460   12.7430   13.6970 O.co2 147  HEM147      0.0000
     43  O2D       18.0960   13.8370   14.8080 O.co2 147  HEM147      0.0000
@<TRIPOS>BOND
     1    42    41   ar
     2    41    43   ar
     3    41    40    1
     4    15    14   ar
     5    39    40    1
     6    39    36    1
     7    14    16   ar
     8    14    13    1
     9    38    35    1
    10    13    12    1
    11    36    35   ar
    12    36    37   ar
    13    35    34   ar
    14    12     8    1
    15     2    37    2
    16     2     7    1
    17    37    33   ar
    18    34    33   ar
    19    34     5    2
    20     8     7    1
    21     8     9    2
    22     7     6    2
    23    33     1    1
    24     5    29    1
    25     9    11    1
    26     9    10    1
    27     6     1    1
    28     6    10    1
    29     1    25    1
    30     1    17    1
    31    29    25    2
    32    29    28    1
    33    10     3    2
    34    31    28    1
    35    31    32    1
    36    25    26    1
    37    28    27    2
    38     3    18    1
    39    17    18   ar
    40    17    21   ar
    41    26    27    1
    42    26     4    2
    43    27    30    1
    44    18    19   ar
    45    21     4    1
    46    21    20   ar
    47    19    20   ar
    48    19    22    1
    49    20    23    1
    50    23    24    1
