@<TRIPOS>MOLECULE
2aux_CT1_A_1.pdb
 22 22 0 0 0
SMALL
GASTEIGER

@<TRIPOS>ATOM
      1  C1        13.3290   60.2210   73.6160 C.3   216  CT1216      0.0000
      2  C2        12.9760   61.7130   73.6700 C.3   216  CT1216      0.0001
      3  C3        13.1170   62.2380   75.1410 C.3   216  CT1216      0.0018
      4  C4        14.5180   62.8720   75.3340 C.3   216  CT1216      0.0245
      5  O7        16.8320   63.6100   76.4650 O.3   216  CT1216     -0.2185
      6  N8        13.5090   65.0180   75.9410 N.am  216  CT1216     -0.1678
      7  C9        12.6350   65.5680   76.7950 C.2   216  CT1216      0.4210
      8  O10       12.5200   65.1160   77.9140 O.2   216  CT1216     -0.2246
      9  O11       11.8930   66.6090   76.4110 O.3   216  CT1216     -0.4370
     10  C12       11.0120   67.0890   77.4360 C.3   216  CT1216      0.1747
     11  C13        9.5350   67.0000   76.9360 C.3   216  CT1216      0.0700
     12  C14        9.1450   65.5580   76.5790 C.ar  216  CT1216     -0.0186
     13  C15        8.5670   64.7380   77.5400 C.ar  216  CT1216     -0.0041
     14  C16        8.2130   63.4300   77.2120 C.ar  216  CT1216     -0.0003
     15  C17        8.4410   62.9470   75.9280 C.ar  216  CT1216     -0.0000
     16  C18        9.0160   63.7610   74.9670 C.ar  216  CT1216     -0.0003
     17  C19        9.3690   65.0660   75.2890 C.ar  216  CT1216     -0.0041
     18  C20       11.3380   68.5900   77.7110 C.3   216  CT1216      0.0406
     19  C21       11.4350   69.3290   76.3860 C.3   216  CT1216      0.0037
     20  C22       12.6550   68.7240   78.4560 C.3   216  CT1216      0.0037
     21  C6        15.8720   64.6270   76.5270 C.3   216  CT1216      0.2037
     22  C5        14.4540   63.9950   76.4030 C.3   216  CT1216      0.1316
@<TRIPOS>BOND
     1     1     2    1
     2     2     3    1
     3    16    17   ar
     4    16    15   ar
     5     3     4    1
     6    17    12   ar
     7     4    22    1
     8    15    14   ar
     9     6    22    1
    10     6     7   am
    11    19    18    1
    12    22    21    1
    13     9     7    1
    14     9    10    1
    15     5    21    1
    16    12    11    1
    17    12    13   ar
    18     7     8    2
    19    11    10    1
    20    14    13   ar
    21    10    18    1
    22    18    20    1
