@<TRIPOS>MOLECULE
2auy_MMA_A_1.pdb
 13 13 0 0 0
SMALL
GASTEIGER

@<TRIPOS>ATOM
      1  C1         6.1450   44.5480   29.6470 C.3   302  MMA302      0.2695
      2  C2         5.1770   43.5120   29.0610 C.3   302  MMA302      0.2406
      3  C3         4.8340   43.9020   27.6270 C.3   302  MMA302      0.2198
      4  C4         4.2620   45.3170   27.5950 C.3   302  MMA302      0.2144
      5  C5         5.2550   46.2830   28.2480 C.3   302  MMA302      0.1835
      6  C6         4.7130   47.6950   28.3390 C.3   302  MMA302      0.2142
      7  C7         8.3750   45.3670   29.4000 C.3   302  MMA302      0.1769
      8  O1         7.3080   44.5750   28.8930 O.3   302  MMA302     -0.3259
      9  O2         3.9880   43.4680   29.8400 O.3   302  MMA302     -0.2149
     10  O3         3.8730   42.9790   27.0900 O.3   302  MMA302     -0.2174
     11  O4         4.0200   45.7030   26.2520 O.3   302  MMA302     -0.2176
     12  O5         5.5520   45.8530   29.5970 O.3   302  MMA302     -0.3256
     13  O6         3.4200   47.7080   28.9250 O.3   302  MMA302     -0.2176
@<TRIPOS>BOND
     1    11     4    1
     2    10     3    1
     3     4     3    1
     4     4     5    1
     5     3     2    1
     6     5     6    1
     7     5    12    1
     8     6    13    1
     9     8     7    1
    10     8     1    1
    11     2     1    1
    12     2     9    1
    13    12     1    1
