@<TRIPOS>MOLECULE
2auy_MAN_A_1.pdb
 11 11 0 0 0
SMALL
GASTEIGER

@<TRIPOS>ATOM
      1  C1         4.3530   42.1710   26.0570 C.3   301  MAN301      0.1777
      2  C2         3.1980   41.3500   25.4870 C.3   301  MAN301      0.2141
      3  C3         2.7480   40.2740   26.4850 C.3   301  MAN301      0.2173
      4  C4         3.9380   39.4310   26.9530 C.3   301  MAN301      0.2142
      5  C5         5.0300   40.3550   27.4970 C.3   301  MAN301      0.1810
      6  C6         6.2840   39.6150   27.9250 C.3   301  MAN301      0.2141
      7  O2         3.6020   40.7430   24.2490 O.3   301  MAN301     -0.2176
      8  O3         1.7710   39.4370   25.8860 O.3   301  MAN301     -0.2175
      9  O4         3.5150   38.5360   27.9730 O.3   301  MAN301     -0.2176
     10  O5         5.4120   41.3110   26.4830 O.3   301  MAN301     -0.3481
     11  O6         6.9320   39.0080   26.8170 O.3   301  MAN301     -0.2176
@<TRIPOS>BOND
     1     7     2    1
     2     2     1    1
     3     2     3    1
     4     8     3    1
     5     1    10    1
     6    10     5    1
     7     3     4    1
     8    11     6    1
     9     4     5    1
    10     4     9    1
    11     5     6    1
