@<TRIPOS>MOLECULE
2auy_NAG_A_1.pdb
 14 14 0 0 0
SMALL
GASTEIGER

@<TRIPOS>ATOM
      1  C1         2.7480   40.9560   23.1810 C.3   300  NAG300      0.1665
      2  C2         3.4910   40.6920   21.8670 C.3   300  NAG300      0.1576
      3  C3         2.5270   40.7650   20.6770 C.3   300  NAG300      0.2069
      4  C4         1.2850   39.9020   20.9240 C.3   300  NAG300      0.2134
      5  C5         0.6610   40.2420   22.2800 C.3   300  NAG300      0.1809
      6  C6        -0.5240   39.3620   22.6250 C.3   300  NAG300      0.2141
      7  C7         5.7440   41.3230   21.2660 C.2   300  NAG300      0.2420
      8  C8         6.7850   42.4240   21.1460 C.3   300  NAG300      0.0964
      9  N2         4.5430   41.6800   21.7110 N.am  300  NAG300     -0.2019
     10  O3         3.1910   40.3070   19.5090 O.3   300  NAG300     -0.2184
     11  O4         0.3370   40.1260   19.8920 O.3   300  NAG300     -0.2176
     12  O5         1.6370   40.0630   23.3200 O.3   300  NAG300     -0.3489
     13  O6        -1.3000   39.9320   23.6700 O.3   300  NAG300     -0.2176
     14  O7         6.0300   40.1680   20.9480 O.2   300  NAG300     -0.2733
@<TRIPOS>BOND
     1    10     3    1
     2    11     4    1
     3     3     4    1
     4     3     2    1
     5     4     5    1
     6    14     7    2
     7     8     7    1
     8     7     9   am
     9     9     2    1
    10     2     1    1
    11     5     6    1
    12     5    12    1
    13     6    13    1
    14     1    12    1
