@<TRIPOS>MOLECULE
2auz_CT2_A_1.pdb
 23 24 0 0 0
SMALL
GASTEIGER

@<TRIPOS>ATOM
      1  C1        71.9310  -11.3600  130.4030 C.3   216  CT2216      0.0000
      2  C2        73.3270  -11.5240  130.9980 C.3   216  CT2216      0.0001
      3  C3        73.3640  -10.8950  132.4040 C.3   216  CT2216      0.0018
      4  C4        74.6660  -10.0610  132.5640 C.3   216  CT2216      0.0245
      5  C5        74.9410   -9.8250  134.0420 C.3   216  CT2216      0.1316
      6  N8        74.0240   -8.8620  134.5190 N.am  216  CT2216     -0.1678
      7  C9        73.2030   -9.1470  135.5170 C.2   216  CT2216      0.4209
      8  O10       73.2990  -10.2430  136.0990 O.2   216  CT2216     -0.2246
      9  O11       72.2320   -8.2170  135.8480 O.3   216  CT2216     -0.4405
     10  C12       71.6550   -8.3240  137.1690 C.3   216  CT2216      0.1415
     11  C13       70.6200   -9.5330  137.2620 C.3   216  CT2216      0.0664
     12  C14       69.5960   -9.4640  136.1260 C.ar  216  CT2216     -0.0187
     13  C15       69.8410  -10.1250  134.9260 C.ar  216  CT2216     -0.0041
     14  C16       68.9100  -10.0650  133.8860 C.ar  216  CT2216     -0.0003
     15  C17       67.7300   -9.3400  134.0470 C.ar  216  CT2216     -0.0000
     16  C18       67.4800   -8.6810  135.2410 C.ar  216  CT2216     -0.0003
     17  C19       68.4120   -8.7410  136.2850 C.ar  216  CT2216     -0.0041
     18  C20       72.7530   -8.4540  138.2370 C.3   216  CT2216      0.0405
     19  C21       73.0030   -7.0620  138.7920 C.3   216  CT2216      0.0037
     20  C22       71.8870   -6.1460  138.2580 C.3   216  CT2216      0.0037
     21  C23       70.9370   -7.0090  137.4520 C.3   216  CT2216      0.0405
     22  C6        76.3760   -9.2660  134.2280 C.3   216  CT2216      0.2037
     23  O7        77.2820  -10.0010  133.3910 O.3   216  CT2216     -0.2185
@<TRIPOS>BOND
     1     1     2    1
     2     2     3    1
     3     3     4    1
     4     4     5    1
     5    23    22    1
     6    14    15   ar
     7    14    13   ar
     8     5    22    1
     9     5     6    1
    10    15    16   ar
    11     6     7   am
    12    13    12   ar
    13    16    17   ar
    14     7     9    1
    15     7     8    2
    16     9    10    1
    17    12    17   ar
    18    12    11    1
    19    10    11    1
    20    10    21    1
    21    10    18    1
    22    21    20    1
    23    18    19    1
    24    20    19    1
