@<TRIPOS>MOLECULE
2av0_HEM_A_1.pdb
 43 50 0 0 0
SMALL
GASTEIGER

@<TRIPOS>ATOM
      1 FE         42.8520   -2.1640   20.3280 Fe    147  HEM147      0.0000
      2  CHA       41.9280   -0.5700   17.4190 C.2   147  HEM147      0.0000
      3  CHB       39.6150   -1.8420   21.5100 C.2   147  HEM147      0.0000
      4  CHC       43.8730   -3.4030   23.3630 C.2   147  HEM147      0.0000
      5  CHD       46.0390   -2.5750   19.0570 C.2   147  HEM147      0.0000
      6  NA        41.1390   -1.3620   19.6290 N.2   147  HEM147      0.0000
      7  C1A       40.9350   -0.7700   18.3850 C.2   147  HEM147      0.0000
      8  C2A       39.5490   -0.3770   18.2280 C.2   147  HEM147      0.0000
      9  C3A       38.9170   -0.7190   19.3790 C.2   147  HEM147      0.0000
     10  C4A       39.8970   -1.3120   20.2530 C.2   147  HEM147      0.0000
     11  CMA       37.4270   -0.5620   19.6650 C.3   147  HEM147      0.0000
     12  CAA       38.9270    0.2110   16.9610 C.3   147  HEM147      0.0000
     13  CBA       38.7710   -0.8660   15.8990 C.3   147  HEM147      0.0000
     14  CGA       38.6480   -0.2920   14.5040 C.2   147  HEM147      0.0000
     15  O1A       37.8370    0.6360   14.3120 O.co2 147  HEM147      0.0000
     16  O2A       39.3600   -0.7750   13.5970 O.co2 147  HEM147      0.0000
     17  NB        41.9170   -2.5930   22.0430 N.ar  147  HEM147      0.0000
     18  C1B       40.5640   -2.4440   22.3460 C.ar  147  HEM147      0.0000
     19  C2B       40.2920   -2.8870   23.6890 C.ar  147  HEM147      0.0000
     20  C3B       41.4780   -3.2960   24.2330 C.ar  147  HEM147      0.0000
     21  C4B       42.4970   -3.1010   23.2060 C.ar  147  HEM147      0.0000
     22  CMB       38.8930   -2.9310   24.3080 C.3   147  HEM147      0.0000
     23  CAB       41.7450   -3.8450   25.4920 C.3   147  HEM147      0.0000
     24  CBB       40.9800   -3.7180   26.7000 C.3   147  HEM147      0.0000
     25  NC        44.5780   -2.9030   21.0440 N.2   147  HEM147      0.0000
     26  C1C       44.8290   -3.3270   22.3440 C.2   147  HEM147      0.0000
     27  C2C       46.2420   -3.6290   22.5010 C.2   147  HEM147      0.0000
     28  C3C       46.8540   -3.4330   21.2810 C.2   147  HEM147      0.0000
     29  C4C       45.8040   -2.9970   20.3780 C.2   147  HEM147      0.0000
     30  CMC       46.8900   -4.0400   23.8240 C.3   147  HEM147      0.0000
     31  CAC       48.1990   -3.6130   20.8940 C.3   147  HEM147      0.0000
     32  CBC       49.3420   -3.8630   21.7430 C.3   147  HEM147      0.0000
     33  ND        43.7900   -1.6710   18.6130 N.ar  147  HEM147      0.0000
     34  C1D       45.1140   -1.9010   18.2590 C.ar  147  HEM147      0.0000
     35  C2D       45.4130   -1.2800   16.9920 C.ar  147  HEM147      0.0000
     36  C3D       44.2810   -0.7170   16.5400 C.ar  147  HEM147      0.0000
     37  C4D       43.2550   -0.9730   17.5360 C.ar  147  HEM147      0.0000
     38  CMD       46.7620   -1.2680   16.2840 C.3   147  HEM147      0.0000
     39  CAD       44.1360    0.0890   15.2550 C.3   147  HEM147      0.0000
     40  CBD       44.2880    1.5760   15.5100 C.3   147  HEM147      0.0000
     41  CGD       44.0630    2.4030   14.2620 C.2   147  HEM147      0.0000
     42  O1D       44.8960    2.3280   13.3330 O.co2 147  HEM147      0.0000
     43  O2D       43.0460    3.1220   14.2100 O.co2 147  HEM147      0.0000
@<TRIPOS>BOND
     1    42    41   ar
     2    16    14   ar
     3    43    41   ar
     4    41    40    1
     5    15    14   ar
     6    14    13    1
     7    39    40    1
     8    39    36    1
     9    13    12    1
    10    38    35    1
    11    36    35   ar
    12    36    37   ar
    13    12     8    1
    14    35    34   ar
    15     2    37    2
    16     2     7    1
    17    37    33   ar
    18     8     7    1
    19     8     9    2
    20    34    33   ar
    21    34     5    2
    22     7     6    2
    23    33     1    1
    24     5    29    1
    25     9    11    1
    26     9    10    1
    27     6    10    1
    28     6     1    1
    29    10     3    2
    30     1    25    1
    31     1    17    1
    32    29    25    2
    33    29    28    1
    34    31    28    1
    35    31    32    1
    36    25    26    1
    37    28    27    2
    38     3    18    1
    39    17    18   ar
    40    17    21   ar
    41    26    27    1
    42    26     4    2
    43    18    19   ar
    44    27    30    1
    45    21     4    1
    46    21    20   ar
    47    19    20   ar
    48    19    22    1
    49    20    23    1
    50    23    24    1
