@<TRIPOS>MOLECULE
2av3_HEM_A_1.pdb
 43 50 0 0 0
SMALL
GASTEIGER

@<TRIPOS>ATOM
      1 FE         17.7060    7.5260   20.2000 Fe    147  HEM147      0.0000
      2  CHA       16.7050    9.5300   17.5090 C.2   147  HEM147      0.0000
      3  CHB       14.6180    7.9830   21.6250 C.2   147  HEM147      0.0000
      4  CHC       18.9490    6.5960   23.3010 C.2   147  HEM147      0.0000
      5  CHD       20.9070    7.5860   18.9610 C.2   147  HEM147      0.0000
      6  NA        16.0040    8.4880   19.6340 N.2   147  HEM147      0.0000
      7  C1A       15.7450    9.1980   18.4710 C.2   147  HEM147      0.0000
      8  C2A       14.3300    9.5790   18.4200 C.2   147  HEM147      0.0000
      9  C3A       13.7710    9.1470   19.5760 C.2   147  HEM147      0.0000
     10  C4A       14.8110    8.5060   20.3460 C.2   147  HEM147      0.0000
     11  CMA       12.3050    9.3030   19.9910 C.3   147  HEM147      0.0000
     12  CAA       13.5680   10.3220   17.3160 C.3   147  HEM147      0.0000
     13  CBA       12.8770    9.3720   16.3360 C.3   147  HEM147      0.0000
     14  CGA       13.8630    8.5940   15.4800 C.2   147  HEM147      0.0000
     15  O1A       14.5230    9.2210   14.6250 O.co2 147  HEM147      0.0000
     16  O2A       13.9860    7.3620   15.6670 O.co2 147  HEM147      0.0000
     17  NB        16.9260    7.3110   22.0870 N.ar  147  HEM147      0.0000
     18  C1B       15.5930    7.4240   22.4490 C.ar  147  HEM147      0.0000
     19  C2B       15.3840    7.0060   23.8230 C.ar  147  HEM147      0.0000
     20  C3B       16.6180    6.6890   24.3420 C.ar  147  HEM147      0.0000
     21  C4B       17.5720    6.8890   23.2430 C.ar  147  HEM147      0.0000
     22  CMB       14.0230    6.8920   24.5180 C.3   147  HEM147      0.0000
     23  CAB       16.9410    6.1930   25.6170 C.3   147  HEM147      0.0000
     24  CBB       16.2330    6.4450   26.8460 C.3   147  HEM147      0.0000
     25  NC        19.5180    7.0980   20.9500 N.2   147  HEM147      0.0000
     26  C1C       19.8410    6.6760   22.2250 C.2   147  HEM147      0.0000
     27  C2C       21.2530    6.3560   22.3100 C.2   147  HEM147      0.0000
     28  C3C       21.8090    6.5990   21.0860 C.2   147  HEM147      0.0000
     29  C4C       20.7190    7.0650   20.2460 C.2   147  HEM147      0.0000
     30  CMC       21.9520    5.9180   23.6010 C.3   147  HEM147      0.0000
     31  CAC       23.1440    6.5270   20.6570 C.3   147  HEM147      0.0000
     32  CBC       24.3010    6.2840   21.4700 C.3   147  HEM147      0.0000
     33  ND        18.6090    8.3640   18.5740 N.ar  147  HEM147      0.0000
     34  C1D       19.9460    8.2520   18.2150 C.ar  147  HEM147      0.0000
     35  C2D       20.2460    9.0200   17.0140 C.ar  147  HEM147      0.0000
     36  C3D       19.0870    9.5990   16.6370 C.ar  147  HEM147      0.0000
     37  C4D       18.0590    9.1800   17.5860 C.ar  147  HEM147      0.0000
     38  CMD       21.6250    9.2200   16.3640 C.3   147  HEM147      0.0000
     39  CAD       18.9250   10.5580   15.4730 C.3   147  HEM147      0.0000
     40  CBD       19.2390   11.9810   15.9160 C.3   147  HEM147      0.0000
     41  CGD       18.9710   13.0030   14.8290 C.2   147  HEM147      0.0000
     42  O1D       19.6590   12.9680   13.7910 O.co2 147  HEM147      0.0000
     43  O2D       18.0660   13.8400   15.0140 O.co2 147  HEM147      0.0000
@<TRIPOS>BOND
     1    42    41   ar
     2    15    14   ar
     3    41    43   ar
     4    41    40    1
     5    39    40    1
     6    39    36    1
     7    14    16   ar
     8    14    13    1
     9    13    12    1
    10    38    35    1
    11    36    35   ar
    12    36    37   ar
    13    35    34   ar
    14    12     8    1
    15     2    37    2
    16     2     7    1
    17    37    33   ar
    18    34    33   ar
    19    34     5    2
    20     8     7    1
    21     8     9    2
    22     7     6    2
    23    33     1    1
    24     5    29    1
    25     9    11    1
    26     9    10    1
    27     6     1    1
    28     6    10    1
    29     1    25    1
    30     1    17    1
    31    29    25    2
    32    29    28    1
    33    10     3    2
    34    31    28    1
    35    31    32    1
    36    25    26    1
    37    28    27    2
    38     3    18    1
    39    17    18   ar
    40    17    21   ar
    41    26    27    1
    42    26     4    2
    43    27    30    1
    44    18    19   ar
    45    21     4    1
    46    21    20   ar
    47    19    20   ar
    48    19    22    1
    49    20    23    1
    50    23    24    1
