@<TRIPOS>MOLECULE
2avd_SAM_A_1.pdb
 27 29 0 0 0
SMALL
GASTEIGER

@<TRIPOS>ATOM
      1  N          5.4730    4.3950   25.6980 N.3   501  SAM501     -0.1208
      2  CA         5.5100    5.8810   25.4480 C.3   501  SAM501      0.1952
      3  C          5.7390    6.6200   26.7400 C.2   501  SAM501      0.3819
      4  O          5.7540    5.9900   27.7990 O.co2 501  SAM501     -0.2441
      5  OXT        5.8750    7.8200   26.7560 O.co2 501  SAM501     -0.2441
      6  CB         4.1670    6.3100   24.8880 C.3   501  SAM501      0.0414
      7  CG         3.7430    5.5480   23.6380 C.3   501  SAM501      0.0503
      8  SD         2.3740    6.4260   22.8090 S.3   501  SAM501     -0.1761
      9  CE         1.0060    5.9030   23.8770 C.3   501  SAM501      0.0590
     10  C5'        2.1240    5.3350   21.3790 C.3   501  SAM501      0.0806
     11  C4'        3.2560    5.3820   20.3490 C.3   501  SAM501      0.1622
     12  O4'        3.1240    4.3170   19.4210 O.3   501  SAM501     -0.3153
     13  C3'        3.1630    6.6710   19.5280 C.3   501  SAM501      0.2168
     14  O3'        4.3520    7.4140   19.5980 O.3   501  SAM501     -0.2175
     15  C2'        2.9020    6.1810   18.1030 C.3   501  SAM501      0.2569
     16  O2'        3.5100    6.9150   17.0620 O.3   501  SAM501     -0.2130
     17  C1'        3.5210    4.7970   18.1680 C.3   501  SAM501      0.3185
     18  N9         3.0860    3.8550   17.1110 N.pl3 501  SAM501     -0.1439
     19  C8         1.9010    3.8360   16.4070 C.3   501  SAM501      0.3377
     20  N7         1.9500    2.7760   15.5540 N.2   501  SAM501     -0.2095
     21  C5         3.1540    2.1470   15.6900 C.2   501  SAM501      0.2526
     22  C6         3.7260    1.0190   15.0820 C.2   501  SAM501      0.4393
     23  N6         3.0650    0.3470   14.1260 N.pl3 501  SAM501      0.2180
     24  N1         5.0070    0.6030   15.4540 N.2   501  SAM501      0.0021
     25  C2         5.6950    1.3050   16.4310 C.3   501  SAM501      0.5254
     26  N3         5.1220    2.4040   17.0450 N.2   501  SAM501     -0.0055
     27  C4         3.8640    2.8240   16.6790 C.2   501  SAM501      0.3518
@<TRIPOS>BOND
     1    23    22    1
     2    22    24    2
     3    22    21    1
     4    24    25    1
     5    20    21    2
     6    20    19    1
     7    21    27    1
     8    19    18    1
     9    25    26    1
    10    27    26    2
    11    27    18    1
    12    16    15    1
    13    18    17    1
    14    15    17    1
    15    15    13    1
    16    17    12    1
    17    12    11    1
    18    13    14    1
    19    13    11    1
    20    11    10    1
    21    10     8    1
    22     8     7    1
    23     8     9    1
    24     7     6    1
    25     6     2    1
    26     2     1    1
    27     2     3    1
    28     3     5   ar
    29     3     4   ar
