@<TRIPOS>MOLECULE
2avi_BTN_A_1.pdb
 16 17 0 0 0
SMALL
GASTEIGER

@<TRIPOS>ATOM
      1  C11       -4.6980   31.2410   28.7030 C.2   150  BTN150      0.3649
      2  O11       -3.5320   31.3720   29.1320 O.co2 150  BTN150     -0.2457
      3  O12       -5.5990   32.0690   28.9260 O.co2 150  BTN150     -0.2457
      4  C10       -4.9930   30.0780   27.7910 C.3   150  BTN150      0.1141
      5  C9        -3.7060   29.3480   27.3630 C.3   150  BTN150      0.0118
      6  C8        -3.5810   29.2170   25.8660 C.3   150  BTN150      0.0015
      7  C7        -2.1950   28.8230   25.5090 C.3   150  BTN150      0.0129
      8  C2        -1.6430   29.5840   24.3010 C.3   150  BTN150      0.0729
      9  S1        -2.7540   29.8010   22.8610 S.3   150  BTN150     -0.1369
     10  C6        -1.3920   29.8320   21.6660 C.3   150  BTN150      0.0848
     11  C5        -0.0570   29.3690   22.3540 C.3   150  BTN150      0.1509
     12  N1         0.4530   28.1070   21.8110 N.2   150  BTN150     -0.1859
     13  C3         0.1210   27.0650   22.5340 C.1   150  BTN150      0.2386
     14  O3         0.1560   25.8660   22.2020 O.2   150  BTN150     -0.2023
     15  N2        -0.3290   27.5180   23.7250 N.2   150  BTN150     -0.1860
     16  C4        -0.3240   28.9530   23.8050 C.3   150  BTN150      0.1500
@<TRIPOS>BOND
     1    10    11    1
     2    10     9    1
     3    12    11    1
     4    12    13    2
     5    14    13    2
     6    11    16    1
     7    13    15    2
     8     9     8    1
     9    15    16    1
    10    16     8    1
    11     8     7    1
    12     7     6    1
    13     6     5    1
    14     5     4    1
    15     4     1    1
    16     1     3   ar
    17     1     2   ar
