@<TRIPOS>MOLECULE
2avn_SAI_A_1.pdb
 26 28 0 0 0
SMALL
GASTEIGER

@<TRIPOS>ATOM
      1  N         42.0200   26.5080    8.4580 N.3   1300  SAI1300     0.0000
      2  CA        42.9370   27.5850    8.8460 C.3   1300  SAI1300     0.0000
      3  CB        44.3300   27.3950    8.2630 C.3   1300  SAI1300     0.0000
      4  CG        44.2780   27.3440    6.7430 C.3   1300  SAI1300     0.0000
      5 SE         46.0960   27.1280    5.9750 Se    1300  SAI1300     0.0000
      6  C         42.4140   28.9420    8.4560 C.2   1300  SAI1300     0.0000
      7  O         41.4620   28.9940    7.6260 O.co2 1300  SAI1300     0.0000
      8  OXT       42.9460   29.9560    8.9920 O.co2 1300  SAI1300     0.0000
      9  C5'       46.1450   25.2460    5.3630 C.3   1300  SAI1300     0.0000
     10  C4'       46.3880   24.3200    6.5370 C.3   1300  SAI1300     0.0000
     11  O4'       46.1220   23.0060    6.0620 O.3   1300  SAI1300     0.0000
     12  C3'       47.8320   24.3610    7.0480 C.3   1300  SAI1300     0.0000
     13  O3'       47.9090   24.7430    8.4250 O.3   1300  SAI1300     0.0000
     14  C2'       48.3660   22.9590    6.7340 C.3   1300  SAI1300     0.0000
     15  O2'       49.3300   22.4400    7.6640 O.3   1300  SAI1300     0.0000
     16  C1'       47.0780   22.1370    6.6360 C.3   1300  SAI1300     0.0000
     17  N9        47.2390   20.8760    5.8850 N.pl3 1300  SAI1300     0.5000
     18  C8        48.0810   20.6130    4.8680 C.3   1300  SAI1300     0.0000
     19  N7        47.9510   19.3110    4.5000 N.2   1300  SAI1300     0.0000
     20  C5        47.0050   18.7600    5.2930 C.2   1300  SAI1300     0.0000
     21  C6        46.4550   17.4780    5.3920 C.2   1300  SAI1300     0.0000
     22  N6        46.8420   16.4660    4.5810 N.pl3 1300  SAI1300     0.5000
     23  N1        45.5240   17.2520    6.3390 N.2   1300  SAI1300     0.5000
     24  C2        45.1060   18.2410    7.1590 C.3   1300  SAI1300     0.0000
     25  N3        45.6150   19.4750    7.1060 N.2   1300  SAI1300     0.5000
     26  C4        46.5610   19.7580    6.1680 C.2   1300  SAI1300     0.0000
@<TRIPOS>BOND
     1    19    18    1
     2    19    20    2
     3    22    21    1
     4    18    17    1
     5    20    21    1
     6    20    26    1
     7     9     5    1
     8     9    10    1
     9    21    23    2
    10    17    26    1
    11    17    16    1
    12     5     4    1
    13    11    10    1
    14    11    16    1
    15    26    25    2
    16    23    24    1
    17    10    12    1
    18    16    14    1
    19    14    12    1
    20    14    15    1
    21     4     3    1
    22    12    13    1
    23    25    24    1
    24     7     6   ar
    25     3     2    1
    26     6     2    1
    27     6     8   ar
    28     1     2    1
