@<TRIPOS>MOLECULE
2avo_MK1_B_1.pdb
 45 49 0 0 0
SMALL
GASTEIGER

@<TRIPOS>ATOM
      1  N1        22.5250   34.9020   16.3580 N.3   902  MK1902     -0.2661
      2  C1        21.1430   34.7970   15.6910 C.3   902  MK1902      0.0980
      3  C2        20.3570   33.6320   16.2770 C.3   902  MK1902      0.1527
      4  C3        19.0190   33.6030   15.5830 C.2   902  MK1902      0.2572
      5  O1        18.9240   33.2450   14.3990 O.2   902  MK1902     -0.2718
      6  N2        18.0010   34.0240   16.3140 N.am  902  MK1902     -0.2077
      7  C4        16.5970   34.0720   15.8760 C.3   902  MK1902      0.0788
      8  C5        15.8010   34.6960   17.0450 C.3   902  MK1902      0.0217
      9  C6        16.1210   32.7130   15.5550 C.3   902  MK1902      0.0217
     10  C7        16.4740   34.9770   14.6930 C.3   902  MK1902      0.0217
     11  N3        21.1430   32.3680   16.0110 N.3   902  MK1902     -0.2619
     12  C8        22.4640   32.4830   16.6060 C.3   902  MK1902      0.0901
     13  C9        23.2100   33.6840   16.0630 C.3   902  MK1902      0.0899
     14  C10       20.4760   31.2050   16.5680 C.3   902  MK1902      0.1057
     15  C11       20.6520   29.9560   15.6700 C.3   902  MK1902      0.1684
     16  O2        20.6020   28.7860   16.4750 O.3   902  MK1902     -0.2216
     17  C12       19.5260   29.9070   14.6500 C.3   902  MK1902      0.0438
     18  C13       19.5970   28.7020   13.6700 C.3   902  MK1902      0.0851
     19  C14       18.2770   28.6450   12.8690 C.3   902  MK1902      0.0356
     20  C15       18.2670   27.6110   11.7790 C.ar  902  MK1902     -0.0217
     21  C16       18.3770   26.2530   12.0960 C.ar  902  MK1902     -0.0043
     22  C17       18.4040   25.3120   11.0670 C.ar  902  MK1902     -0.0003
     23  C18       18.2990   25.6990    9.7610 C.ar  902  MK1902     -0.0000
     24  C19       18.1340   27.0410    9.4500 C.ar  902  MK1902     -0.0003
     25  C20       18.1150   27.9830   10.4700 C.ar  902  MK1902     -0.0043
     26  C21       20.7260   28.8310   12.6810 C.2   902  MK1902      0.2416
     27  O3        20.9940   29.9020   12.0950 O.2   902  MK1902     -0.2733
     28  N4        21.4030   27.7200   12.4420 N.am  902  MK1902     -0.2001
     29  C22       22.3540   27.6380   11.3570 C.3   902  MK1902      0.1477
     30  C23       22.2660   26.2860   10.6130 C.3   902  MK1902      0.1802
     31  O4        22.1710   25.2290   11.6020 O.3   902  MK1902     -0.2206
     32  C24       23.6440   26.1880    9.9430 C.3   902  MK1902      0.0611
     33  C25       24.6190   26.9040   10.8570 C.ar  902  MK1902     -0.0218
     34  C26       25.9810   26.8900   10.9960 C.ar  902  MK1902     -0.0044
     35  C27       26.5430   27.6770   11.9590 C.ar  902  MK1902     -0.0003
     36  C28       25.8200   28.5330   12.7630 C.ar  902  MK1902     -0.0003
     37  C29       24.4560   28.5560   12.6350 C.ar  902  MK1902     -0.0029
     38  C30       23.8140   27.7860   11.7220 C.ar  902  MK1902     -0.0040
     39  C31       23.2250   36.0350   15.7360 C.3   902  MK1902      0.1008
     40  C32       22.6540   37.3850   16.1160 C.ar  902  MK1902      0.0130
     41  C33       22.5910   37.7530   17.4880 C.ar  902  MK1902      0.0959
     42  N5        22.0950   39.0100   17.8650 N.ar  902  MK1902     -0.2426
     43  C34       21.6760   39.8080   16.8410 C.ar  902  MK1902      0.0989
     44  C35       21.6790   39.4910   15.5000 C.ar  902  MK1902      0.0204
     45  C36       22.1360   38.2430   15.1600 C.ar  902  MK1902      0.0002
@<TRIPOS>BOND
     1    24    23   ar
     2    24    25   ar
     3    23    22   ar
     4    32    30    1
     5    32    33    1
     6    25    20   ar
     7    30    29    1
     8    30    31    1
     9    33    34   ar
    10    33    38   ar
    11    34    35   ar
    12    22    21   ar
    13    29    38    1
    14    29    28    1
    15    38    37   ar
    16    20    21   ar
    17    20    19    1
    18    35    36   ar
    19    27    26    2
    20    28    26   am
    21    37    36   ar
    22    26    18    1
    23    19    18    1
    24    18    17    1
    25     5     4    2
    26    17    15    1
    27    10     7    1
    28    45    44   ar
    29    45    40   ar
    30    44    43   ar
    31     9     7    1
    32     4     3    1
    33     4     6   am
    34    15    16    1
    35    15    14    1
    36     2     3    1
    37     2     1    1
    38    39    40    1
    39    39     1    1
    40     7     6    1
    41     7     8    1
    42    11     3    1
    43    11    14    1
    44    11    12    1
    45    13     1    1
    46    13    12    1
    47    40    41   ar
    48    43    42   ar
    49    41    42   ar
