@<TRIPOS>MOLECULE
2avs_MK1_B_1.pdb
 45 49 0 0 0
SMALL
GASTEIGER

@<TRIPOS>ATOM
      1  N1        22.4450   34.8440   16.1780 N.3   902  MK1902     -0.2661
      2  C1        21.0910   34.7250   15.5750 C.3   902  MK1902      0.0980
      3  C2        20.2950   33.5670   16.1210 C.3   902  MK1902      0.1527
      4  C3        18.9550   33.5470   15.4590 C.2   902  MK1902      0.2572
      5  O1        18.8220   33.1750   14.2840 O.2   902  MK1902     -0.2718
      6  N2        17.9760   33.9960   16.2110 N.am  902  MK1902     -0.2077
      7  C4        16.5460   34.0910   15.7640 C.3   902  MK1902      0.0788
      8  C5        15.8040   34.6790   16.9650 C.3   902  MK1902      0.0217
      9  C6        16.0250   32.7930   15.4150 C.3   902  MK1902      0.0217
     10  C7        16.4750   35.0410   14.6250 C.3   902  MK1902      0.0217
     11  N3        21.0870   32.3120   15.8580 N.3   902  MK1902     -0.2619
     12  C8        22.4500   32.3980   16.4160 C.3   902  MK1902      0.0901
     13  C9        23.1680   33.6540   15.8720 C.3   902  MK1902      0.0899
     14  C10       20.4550   31.1210   16.4030 C.3   902  MK1902      0.1057
     15  C11       20.6130   29.9120   15.5060 C.3   902  MK1902      0.1684
     16  O2        20.6030   28.7120   16.2840 O.3   902  MK1902     -0.2216
     17  C12       19.4780   29.8040   14.4820 C.3   902  MK1902      0.0438
     18  C13       19.5580   28.6430   13.5010 C.3   902  MK1902      0.0851
     19  C14       18.2620   28.5260   12.6700 C.3   902  MK1902      0.0356
     20  C15       18.2940   27.5220   11.5900 C.ar  902  MK1902     -0.0217
     21  C16       18.4210   26.1680   11.8720 C.ar  902  MK1902     -0.0043
     22  C17       18.4530   25.2370   10.8450 C.ar  902  MK1902     -0.0003
     23  C18       18.3730   25.6420    9.5080 C.ar  902  MK1902     -0.0000
     24  C19       18.2450   27.0060    9.2440 C.ar  902  MK1902     -0.0003
     25  C20       18.1830   27.9270   10.2500 C.ar  902  MK1902     -0.0043
     26  C21       20.7160   28.7700   12.5140 C.2   902  MK1902      0.2416
     27  O3        20.9860   29.8580   11.9420 O.2   902  MK1902     -0.2733
     28  N4        21.3860   27.6660   12.2640 N.am  902  MK1902     -0.2001
     29  C22       22.2740   27.5340   11.1350 C.3   902  MK1902      0.1477
     30  C23       22.1980   26.2110   10.4130 C.3   902  MK1902      0.1802
     31  O4        22.1160   25.1530   11.3660 O.3   902  MK1902     -0.2206
     32  C24       23.5390   26.1090    9.6840 C.3   902  MK1902      0.0611
     33  C25       24.5400   26.8250   10.5540 C.ar  902  MK1902     -0.0218
     34  C26       25.9030   26.8170   10.6690 C.ar  902  MK1902     -0.0044
     35  C27       26.5310   27.5940   11.6000 C.ar  902  MK1902     -0.0003
     36  C28       25.8220   28.4500   12.4520 C.ar  902  MK1902     -0.0003
     37  C29       24.4400   28.4810   12.3620 C.ar  902  MK1902     -0.0029
     38  C30       23.7590   27.7090   11.4620 C.ar  902  MK1902     -0.0040
     39  C31       23.1370   36.0060   15.5760 C.3   902  MK1902      0.1008
     40  C32       22.5420   37.3420   15.9960 C.ar  902  MK1902      0.0130
     41  C33       22.4430   37.6860   17.3480 C.ar  902  MK1902      0.0959
     42  N5        21.9150   38.8730   17.7980 N.ar  902  MK1902     -0.2426
     43  C34       21.5130   39.7450   16.8190 C.ar  902  MK1902      0.0989
     44  C35       21.6110   39.4840   15.4540 C.ar  902  MK1902      0.0204
     45  C36       22.1070   38.2470   15.0610 C.ar  902  MK1902      0.0002
@<TRIPOS>BOND
     1    24    23   ar
     2    24    25   ar
     3    23    22   ar
     4    32    30    1
     5    32    33    1
     6    25    20   ar
     7    30    29    1
     8    30    31    1
     9    33    34   ar
    10    33    38   ar
    11    34    35   ar
    12    22    21   ar
    13    29    38    1
    14    29    28    1
    15    38    37   ar
    16    20    21   ar
    17    20    19    1
    18    35    36   ar
    19    27    26    2
    20    28    26   am
    21    37    36   ar
    22    26    18    1
    23    19    18    1
    24    18    17    1
    25     5     4    2
    26    17    15    1
    27    10     7    1
    28    45    44   ar
    29    45    40   ar
    30     9     7    1
    31    44    43   ar
    32     4     3    1
    33     4     6   am
    34    15    16    1
    35    15    14    1
    36     2     3    1
    37     2     1    1
    38    39    40    1
    39    39     1    1
    40     7     6    1
    41     7     8    1
    42    11     3    1
    43    11    14    1
    44    11    12    1
    45    13     1    1
    46    13    12    1
    47    40    41   ar
    48    43    42   ar
    49    41    42   ar
