@<TRIPOS>MOLECULE
2avv_MK1_A_1.pdb
 45 49 0 0 0
SMALL
GASTEIGER

@<TRIPOS>ATOM
      1  N1        43.7120   -1.4230   31.4980 N.3   901  MK1901     -0.2661
      2  C1        42.3520   -1.4540   30.9100 C.3   901  MK1901      0.0980
      3  C2        41.4790   -2.6770   31.0670 C.3   901  MK1901      0.1527
      4  C3        40.1260   -2.3580   30.5280 C.2   901  MK1901      0.2572
      5  O1        39.9420   -2.1880   29.3280 O.2   901  MK1901     -0.2718
      6  N2        39.1570   -2.2680   31.4390 N.am  901  MK1901     -0.2077
      7  C4        37.7760   -2.0120   31.1500 C.3   901  MK1901      0.0788
      8  C5        37.0010   -1.9000   32.4660 C.3   901  MK1901      0.0217
      9  C6        37.2200   -2.9710   30.3140 C.3   901  MK1901      0.0217
     10  C7        37.6100   -0.7030   30.5250 C.3   901  MK1901      0.0217
     11  N3        42.2790   -3.7570   30.3990 N.3   901  MK1901     -0.2619
     12  C8        43.7330   -3.7770   30.7560 C.3   901  MK1901      0.0901
     13  C9        44.4420   -2.4460   30.8830 C.3   901  MK1901      0.0899
     14  C10       41.7500   -5.1150   30.5270 C.3   901  MK1901      0.1057
     15  C11       41.6310   -5.8090   29.1750 C.3   901  MK1901      0.1684
     16  O2        41.4230   -7.0990   29.6660 O.3   901  MK1901     -0.2216
     17  C12       40.4730   -5.4600   28.2090 C.3   901  MK1901      0.0438
     18  C13       40.5120   -6.0430   26.7850 C.3   901  MK1901      0.0851
     19  C14       39.2630   -5.6280   25.9800 C.3   901  MK1901      0.0356
     20  C15       39.2850   -6.2760   24.6440 C.ar  901  MK1901     -0.0217
     21  C16       39.2760   -7.6640   24.4820 C.ar  901  MK1901     -0.0043
     22  C17       39.3360   -8.2140   23.2130 C.ar  901  MK1901     -0.0003
     23  C18       39.3930   -7.3520   22.1240 C.ar  901  MK1901     -0.0000
     24  C19       39.3970   -5.9670   22.2830 C.ar  901  MK1901     -0.0003
     25  C20       39.3420   -5.4240   23.5580 C.ar  901  MK1901     -0.0043
     26  C21       41.7430   -5.5970   26.0060 C.2   901  MK1901      0.2416
     27  O3        42.0670   -4.3990   25.9790 O.2   901  MK1901     -0.2733
     28  N4        42.4210   -6.5740   25.3980 N.am  901  MK1901     -0.2001
     29  C22       43.3660   -6.3050   24.3360 C.3   901  MK1901      0.1477
     30  C23       43.2430   -7.2870   23.1720 C.3   901  MK1901      0.1802
     31  O4        43.2270   -8.6020   23.7050 O.3   901  MK1901     -0.2206
     32  C24       44.4930   -6.9930   22.3560 C.3   901  MK1901      0.0611
     33  C25       45.6480   -6.8310   23.3350 C.ar  901  MK1901     -0.0218
     34  C26       47.0150   -6.9770   23.3500 C.ar  901  MK1901     -0.0044
     35  C27       47.6590   -6.7450   24.5630 C.ar  901  MK1901     -0.0003
     36  C28       46.9760   -6.3750   25.7240 C.ar  901  MK1901     -0.0003
     37  C29       45.6030   -6.1970   25.7540 C.ar  901  MK1901     -0.0029
     38  C30       44.8830   -6.4030   24.6200 C.ar  901  MK1901     -0.0040
     39  C31       44.3910   -0.1400   31.6170 C.3   901  MK1901      0.1008
     40  C32       43.7530    1.0810   32.2830 C.ar  901  MK1901      0.0130
     41  C33       43.2840    1.0650   33.6030 C.ar  901  MK1901      0.0959
     42  N5        42.7200    2.1460   34.3060 N.ar  901  MK1901     -0.2426
     43  C34       42.6800    3.2960   33.5120 C.ar  901  MK1901      0.0989
     44  C35       43.1230    3.3780   32.1890 C.ar  901  MK1901      0.0204
     45  C36       43.6570    2.2530   31.5730 C.ar  901  MK1901      0.0002
@<TRIPOS>BOND
     1    23    24   ar
     2    23    22   ar
     3    24    25   ar
     4    32    30    1
     5    32    33    1
     6    30    31    1
     7    30    29    1
     8    22    21   ar
     9    33    34   ar
    10    33    38   ar
    11    34    35   ar
    12    25    20   ar
    13    29    38    1
    14    29    28    1
    15    21    20   ar
    16    35    36   ar
    17    38    37   ar
    18    20    19    1
    19    28    26   am
    20    36    37   ar
    21    27    26    2
    22    19    18    1
    23    26    18    1
    24    18    17    1
    25    17    15    1
    26    15    16    1
    27    15    14    1
    28     5     4    2
    29     9     7    1
    30    11    14    1
    31    11    12    1
    32    11     3    1
    33    10     7    1
    34     4     3    1
    35     4     6   am
    36    12    13    1
    37    13     1    1
    38     2     3    1
    39     2     1    1
    40     7     6    1
    41     7     8    1
    42     1    39    1
    43    45    44   ar
    44    45    40   ar
    45    39    40    1
    46    44    43   ar
    47    40    41   ar
    48    43    42   ar
    49    41    42   ar
