@<TRIPOS>MOLECULE
2avx_HTF_A_1.pdb
 37 37 0 0 0
SMALL
GASTEIGER

@<TRIPOS>ATOM
      1  C8        -4.1370   -9.1090   -7.5170 C.3   172  HTF172     -0.0653
      2  C7        -3.5230   -7.7270   -7.2820 C.3   172  HTF172     -0.0559
      3  C6        -3.1600   -7.5200   -5.8030 C.3   172  HTF172     -0.0533
      4  C5        -2.8550   -6.0450   -5.4740 C.3   172  HTF172     -0.0531
      5  C4        -1.6730   -5.8340   -4.5020 C.3   172  HTF172     -0.0526
      6  C3        -0.3620   -5.4310   -5.2070 C.3   172  HTF172     -0.0448
      7  C2         0.2420   -6.5470   -6.0770 C.3   172  HTF172      0.0240
      8  C1         1.0850   -6.0380   -7.2420 C.2   172  HTF172      0.2137
      9  O1         0.5440   -5.8410   -8.3300 O.2   172  HTF172     -0.2758
     10  N          2.3930   -5.8600   -7.0350 N.am  172  HTF172     -0.3023
     11  CA         3.4120   -5.5490   -8.0570 C.3   172  HTF172      0.1235
     12  C          4.7480   -4.9900   -7.5670 C.2   172  HTF172      0.3278
     13  O          5.2730   -5.2930   -6.4970 O.2   172  HTF172     -0.2487
     14  OD         5.2260   -4.1360   -8.4550 O.3   172  HTF172     -0.4633
     15  CG         4.3760   -4.0610   -9.5840 C.3   172  HTF172      0.0947
     16  CB         3.0000   -4.4610   -9.0520 C.3   172  HTF172      0.0103
     17  H81       -3.5570   -9.8720   -6.9990 H     172  HTF172      0.0230
     18  H82       -4.1520   -9.3260   -8.5860 H     172  HTF172      0.0230
     19  H83       -5.1570   -9.1230   -7.1380 H     172  HTF172      0.0230
     20  H72       -2.6200   -7.6250   -7.8870 H     172  HTF172      0.0263
     21  H73       -4.2450   -6.9760   -7.5980 H     172  HTF172      0.0263
     22  H62       -3.9930   -7.8420   -5.1850 H     172  HTF172      0.0265
     23  H63       -2.3070   -8.1550   -5.5610 H     172  HTF172      0.0265
     24  H52       -2.6670   -5.4920   -6.3930 H     172  HTF172      0.0265
     25  H53       -3.7510   -5.6100   -5.0290 H     172  HTF172      0.0265
     26  H42       -1.9380   -5.0250   -3.8190 H     172  HTF172      0.0265
     27  H43       -1.5120   -6.7260   -3.8940 H     172  HTF172      0.0265
     28  H32       -0.5520   -4.5480   -5.8180 H     172  HTF172      0.0270
     29  H33        0.3720   -5.1440   -4.4530 H     172  HTF172      0.0270
     30  H22        0.8450   -7.1920   -5.4440 H     172  HTF172      0.0358
     31  H23       -0.5430   -7.1550   -6.5150 H     172  HTF172      0.0358
     32  HN         2.7470   -6.1840   -6.1400 H     172  HTF172      0.1495
     33  HA         3.6460   -6.4600   -8.6090 H     172  HTF172      0.0615
     34  HG2        4.3620   -3.0680  -10.0310 H     172  HTF172      0.0698
     35  HG3        4.7050   -4.7950  -10.3200 H     172  HTF172      0.0698
     36  HB2        2.5410   -3.6180   -8.5340 H     172  HTF172      0.0321
     37  HB3        2.3590   -4.8290   -9.8500 H     172  HTF172      0.0321
@<TRIPOS>BOND
     1    35    15    1
     2    34    15    1
     3    37    16    1
     4    15    16    1
     5    15    14    1
     6    16    36    1
     7    16    11    1
     8    33    11    1
     9    18     1    1
    10    14    12    1
    11     9     8    2
    12    11    12    1
    13    11    10    1
    14    20     2    1
    15    21     2    1
    16    12    13    2
    17     1     2    1
    18     1    19    1
    19     1    17    1
    20     2     3    1
    21     8    10   am
    22     8     7    1
    23    10    32    1
    24    31     7    1
    25    24     4    1
    26     7    30    1
    27     7     6    1
    28    28     6    1
    29     3    23    1
    30     3     4    1
    31     3    22    1
    32     4    25    1
    33     4     5    1
    34     6     5    1
    35     6    29    1
    36     5    27    1
    37     5    26    1
