@<TRIPOS>MOLECULE
2aw1_HGB_A_1.pdb
 10 10 0 0 0
SMALL
GASTEIGER

@<TRIPOS>ATOM
      1  C1         0.2360   12.8560   29.9020 C.2   263  HGB263      0.0000
      2  C3        -0.6830   11.0230   28.5370 C.ar  263  HGB263      0.0000
      3  C5        -1.1830   10.5400   27.3070 C.ar  263  HGB263      0.0000
      4  C7        -1.2630   11.3930   26.1840 C.ar  263  HGB263      0.0000
      5 HG         -1.9810   10.6610   24.4200 Hg    263  HGB263      0.0000
      6  C6        -0.8540   12.7390   26.2990 C.ar  263  HGB263      0.0000
      7  C4        -0.3530   13.2240   27.5290 C.ar  263  HGB263      0.0000
      8  O1         0.6000   14.0210   30.0130 O.co2 263  HGB263      0.0000
      9  O2         0.3100   12.1110   30.8850 O.co2 263  HGB263      0.0000
     10  C2        -0.2730   12.3720   28.6610 C.ar  263  HGB263      0.0000
@<TRIPOS>BOND
     1     5     4    1
     2     4     6   ar
     3     4     3   ar
     4     6     7   ar
     5     3     2   ar
     6     7    10   ar
     7     2    10   ar
     8    10     1    1
     9     1     8   ar
    10     1     9   ar
