@<TRIPOS>MOLECULE
2aw1_COX_A_1.pdb
 22 24 0 0 0
SMALL
GASTEIGER

@<TRIPOS>ATOM
      1  S1        -5.7340    0.9590   16.4520 S.O2  264  COX264      0.0935
      2  O1        -7.2960    1.0600   16.2460 O.2   264  COX264     -0.1503
      3  O2        -5.1630    1.1480   17.9040 O.2   264  COX264     -0.1503
      4  N1        -5.1870   -0.5400   15.8630 N.3   264  COX264      0.0392
      5  C1        -5.0120    2.2420   15.5120 C.ar  264  COX264      0.1250
      6  C2        -5.8510    3.1310   14.7850 C.ar  264  COX264      0.0200
      7  C3        -5.2550    4.1820   14.0460 C.ar  264  COX264      0.0015
      8  C4        -3.8200    4.3800   14.0120 C.ar  264  COX264      0.0043
      9  C5        -3.0190    3.4480   14.7660 C.ar  264  COX264      0.0015
     10  C6        -3.6040    2.3910   15.5050 C.ar  264  COX264      0.0200
     11  C7        -3.2270    5.4750   13.2660 C.ar  264  COX264      0.0537
     12  C8        -2.0250    5.4500   12.4870 C.ar  264  COX264      0.1547
     13  C9        -1.0300    4.3420   12.1790 C.3   264  COX264      0.0754
     14  O3        -1.7770    6.6960   11.9560 O.2   264  COX264     -0.3578
     15  N2        -2.7450    7.4750   12.3470 N.ar  264  COX264     -0.0774
     16  C10       -3.6830    6.8460   13.1400 C.ar  264  COX264      0.1225
     17  C11       -4.8610    7.5220   13.6350 C.ar  264  COX264      0.0209
     18  C12       -5.8290    8.0660   12.7240 C.ar  264  COX264      0.0016
     19  C13       -6.9920    8.7250   13.1870 C.ar  264  COX264      0.0000
     20  C14       -7.2180    8.8560   14.5800 C.ar  264  COX264      0.0000
     21  C15       -6.2850    8.3340   15.5100 C.ar  264  COX264      0.0000
     22  C16       -5.1220    7.6750   15.0470 C.ar  264  COX264      0.0016
@<TRIPOS>BOND
     1    14    15   ar
     2    14    12   ar
     3    13    12    1
     4    15    16   ar
     5    12    11   ar
     6    18    19   ar
     7    18    17   ar
     8    16    11   ar
     9    16    17    1
    10    19    20   ar
    11    11     8    1
    12    17    22   ar
    13     8     7   ar
    14     8     9   ar
    15     7     6   ar
    16    20    21   ar
    17     9    10   ar
    18     6     5   ar
    19    22    21   ar
    20    10     5   ar
    21     5     1    1
    22     4     1    1
    23     2     1    2
    24     1     3    2
