@<TRIPOS>MOLECULE
2awh_B7G_A_1.pdb
 19 19 0 0 0
SMALL
GASTEIGER

@<TRIPOS>ATOM
      1  C5        -3.4510   -7.3280   22.8390 C.3   1920  B7G1920     0.1835
      2  O5        -2.9380   -8.0380   21.6790 O.3   1920  B7G1920    -0.3256
      3  C1        -3.7680   -8.1500   20.5000 C.3   1920  B7G1920     0.2695
      4  C2        -5.1890   -8.6260   20.8560 C.3   1920  B7G1920     0.2406
      5  C3        -5.7850   -7.6490   21.8600 C.3   1920  B7G1920     0.2198
      6  C4        -4.9450   -7.5820   23.1300 C.3   1920  B7G1920     0.2144
      7  C6        -2.6140   -7.7290   24.0580 C.3   1920  B7G1920     0.2142
      8  O1        -3.2150   -9.1370   19.6370 O.3   1920  B7G1920    -0.3286
      9  C7        -2.0610   -8.7320   18.8980 C.3   1920  B7G1920     0.1449
     10  C8        -1.3750  -10.0100   18.4340 C.3   1920  B7G1920     0.0322
     11  C9        -0.3530   -9.6620   17.3660 C.3   1920  B7G1920     0.0026
     12  C10        0.9950   -9.8400   18.0150 C.3   1920  B7G1920     0.0001
     13  C11        2.1230   -9.8300   17.0010 C.3   1920  B7G1920     0.0000
     14  C12        3.4270   -9.5990   17.7470 C.3   1920  B7G1920     0.0000
     15  O2        -6.0440   -8.6820   19.7010 O.3   1920  B7G1920    -0.2149
     16  O3        -7.1250   -8.0250   22.1910 O.3   1920  B7G1920    -0.2174
     17  O4        -5.4890   -6.5110   23.9030 O.3   1920  B7G1920    -0.2176
     18  O6        -1.2550   -7.3210   23.8580 O.3   1920  B7G1920    -0.2176
     19  C13        3.6790  -10.6610   18.7930 C.3   1920  B7G1920     0.0000
@<TRIPOS>BOND
     1    13    14    1
     2    13    12    1
     3    11    12    1
     4    11    10    1
     5    14    19    1
     6    10     9    1
     7     9     8    1
     8     8     3    1
     9    15     4    1
    10     3     4    1
    11     3     2    1
    12     4     5    1
    13     2     1    1
    14     5    16    1
    15     5     6    1
    16     1     6    1
    17     1     7    1
    18     6    17    1
    19    18     7    1
