@<TRIPOS>MOLECULE
2awh_VCA_A_1.pdb
 20 19 0 0 0
SMALL
GASTEIGER

@<TRIPOS>ATOM
      1  O2        -2.0290    5.6380   37.4750 O.co2 1001  VCA1001    -0.2457
      2  C1        -3.1240    6.1180   37.8400 C.2   1001  VCA1001     0.3649
      3  O1        -4.1760    5.4760   38.0470 O.co2 1001  VCA1001    -0.2457
      4  C2        -3.1820    7.6320   38.0510 C.3   1001  VCA1001     0.1141
      5  C3        -4.0020    7.9810   39.2950 C.3   1001  VCA1001     0.0118
      6  C4        -3.5370    7.1690   40.5050 C.3   1001  VCA1001     0.0006
      7  C5        -4.5160    7.3130   41.6710 C.3   1001  VCA1001     0.0000
      8  C6        -3.7940    7.7720   42.9400 C.3   1001  VCA1001     0.0000
      9  C7        -3.1730    6.5840   43.6770 C.3   1001  VCA1001     0.0000
     10  C8        -1.6510    6.7220   43.7560 C.3   1001  VCA1001     0.0003
     11  C9        -1.2540    7.9120   44.6330 C.3   1001  VCA1001     0.0047
     12  C10        0.2310    7.8500   44.9990 C.3   1001  VCA1001     0.0257
     13  C11        1.0270    7.9050   43.8610 C.2   1001  VCA1001    -0.0307
     14  C12        1.9530    8.9310   43.7100 C.2   1001  VCA1001    -0.0307
     15  C13        2.0820    9.9020   44.6970 C.3   1001  VCA1001     0.0257
     16  C14        2.0900   11.3050   44.0870 C.3   1001  VCA1001     0.0047
     17  C15        1.2960   12.2840   44.9550 C.3   1001  VCA1001     0.0003
     18  C16        1.6250   13.7320   44.5880 C.3   1001  VCA1001     0.0000
     19  C17        0.5620   14.6900   45.1320 C.3   1001  VCA1001     0.0000
     20  C18        0.8460   16.1290   44.6950 C.3   1001  VCA1001     0.0000
@<TRIPOS>BOND
     1     1     2   ar
     2     2     3   ar
     3     2     4    1
     4     4     5    1
     5     5     6    1
     6     6     7    1
     7     7     8    1
     8     8     9    1
     9     9    10    1
    10    14    13    2
    11    14    15    1
    12    10    11    1
    13    13    12    1
    14    16    15    1
    15    16    17    1
    16    18    17    1
    17    18    19    1
    18    11    12    1
    19    20    19    1
