@<TRIPOS>MOLECULE
2awn_ADP_A_1.pdb
 27 29 0 0 0
SMALL
GASTEIGER

@<TRIPOS>ATOM
      1  PB        24.6790   -9.3560   18.1740 P.3   401  ADP401      0.5373
      2  O1B       25.1090   -8.6600   16.8560 O.2   401  ADP401     -0.2221
      3  O2B       24.5310   -8.3350   19.2480 O.3   401  ADP401     -0.1143
      4  O3B       23.4930  -10.2550   18.0410 O.3   401  ADP401     -0.1143
      5  PA        27.3690  -10.3970   18.3330 P.3   401  ADP401      0.2231
      6  O1A       28.2890  -10.3250   19.4970 O.3   401  ADP401     -0.4370
      7  O2A       27.5430  -11.0250   16.9930 O.2   401  ADP401     -0.5169
      8  O3A       25.8880  -10.2240   18.7910 O.3   401  ADP401     -0.2261
      9  O5'       27.3390  -11.8750   18.9840 O.3   401  ADP401     -0.3111
     10  C5'       26.5690  -13.0260   18.4650 C.3   401  ADP401      0.1813
     11  C4'       27.2900  -13.8600   17.3450 C.3   401  ADP401      0.1821
     12  O4'       28.7460  -13.9460   17.5300 O.3   401  ADP401     -0.3135
     13  C3'       26.8850  -15.3310   17.1900 C.3   401  ADP401      0.2184
     14  O3'       27.0300  -15.6760   15.7910 O.3   401  ADP401     -0.2174
     15  C2'       27.8440  -16.0250   18.1580 C.3   401  ADP401      0.2570
     16  O2'       28.0540  -17.4130   17.8600 O.3   401  ADP401     -0.2130
     17  C1'       29.1540  -15.2390   17.9980 C.3   401  ADP401      0.3186
     18  N9        29.9040  -15.1280   19.3100 N.pl3 401  ADP401     -0.1439
     19  C8        29.8850  -14.1010   20.1980 C.3   401  ADP401      0.3377
     20  N7        30.6670  -14.3060   21.2760 N.2   401  ADP401     -0.2095
     21  C5        31.2060  -15.5280   21.0520 C.2   401  ADP401      0.2526
     22  C6        32.1340  -16.3170   21.8390 C.2   401  ADP401      0.4393
     23  N6        32.6450  -15.9730   22.9710 N.pl3 401  ADP401      0.2180
     24  N1        32.4590  -17.5410   21.2680 N.2   401  ADP401      0.0021
     25  C2        31.9480  -17.9840   20.0470 C.3   401  ADP401      0.5254
     26  N3        31.0940  -17.2700   19.3090 N.2   401  ADP401     -0.0055
     27  C4        30.7520  -16.0630   19.8400 C.2   401  ADP401      0.3518
@<TRIPOS>BOND
     1    14    13    1
     2     2     1    2
     3     7     5    2
     4    13    11    1
     5    13    15    1
     6    11    12    1
     7    11    10    1
     8    12    17    1
     9    16    15    1
    10    17    15    1
    11    17    18    1
    12     4     1    1
    13     1     8    1
    14     1     3    1
    15     5     8    1
    16     5     9    1
    17     5     6    1
    18    10     9    1
    19    26    27    2
    20    26    25    1
    21    18    27    1
    22    18    19    1
    23    27    21    1
    24    25    24    1
    25    19    20    1
    26    21    20    2
    27    21    22    1
    28    24    22    2
    29    22    23    1
