@<TRIPOS>MOLECULE
2awo_ADP_A_1.pdb
 27 29 0 0 0
SMALL
GASTEIGER

@<TRIPOS>ATOM
      1  PB        24.5100   -9.0960   18.3740 P.3   401  ADP401      0.5373
      2  O1B       24.4660   -8.4200   17.0370 O.2   401  ADP401     -0.2221
      3  O2B       24.7890   -8.1010   19.5510 O.3   401  ADP401     -0.1143
      4  O3B       23.3490   -9.9610   18.6930 O.3   401  ADP401     -0.1143
      5  PA        27.0210  -10.1680   19.1680 P.3   401  ADP401      0.2231
      6  O1A       26.8800  -11.0180   20.3770 O.3   401  ADP401     -0.4370
      7  O2A       28.2700   -9.7710   18.4400 O.2   401  ADP401     -0.5169
      8  O3A       25.7350  -10.1060   18.2860 O.3   401  ADP401     -0.2261
      9  O5'       27.1260  -11.6880   18.6020 O.3   401  ADP401     -0.3111
     10  C5'       27.3360  -12.0210   17.1790 C.3   401  ADP401      0.1813
     11  C4'       27.8590  -13.4520   16.8660 C.3   401  ADP401      0.1821
     12  O4'       29.1950  -13.6790   17.3750 O.3   401  ADP401     -0.3135
     13  C3'       27.0140  -14.6340   17.3790 C.3   401  ADP401      0.2184
     14  O3'       26.3110  -15.1460   16.2290 O.3   401  ADP401     -0.2174
     15  C2'       28.0110  -15.6300   17.9910 C.3   401  ADP401      0.2570
     16  O2'       28.1350  -16.8290   17.2160 O.3   401  ADP401     -0.2130
     17  C1'       29.3560  -14.9340   18.0110 C.3   401  ADP401      0.3186
     18  N9        29.9110  -14.7560   19.4000 N.pl3 401  ADP401     -0.1439
     19  C8        29.7110  -13.7160   20.2500 C.3   401  ADP401      0.3377
     20  N7        30.3610  -13.8520   21.4210 N.2   401  ADP401     -0.2095
     21  C5        31.0030  -15.0410   21.2940 C.2   401  ADP401      0.2526
     22  C6        31.8780  -15.7550   22.2050 C.2   401  ADP401      0.4393
     23  N6        32.2300  -15.3630   23.3800 N.pl3 401  ADP401      0.2180
     24  N1        32.3450  -16.9630   21.7030 N.2   401  ADP401      0.0021
     25  C2        32.0110  -17.4540   20.4410 C.3   401  ADP401      0.5254
     26  N3        31.2090  -16.8050   19.5920 N.2   401  ADP401     -0.0055
     27  C4        30.7350  -15.6220   20.0500 C.2   401  ADP401      0.3518
@<TRIPOS>BOND
     1    14    13    1
     2    11    10    1
     3    11    12    1
     4    11    13    1
     5     2     1    2
     6    10     9    1
     7    16    15    1
     8    12    17    1
     9    13    15    1
    10    15    17    1
    11    17    18    1
    12     8     1    1
    13     8     5    1
    14     1     4    1
    15     1     3    1
    16     7     5    2
    17     9     5    1
    18     5     6    1
    19    18    27    1
    20    18    19    1
    21    26    27    2
    22    26    25    1
    23    27    21    1
    24    19    20    1
    25    25    24    1
    26    21    20    2
    27    21    22    1
    28    24    22    2
    29    22    23    1
