@<TRIPOS>MOLECULE
2aww_III_C_1.pdb
 25 24 0 0 0
SMALL
GASTEIGER

@<TRIPOS>ATOM
      1  N         18.5970    4.1710   12.1100 N.3    15  ALA15      -0.1231
      2  CA        19.3120    3.2850   13.0870 C.3    15  ALA15       0.1694
      3  C         20.4750    3.9860   13.8360 C.2    15  ALA15       0.2593
      4  O         21.6330    3.9050   13.4130 O.2    15  ALA15      -0.2718
      5  CB        19.7860    1.9990   12.3870 C.3    15  ALA15       0.0304
      6  N         20.1550    4.6780   14.9380 N.am   16  THR16      -0.1939
      7  CA        21.1500    5.4140   15.7570 C.3    16  THR16       0.2028
      8  C         22.0780    4.4830   16.5190 C.2    16  THR16       0.2643
      9  O         21.6170    3.5990   17.2430 O.2    16  THR16      -0.2714
     10  CB        20.4880    6.2970   16.8390 C.3    16  THR16       0.1808
     11  OG1       19.3130    6.9110   16.3190 O.3    16  THR16      -0.2208
     12  CG2       21.4360    7.3710   17.3170 C.3    16  THR16       0.0379
     13  N         23.3820    4.7100   16.3680 N.am   17  GLY17      -0.1939
     14  CA        24.4030    4.0570   17.1770 C.3    17  GLY17       0.2014
     15  C         24.7220    4.9110   18.3850 C.2    17  GLY17       0.2639
     16  O         25.0870    6.0750   18.2530 O.2    17  GLY17      -0.2714
     17  N         24.5730    4.3310   19.5670 N.am   18  LEU18      -0.1941
     18  CA        24.9420    4.9860   20.8210 C.3    18  LEU18       0.1978
     19  C         25.8140    4.0590   21.7020 C.2    18  LEU18       0.3842
     20  O         26.5410    3.1500   21.2540 O.co2  18  LEU18      -0.2437
     21  CB        23.6810    5.3940   21.6140 C.3    18  LEU18       0.0333
     22  CG        22.3000    5.0630   21.0490 C.3    18  LEU18       0.0023
     23  CD1       22.0120    3.5790   21.2590 C.3    18  LEU18       0.0001
     24  CD2       21.2370    5.9280   21.7170 C.3    18  LEU18       0.0001
     25  OXT       25.7890    4.2090   22.9290 O.co2  18  LEU18      -0.2437
@<TRIPOS>BOND
     1     1     2    1
     2     5     2    1
     3     2     3    1
     4     4     3    2
     5     3     6   am
     6     6     7    1
     7     7     8    1
     8     7    10    1
     9    11    10    1
    10    13     8   am
    11    13    14    1
    12     8     9    2
    13    10    12    1
    14    14    15    1
    15    16    15    2
    16    15    17   am
    17    17    18    1
    18    18    21    1
    19    18    19    1
    20    22    23    1
    21    22    21    1
    22    22    24    1
    23    20    19   ar
    24    19    25   ar
