@<TRIPOS>MOLECULE
2awx_HIS_B_1.pdb
 10 10 0 0 0
SMALL
GASTEIGER

@<TRIPOS>ATOM
      1  N         11.7030    9.3570   51.6830 N.3     3  HIS3       -0.1241
      2  CA        11.6060    8.4930   50.4570 C.3     3  HIS3        0.1618
      3  C         12.8840    7.6830   50.1880 C.2     3  HIS3        0.2264
      4  O         13.9730    8.0210   50.6720 O.2     3  HIS3       -0.2867
      5  CB        11.1770    9.3090   49.2240 C.3     3  HIS3        0.0704
      6  CG        12.3080   10.0070   48.5250 C.2     3  HIS3        0.0649
      7  ND1       12.4840   11.3740   48.5700 N.2     3  HIS3       -0.2310
      8  CD2       13.3020    9.5280   47.7390 C.3     3  HIS3        0.1683
      9  CE1       13.5450   11.7050   47.8540 C.2     3  HIS3        0.1939
     10  NE2       14.0580   10.6020   47.3360 N.2     3  HIS3       -0.2440
@<TRIPOS>BOND
     1    10     8    1
     2    10     9    2
     3     8     6    1
     4     9     7    1
     5     6     7    2
     6     6     5    1
     7     5     2    1
     8     3     2    1
     9     3     4    2
    10     2     1    1
