@<TRIPOS>MOLECULE
2awz_5H_A_1.pdb
 25 27 0 0 0
SMALL
GASTEIGER

@<TRIPOS>ATOM
      1  S19        6.5880   34.1150   75.9510 S.O2  801  5H801       0.0941
      2  O20        5.2540   34.2430   75.4150 O.2   801  5H801      -0.1501
      3  O21        7.6550   34.9170   75.4230 O.2   801  5H801      -0.1501
      4  N22        6.4630   34.5950   77.6240 N.3   801  5H801       0.0261
      5  C24        7.0620   32.3970   75.9440 C.ar  801  5H801       0.1252
      6  C25        8.4270   32.0420   75.8960 C.ar  801  5H801       0.0200
      7  C26        8.8000   30.6870   75.8930 C.ar  801  5H801       0.0014
      8  C27        7.8070   29.6870   75.9390 C.ar  801  5H801       0.0001
      9  C29        6.4410   30.0340   75.9870 C.ar  801  5H801       0.0014
     10  C30        6.0680   31.3910   75.9900 C.ar  801  5H801       0.0200
     11  C1        11.1380   35.2430   79.2330 C.3   801  5H801       0.0468
     12  C2        11.4490   34.9390   77.7710 C.ar  801  5H801      -0.0208
     13  C4        11.6210   33.6070   77.3460 C.ar  801  5H801      -0.0037
     14  C5        11.9160   33.3410   76.0000 C.ar  801  5H801       0.0064
     15  C6        11.8660   35.7390   75.5160 C.ar  801  5H801       0.0064
     16  C8        12.0390   34.4090   75.0840 C.ar  801  5H801       0.0345
     17 BR1        12.4360   34.0640   73.2750 Br    801  5H801      -0.0490
     18  N1         7.6440   35.2900   78.1780 N.am  801  5H801      -0.1513
     19  C9         7.6910   36.6250   78.1560 C.2   801  5H801       0.1343
     20  C14        9.6680   35.6870   79.4540 C.3   801  5H801       0.1359
     21  C7         8.6790   34.7260   78.8030 C.2   801  5H801       0.2563
     22  C3        11.5720   36.0040   76.8610 C.ar  801  5H801      -0.0037
     23  S1         9.2670   37.2270   78.6790 S.3   801  5H801      -0.0818
     24  S2         6.4560   37.6810   77.7270 S.2   801  5H801      -0.0262
     25  O1         8.8010   33.4940   78.8640 O.2   801  5H801      -0.2722
@<TRIPOS>BOND
     1    17    16    1
     2    16    15   ar
     3    16    14   ar
     4     2     1    2
     5     3     1    2
     6    15    22   ar
     7     7     6   ar
     8     7     8   ar
     9     6     5   ar
    10     8     9   ar
    11     5     1    1
    12     5    10   ar
    13     1     4    1
    14     9    10   ar
    15    14    13   ar
    16    22    12   ar
    17    13    12   ar
    18     4    18    1
    19    24    19    2
    20    12    11    1
    21    19    18    1
    22    19    23    1
    23    18    21   am
    24    23    20    1
    25    21    25    2
    26    21    20    1
    27    11    20    1
