@<TRIPOS>MOLECULE
2ax0_5X_A_1.pdb
 27 29 0 0 0
SMALL
GASTEIGER

@<TRIPOS>ATOM
      1  S19        6.4170   34.2830   76.0960 S.O2  1001  5X1001      0.0941
      2  O20        5.1180   34.3860   75.4750 O.2   1001  5X1001     -0.1501
      3  O21        7.5200   35.0540   75.5980 O.2   1001  5X1001     -0.1501
      4  N22        6.2100   34.8830   77.7380 N.3   1001  5X1001      0.0261
      5  C24        6.8750   32.5620   76.2460 C.ar  1001  5X1001      0.1252
      6  C25        8.2360   32.1940   76.3670 C.ar  1001  5X1001      0.0200
      7  C26        8.5840   30.8350   76.4870 C.ar  1001  5X1001      0.0014
      8  C27        7.5810   29.8490   76.4820 C.ar  1001  5X1001      0.0001
      9  C29        6.2270   30.2130   76.3620 C.ar  1001  5X1001      0.0014
     10  C30        5.8750   31.5670   76.2430 C.ar  1001  5X1001      0.0200
     11  C1        10.9230   35.4730   78.9270 C.3   1001  5X1001      0.0425
     12  C2        11.1500   35.2030   77.4360 C.2   1001  5X1001     -0.0426
     13  N1         7.3690   35.6470   78.3130 N.am  1001  5X1001     -0.1513
     14  C9         7.4290   36.9760   78.3580 C.2   1001  5X1001      0.1343
     15  C14        9.5280   36.0310   79.4030 C.3   1001  5X1001      0.1356
     16  C7         8.4260   35.0950   78.8950 C.2   1001  5X1001      0.2563
     17  S1         9.0420   37.5830   78.7340 S.3   1001  5X1001     -0.0818
     18  S2         6.1920   38.0520   77.9990 S.2   1001  5X1001     -0.0262
     19  O1         8.4680   33.8550   79.0380 O.2   1001  5X1001     -0.2722
     20  C3        11.4290   33.9220   77.0640 C.2   1001  5X1001     -0.0084
     21  C4        11.0920   36.4060   76.5060 C.3   1001  5X1001      0.0264
     22  C5        11.7580   33.3200   75.7220 C.ar  1001  5X1001     -0.0006
     23  C6        11.9760   31.9240   75.7570 C.ar  1001  5X1001     -0.0000
     24  C8        11.8820   34.0190   74.4980 C.ar  1001  5X1001     -0.0000
     25  C10       12.2130   33.3260   73.3310 C.ar  1001  5X1001     -0.0000
     26  C11       12.3030   31.2400   74.5860 C.ar  1001  5X1001     -0.0000
     27  C13       12.4260   31.9390   73.3730 C.ar  1001  5X1001     -0.0000
@<TRIPOS>BOND
     1    25    27   ar
     2    25    24   ar
     3    27    26   ar
     4    24    22   ar
     5    26    23   ar
     6     2     1    2
     7     3     1    2
     8    22    23   ar
     9    22    20    1
    10     1     5    1
    11     1     4    1
    12    10     5   ar
    13    10     9   ar
    14     5     6   ar
    15     9     8   ar
    16     6     7   ar
    17     8     7   ar
    18    21    12    1
    19    20    12    2
    20    12    11    1
    21     4    13    1
    22    18    14    2
    23    13    14    1
    24    13    16   am
    25    14    17    1
    26    17    15    1
    27    16    19    2
    28    16    15    1
    29    11    15    1
