@<TRIPOS>MOLECULE
2ax1_5EE_A_1.pdb
 25 27 0 0 0
SMALL
GASTEIGER

@<TRIPOS>ATOM
      1  S19        6.7870   33.9540   75.8110 S.O2  1001  5EE1001     0.0998
      2  O20        5.8000   34.5410   74.9530 O.2   1001  5EE1001    -0.1496
      3  O21        8.1760   34.2500   75.6130 O.2   1001  5EE1001    -0.1496
      4  N22        6.4300   34.5180   77.4220 N.3   1001  5EE1001     0.0266
      5  C24        6.5760   32.2680   75.8300 C.ar  1001  5EE1001     0.1547
      6  S3         7.7570   31.0730   76.1260 S.2   1001  5EE1001    -0.0667
      7  C27        6.6440   29.7910   75.9450 C.ar  1001  5EE1001     0.0368
      8  C29        5.3090   30.2660   75.6450 C.ar  1001  5EE1001     0.0089
      9  C30        5.2690   31.7060   75.5790 C.ar  1001  5EE1001     0.0272
     10  C1        11.0980   35.1850   78.9200 C.3   1001  5EE1001     0.0468
     11  C2        11.4210   34.8370   77.4720 C.ar  1001  5EE1001    -0.0199
     12  C4        11.8490   35.8670   76.6260 C.ar  1001  5EE1001    -0.0033
     13  C5        12.1690   35.6160   75.2870 C.ar  1001  5EE1001     0.0119
     14  C6        11.6140   33.2500   75.6600 C.ar  1001  5EE1001     0.0679
     15  C8        12.0630   34.3160   74.7750 C.ar  1001  5EE1001     0.0682
     16 CL1        12.4700   33.9840   73.0960 Cl    1001  5EE1001    -0.0814
     17  N1         7.5720   35.2320   78.0800 N.am  1001  5EE1001    -0.1513
     18  C9         7.5990   36.5700   78.0490 C.2   1001  5EE1001     0.1343
     19  C14        9.6590   35.6010   79.2680 C.3   1001  5EE1001     0.1359
     20  C7         8.6180   34.6570   78.6870 C.2   1001  5EE1001     0.2563
     21  C3        11.2970   33.5250   76.9970 C.ar  1001  5EE1001     0.0080
     22  S1         9.2160   37.1510   78.4170 S.3   1001  5EE1001    -0.0818
     23  S2         6.2950   37.5950   77.7760 S.2   1001  5EE1001    -0.0262
     24  O1         8.6900   33.4310   78.8240 O.2   1001  5EE1001    -0.2722
     25 CL2        11.4720   31.6190   75.0640 Cl    1001  5EE1001    -0.0814
@<TRIPOS>BOND
     1    16    15    1
     2    15    13   ar
     3    15    14   ar
     4     2     1    2
     5    25    14    1
     6    13    12   ar
     7     9     8   ar
     8     9     5   ar
     9     3     1    2
    10     8     7   ar
    11    14    21   ar
    12     1     5    1
    13     1     4    1
    14     5     6   ar
    15     7     6   ar
    16    12    11   ar
    17    21    11   ar
    18     4    17    1
    19    11    10    1
    20    23    18    2
    21    18    17    1
    22    18    22    1
    23    17    20   am
    24    22    19    1
    25    20    24    2
    26    20    19    1
    27    10    19    1
