@<TRIPOS>MOLECULE
2ax4_ADP_A_1.pdb
 27 29 0 0 0
SMALL
GASTEIGER

@<TRIPOS>ATOM
      1  PB       -14.3560    8.6540   12.5220 P.3   800  ADP800      0.5373
      2  O1B      -13.9160    9.9360   13.1880 O.3   800  ADP800     -0.1143
      3  O2B      -13.2890    7.5690   12.6130 O.2   800  ADP800     -0.2221
      4  O3B      -15.7280    8.1910   12.9040 O.3   800  ADP800     -0.1143
      5  PA       -15.7340    9.1200    9.9780 P.3   800  ADP800      0.2231
      6  O1A      -16.4470    7.8430    9.5670 O.2   800  ADP800     -0.5169
      7  O2A      -16.5820   10.2200   10.5520 O.3   800  ADP800     -0.4370
      8  O3A      -14.4510    8.8980   10.9220 O.3   800  ADP800     -0.2261
      9  O5'      -15.1250    9.7490    8.6080 O.3   800  ADP800     -0.3111
     10  C5'      -14.5010    8.9320    7.5850 C.3   800  ADP800      0.1813
     11  C4'      -14.5920    9.5290    6.1610 C.3   800  ADP800      0.1821
     12  O4'      -13.8320    8.7210    5.2320 O.3   800  ADP800     -0.3135
     13  C3'      -16.0440    9.4930    5.6450 C.3   800  ADP800      0.2184
     14  O3'      -16.4190   10.5980    4.7890 O.3   800  ADP800     -0.2174
     15  C2'      -16.1110    8.2080    4.8600 C.3   800  ADP800      0.2570
     16  O2'      -17.1600    8.2120    3.9080 O.3   800  ADP800     -0.2130
     17  C1'      -14.7240    8.1820    4.2420 C.3   800  ADP800      0.3186
     18  N9       -14.3770    6.7940    3.8490 N.pl3 800  ADP800     -0.1439
     19  C8       -13.9000    6.4620    2.6250 C.3   800  ADP800      0.3377
     20  N7       -13.6630    5.1350    2.5470 N.2   800  ADP800     -0.2095
     21  C5       -14.0190    4.5980    3.7420 C.2   800  ADP800      0.2526
     22  C6       -14.0300    3.2370    4.3200 C.2   800  ADP800      0.4393
     23  N6       -13.6090    2.1700    3.6180 N.pl3 800  ADP800      0.2180
     24  N1       -14.4590    3.1190    5.5810 N.2   800  ADP800      0.0021
     25  C2       -14.8810    4.1760    6.3070 C.3   800  ADP800      0.5254
     26  N3       -14.8990    5.4270    5.8440 N.2   800  ADP800     -0.0055
     27  C4       -14.4900    5.6910    4.5910 C.2   800  ADP800      0.3518
@<TRIPOS>BOND
     1    20    19    1
     2    20    21    2
     3    19    18    1
     4    23    22    1
     5    21    22    1
     6    21    27    1
     7    18    17    1
     8    18    27    1
     9    16    15    1
    10    17    15    1
    11    17    12    1
    12    22    24    2
    13    27    26    2
    14    14    13    1
    15    15    13    1
    16    12    11    1
    17    24    25    1
    18    13    11    1
    19    26    25    1
    20    11    10    1
    21    10     9    1
    22     9     5    1
    23     6     5    2
    24     5     7    1
    25     5     8    1
    26     8     1    1
    27     1     3    2
    28     1     4    1
    29     1     2    1
