@<TRIPOS>MOLECULE
2ax6_HFT_A_1.pdb
 20 20 0 0 0
SMALL
GASTEIGER

@<TRIPOS>ATOM
      1  F1        23.7050    2.4100    4.2940 F       1  HFT1       -0.1658
      2  C7        23.8630    3.7240    4.4200 C.3     1  HFT1        0.4202
      3  F2        23.4930    4.0350    5.6590 F       1  HFT1       -0.1658
      4  F3        23.0170    4.2710    3.5520 F       1  HFT1       -0.1658
      5  C3        25.3210    4.1520    4.1660 C.ar    1  HFT1        0.0951
      6  C2        26.3200    3.1750    4.1560 C.ar    1  HFT1        0.0221
      7  C4        25.6930    5.4710    3.8920 C.ar    1  HFT1        0.1468
      8  N1        24.8750    6.5160    4.0200 N.pl3   1  HFT1        0.0576
      9  O2        25.3250    7.8050    3.6280 O.2     1  HFT1       -0.1261
     10  O1        23.5390    6.4050    4.4870 O.2     1  HFT1       -0.1261
     11  C5        27.0210    5.7700    3.5990 C.ar    1  HFT1        0.0254
     12  C6        27.9990    4.7820    3.5890 C.ar    1  HFT1        0.0183
     13  C1        27.6520    3.4670    3.8750 C.ar    1  HFT1        0.0735
     14  N9        28.6290    2.5590    3.8920 N.am    1  HFT1       -0.1772
     15  C10       28.5070    1.2640    4.1760 C.2     1  HFT1        0.2731
     16  O10       27.4530    0.7050    4.4780 O.2     1  HFT1       -0.2703
     17  C11       29.8200    0.4790    4.1130 C.3     1  HFT1        0.1964
     18  C12       30.1840    0.0020    5.5200 C.3     1  HFT1        0.0425
     19  C13       29.6390   -0.7210    3.1810 C.3     1  HFT1        0.0425
     20  O11       30.8470    1.3380    3.6120 O.3     1  HFT1       -0.2163
@<TRIPOS>BOND
     1    19    17    1
     2     4     2    1
     3    12    11   ar
     4    12    13   ar
     5    11     7   ar
     6    20    17    1
     7     9     8    2
     8    13    14    1
     9    13     6   ar
    10     7     8    1
    11     7     5   ar
    12    14    15   am
    13     8    10    2
    14    17    15    1
    15    17    18    1
    16     6     5   ar
    17     5     2    1
    18    15    16    2
    19     1     2    1
    20     2     3    1
