@<TRIPOS>MOLECULE
2ax7_FHM_A_1.pdb
 28 29 0 0 0
SMALL
GASTEIGER

@<TRIPOS>ATOM
      1  C17       30.0580   -0.2160    8.2470 C.ar    1  FHM1        0.0392
      2  C18       29.8180   -0.4570    9.5980 C.ar    1  FHM1        0.0327
      3  C19       29.1790    0.5040   10.3760 C.ar    1  FHM1        0.1403
      4  F19       28.9520    0.2740   11.6860 F       1  FHM1       -0.2042
      5  C20       28.7780    1.7050    9.7990 C.ar    1  FHM1        0.0327
      6  C21       29.0200    1.9430    8.4490 C.ar    1  FHM1        0.0392
      7  C16       29.6610    0.9870    7.6660 C.ar    1  FHM1        0.1388
      8  O14       29.8980    1.2770    6.3570 O.3     1  FHM1       -0.4723
      9  C13       29.8800    0.1480    5.4680 C.3     1  FHM1        0.2444
     10  C11       29.6840    0.6630    4.0510 C.3     1  FHM1        0.2359
     11  O11       30.7730    1.5270    3.7180 O.3     1  FHM1       -0.2124
     12  C12       29.6350   -0.5150    3.0750 C.3     1  FHM1        0.0465
     13  C10       28.3710    1.4480    3.9910 C.2     1  FHM1        0.2768
     14  O10       27.2920    0.8750    4.1350 O.2     1  FHM1       -0.2702
     15  N9        28.5180    2.7530    3.7670 N.am    1  FHM1       -0.1771
     16  C6        27.5380    3.6530    3.6880 C.ar    1  FHM1        0.0735
     17  C5        26.2000    3.3510    3.9290 C.ar    1  FHM1        0.0221
     18  C1        27.8830    4.9770    3.4390 C.ar    1  FHM1        0.0183
     19  C2        26.8980    5.9600    3.4480 C.ar    1  FHM1        0.0254
     20  C3        25.5650    5.6510    3.7100 C.ar    1  FHM1        0.1468
     21  N8        24.7180    6.6810    3.7420 N.pl3   1  FHM1        0.0576
     22  O2        23.3590    6.5580    4.1330 O.2     1  FHM1       -0.1261
     23  O1        25.1990    7.9920    3.4790 O.2     1  FHM1       -0.1261
     24  C4        25.1960    4.3220    3.9450 C.ar    1  FHM1        0.0951
     25  C7        23.7430    3.8840    4.2080 C.3     1  FHM1        0.4202
     26  F2        23.3740    4.2260    5.4400 F       1  FHM1       -0.1658
     27  F3        22.8780    4.4110    3.3450 F       1  FHM1       -0.1658
     28  F1        23.5880    2.5680    4.1010 F       1  FHM1       -0.1658
@<TRIPOS>BOND
     1    12    10    1
     2    27    25    1
     3    18    19   ar
     4    18    16   ar
     5    19    20   ar
     6    23    21    2
     7    16    15    1
     8    16    17   ar
     9    20    21    1
    10    20    24   ar
    11    11    10    1
    12    21    22    2
    13    15    13   am
    14    17    24   ar
    15    24    25    1
    16    13    10    1
    17    13    14    2
    18    10     9    1
    19    28    25    1
    20    25    26    1
    21     9     8    1
    22     8     7    1
    23     7     1   ar
    24     7     6   ar
    25     1     2   ar
    26     6     5   ar
    27     2     3   ar
    28     5     3   ar
    29     3     4    1
