@<TRIPOS>MOLECULE
2ax8_FHM_A_1.pdb
 28 29 0 0 0
SMALL
GASTEIGER

@<TRIPOS>ATOM
      1  C17       30.2820    0.4620    8.5080 C.ar    1  FHM1        0.0392
      2  C18       29.9530    0.3720    9.8580 C.ar    1  FHM1        0.0327
      3  C19       29.0800    1.2930   10.4280 C.ar    1  FHM1        0.1403
      4  F19       28.7570    1.2050   11.7340 F       1  FHM1       -0.2042
      5  C20       28.5350    2.3070    9.6450 C.ar    1  FHM1        0.0327
      6  C21       28.8660    2.3950    8.2960 C.ar    1  FHM1        0.0392
      7  C16       29.7410    1.4760    7.7210 C.ar    1  FHM1        0.1388
      8  O14       30.0350    1.6050    6.3980 O.3     1  FHM1       -0.4723
      9  C13       30.1270    0.3660    5.6750 C.3     1  FHM1        0.2444
     10  C11       29.8770    0.6620    4.2040 C.3     1  FHM1        0.2359
     11  O11       30.9270    1.4950    3.7070 O.3     1  FHM1       -0.2124
     12  C12       29.8170   -0.6530    3.4240 C.3     1  FHM1        0.0465
     13  C10       28.5500    1.4170    4.0910 C.2     1  FHM1        0.2768
     14  O10       27.4770    0.8530    4.3000 O.2     1  FHM1       -0.2702
     15  N9        28.6860    2.7010    3.7650 N.am    1  FHM1       -0.1771
     16  C6        27.6920    3.5780    3.6330 C.ar    1  FHM1        0.0735
     17  C5        26.3730    3.2830    3.9690 C.ar    1  FHM1        0.0221
     18  C1        28.0150    4.8830    3.2760 C.ar    1  FHM1        0.0183
     19  C2        27.0260    5.8600    3.2870 C.ar    1  FHM1        0.0254
     20  C3        25.7160    5.5620    3.6530 C.ar    1  FHM1        0.1468
     21  N8        24.8670    6.5900    3.6680 N.pl3   1  FHM1        0.0576
     22  O2        23.5830    6.5130    4.2690 O.2     1  FHM1       -0.1261
     23  O1        25.3120    7.8720    3.2510 O.2     1  FHM1       -0.1261
     24  C4        25.3650    4.2490    3.9810 C.ar    1  FHM1        0.0951
     25  C7        23.9180    3.8040    4.2600 C.3     1  FHM1        0.4202
     26  F2        23.5710    4.1180    5.5050 F       1  FHM1       -0.1658
     27  F3        23.0450    4.3520    3.4190 F       1  FHM1       -0.1658
     28  F1        23.7560    2.4900    4.1230 F       1  FHM1       -0.1658
@<TRIPOS>BOND
     1    23    21    2
     2    18    19   ar
     3    18    16   ar
     4    19    20   ar
     5    27    25    1
     6    12    10    1
     7    16    15    1
     8    16    17   ar
     9    20    21    1
    10    20    24   ar
    11    21    22    2
    12    11    10    1
    13    15    13   am
    14    17    24   ar
    15    24    25    1
    16    13    10    1
    17    13    14    2
    18    28    25    1
    19    10     9    1
    20    25    26    1
    21     9     8    1
    22     8     7    1
    23     7     6   ar
    24     7     1   ar
    25     6     5   ar
    26     1     2   ar
    27     5     3   ar
    28     2     3   ar
    29     3     4    1
