@<TRIPOS>MOLECULE
2ax9_BHM_A_1.pdb
 21 21 0 0 0
SMALL
GASTEIGER

@<TRIPOS>ATOM
      1 BRAI       30.7480    1.5620    6.2840 Br      1  BHM1       -0.0776
      2  C13       30.2680    0.0440    5.1690 C.3     1  BHM1        0.1069
      3  C11       29.7970    0.5240    3.7940 C.3     1  BHM1        0.2067
      4  O11       30.8330    1.3130    3.2020 O.3     1  BHM1       -0.2154
      5  C12       29.4750   -0.6770    2.9030 C.3     1  BHM1        0.0434
      6  C10       28.5410    1.3860    3.9430 C.2     1  BHM1        0.2739
      7  O10       27.4770    0.8860    4.3090 O.2     1  BHM1       -0.2703
      8  N09       28.7280    2.6800    3.6910 N.am    1  BHM1       -0.1771
      9  C06       27.7870    3.6220    3.7460 C.ar    1  BHM1        0.0735
     10  C05       26.4540    3.3450    4.0380 C.ar    1  BHM1        0.0221
     11  C01       28.1540    4.9350    3.4700 C.ar    1  BHM1        0.0183
     12  C02       27.1930    5.9390    3.5080 C.ar    1  BHM1        0.0254
     13  C03       25.8650    5.6570    3.8170 C.ar    1  BHM1        0.1468
     14  N08       25.0390    6.7030    3.8740 N.pl3   1  BHM1        0.0576
     15  O02       23.6970    6.6110    4.3290 O.2     1  BHM1       -0.1261
     16  O01       25.5390    8.0010    3.5840 O.2     1  BHM1       -0.1261
     17  C04       25.4740    4.3390    4.0700 C.ar    1  BHM1        0.0951
     18  C07       24.0080    3.9230    4.2900 C.3     1  BHM1        0.4202
     19  F01       23.6120    4.2800    5.5080 F       1  BHM1       -0.1658
     20  F02       23.1820    4.4620    3.3970 F       1  BHM1       -0.1658
     21  F03       23.8340    2.6090    4.1820 F       1  BHM1       -0.1658
@<TRIPOS>BOND
     1     5     3    1
     2     4     3    1
     3    20    18    1
     4    11    12   ar
     5    11     9   ar
     6    12    13   ar
     7    16    14    2
     8     8     9    1
     9     8     6   am
    10     9    10   ar
    11     3     6    1
    12     3     2    1
    13    13    14    1
    14    13    17   ar
    15    14    15    2
    16     6     7    2
    17    10    17   ar
    18    17    18    1
    19    21    18    1
    20    18    19    1
    21     2     1    1
