@<TRIPOS>MOLECULE
2axa_FHM_A_1.pdb
 28 29 0 0 0
SMALL
GASTEIGER

@<TRIPOS>ATOM
      1  C17       30.4130    0.1240    8.4630 C.ar    1  FHM1        0.0392
      2  C18       30.2030   -0.1420    9.8140 C.ar    1  FHM1        0.0327
      3  C19       29.3500    0.6640   10.5610 C.ar    1  FHM1        0.1403
      4  F19       29.1660    0.4280   11.8760 F       1  FHM1       -0.2042
      5  C20       28.7030    1.7370    9.9530 C.ar    1  FHM1        0.0327
      6  C21       28.9150    2.0020    8.6030 C.ar    1  FHM1        0.0392
      7  C16       29.7690    1.1990    7.8530 C.ar    1  FHM1        0.1388
      8  O14       29.9340    1.4920    6.5330 O.3     1  FHM1       -0.4723
      9  C13       29.9980    0.3430    5.6730 C.3     1  FHM1        0.2444
     10  C11       29.7730    0.8090    4.2420 C.3     1  FHM1        0.2359
     11  O11       30.8400    1.6800    3.8580 O.3     1  FHM1       -0.2124
     12  C12       29.7160   -0.4060    3.3140 C.3     1  FHM1        0.0465
     13  C10       28.4490    1.5720    4.1710 C.2     1  FHM1        0.2768
     14  O10       27.3840    1.0000    4.4000 O.2     1  FHM1       -0.2702
     15  N9        28.5730    2.8620    3.8660 N.am    1  FHM1       -0.1771
     16  C6        27.5770    3.7420    3.7520 C.ar    1  FHM1        0.0735
     17  C5        26.2460    3.4220    4.0060 C.ar    1  FHM1        0.0221
     18  C1        27.8990    5.0550    3.4280 C.ar    1  FHM1        0.0183
     19  C2        26.8960    6.0180    3.3860 C.ar    1  FHM1        0.0254
     20  C3        25.5710    5.6970    3.6650 C.ar    1  FHM1        0.1468
     21  N8        24.7020    6.7100    3.6330 N.pl3   1  FHM1        0.0576
     22  O2        23.3630    6.5930    4.0900 O.2     1  FHM1       -0.1261
     23  O1        25.1510    8.0070    3.2720 O.2     1  FHM1       -0.1261
     24  C4        25.2270    4.3760    3.9650 C.ar    1  FHM1        0.0951
     25  C7        23.7770    3.9120    4.2010 C.3     1  FHM1        0.4202
     26  F2        23.3770    4.2740    5.4160 F       1  FHM1       -0.1658
     27  F3        22.9280    4.4040    3.3040 F       1  FHM1       -0.1658
     28  F1        23.6470    2.5910    4.1190 F       1  FHM1       -0.1658
@<TRIPOS>BOND
     1    23    21    2
     2    27    25    1
     3    12    10    1
     4    19    18   ar
     5    19    20   ar
     6    18    16   ar
     7    21    20    1
     8    21    22    2
     9    20    24   ar
    10    16    15    1
    11    16    17   ar
    12    11    10    1
    13    15    13   am
    14    24    17   ar
    15    24    25    1
    16    28    25    1
    17    13    10    1
    18    13    14    2
    19    25    26    1
    20    10     9    1
    21     9     8    1
    22     8     7    1
    23     7     1   ar
    24     7     6   ar
    25     1     2   ar
    26     6     5   ar
    27     2     3   ar
    28     5     3   ar
    29     3     4    1
