@<TRIPOS>MOLECULE
2axm_SGN_B_1.pdb
 20 20 0 0 0
SMALL
GASTEIGER

@<TRIPOS>ATOM
      1  C1       -32.9580   48.9970   13.8590 C.3   301  SGN301      0.2895
      2  C2       -32.2390   50.2270   14.3900 C.3   301  SGN301      0.1858
      3  C3       -31.8820   51.0940   13.1810 C.3   301  SGN301      0.2073
      4  C4       -30.8870   50.2800   12.3110 C.3   301  SGN301      0.2133
      5  C5       -31.6280   48.9810   11.8810 C.3   301  SGN301      0.1826
      6  C6       -30.8110   47.9920   11.0520 C.3   301  SGN301      0.2046
      7  N        -33.0660   50.9200   15.3890 N.3   301  SGN301     -0.1129
      8  O1       -34.1320   49.4140   13.1210 O.3   301  SGN301     -0.1882
      9  O3       -31.2670   52.2760   13.6200 O.3   301  SGN301     -0.2186
     10  O4       -30.5360   51.0130   11.1590 O.3   301  SGN301     -0.2176
     11  O5       -32.0940   48.2520   13.0190 O.3   301  SGN301     -0.3245
     12  O6       -29.7450   47.5030   11.8290 O.3   301  SGN301     -0.2384
     13  S1       -32.8190   50.5590   16.9880 S.3   301  SGN301     -0.1288
     14  O1S      -31.7370   49.5990   17.0590 O.3   301  SGN301     -0.2918
     15  O2S      -32.4840   51.8010   17.6400 O.3   301  SGN301     -0.2918
     16  O3S      -34.0590   49.9910   17.4600 O.3   301  SGN301     -0.2918
     17  S2       -28.6620   46.4670   11.3490 S.3   301  SGN301     -0.0001
     18  O4S      -28.3480   46.8290    9.9810 O.2   301  SGN301     -0.3452
     19  O5S      -27.5270   46.6200   12.2350 O.3   301  SGN301     -0.2682
     20  O6S      -29.2970   45.1700   11.4470 O.2   301  SGN301     -0.3452
@<TRIPOS>BOND
     1    18    17    2
     2     6    12    1
     3     6     5    1
     4    10     4    1
     5    17    20    2
     6    17    12    1
     7    17    19    1
     8     5     4    1
     9     5    11    1
    10     4     3    1
    11    11     1    1
    12     8     1    1
    13     3     9    1
    14     3     2    1
    15     1     2    1
    16     2     7    1
    17     7    13    1
    18    13    14    1
    19    13    16    1
    20    13    15    1
