@<TRIPOS>MOLECULE
2axm_IDS_B_1.pdb
 16 16 0 0 0
SMALL
GASTEIGER

@<TRIPOS>ATOM
      1  C1       -29.1810   51.3230   11.0550 C.3   302  IDS302      0.1774
      2  C2       -28.8600   51.7160    9.6440 C.3   302  IDS302      0.2054
      3  C3       -29.2760   53.1440    9.2940 C.3   302  IDS302      0.2169
      4  C4       -28.9060   54.1400   10.3760 C.3   302  IDS302      0.2227
      5  C5       -29.4180   53.6050   11.6760 C.3   302  IDS302      0.2512
      6  C6       -29.2840   54.5850   12.8390 C.2   302  IDS302      0.3940
      7  O2       -27.5060   51.6370    9.4760 O.3   302  IDS302     -0.2384
      8  O3       -30.6720   53.1670    9.1530 O.3   302  IDS302     -0.2175
      9  O4       -27.5070   54.2940   10.4600 O.3   302  IDS302     -0.2171
     10  O5       -28.8030   52.3570   11.9470 O.3   302  IDS302     -0.3403
     11  O61      -28.7000   54.2640   13.8730 O.co2 302  IDS302     -0.2429
     12  O62      -29.7670   55.7220   12.7560 O.co2 302  IDS302     -0.2429
     13  S        -26.7430   50.6690    8.5690 S.3   302  IDS302     -0.0001
     14  O1S      -27.3360   50.8270    7.2830 O.2   302  IDS302     -0.3452
     15  O2S      -25.3800   51.0740    8.6300 O.2   302  IDS302     -0.3452
     16  O3S      -26.9480   49.3740    9.1100 O.3   302  IDS302     -0.2682
@<TRIPOS>BOND
     1    14    13    2
     2    13    15    2
     3    13    16    1
     4    13     7    1
     5     8     3    1
     6     3     2    1
     7     3     4    1
     8     7     2    1
     9     2     1    1
    10     4     9    1
    11     4     5    1
    12     1    10    1
    13     5    10    1
    14     5     6    1
    15    12     6   ar
    16     6    11   ar
