@<TRIPOS>MOLECULE
2axn_F6P_A_1.pdb
 16 16 0 0 0
SMALL
GASTEIGER

@<TRIPOS>ATOM
      1  O1       -43.6210   66.5090   13.8780 O.3   736  F6P736     -0.2148
      2  C1       -43.5500   67.8620   14.3050 C.3   736  F6P736      0.2434
      3  C2       -42.0910   68.3190   14.4540 C.3   736  F6P736      0.2807
      4  O2       -41.2780   67.5040   15.2910 O.3   736  F6P736     -0.1896
      5  C3       -42.1990   69.7750   14.9590 C.3   736  F6P736      0.2409
      6  O3       -42.1690   69.8820   16.3790 O.3   736  F6P736     -0.2149
      7  C4       -41.0240   70.3690   14.1890 C.3   736  F6P736      0.2167
      8  O4       -41.1120   71.7550   14.0330 O.3   736  F6P736     -0.2175
      9  C5       -41.2370   69.6660   12.9050 C.3   736  F6P736      0.1808
     10  O5       -41.4520   68.3360   13.1550 O.3   736  F6P736     -0.3254
     11  C6       -40.2310   70.0260   11.8410 C.3   736  F6P736      0.1859
     12  O6       -40.5800   69.2380   10.7130 O.3   736  F6P736     -0.2675
     13  P        -39.8430   69.8180    9.4740 P.3   736  F6P736      0.5327
     14  O1P      -38.3450   70.0600    9.5340 O.3   736  F6P736     -0.1145
     15  O2P      -40.2620   68.8880    8.2410 O.2   736  F6P736     -0.2224
     16  O3P      -40.5920   71.2180    9.3100 O.3   736  F6P736     -0.1145
@<TRIPOS>BOND
     1    15    13    2
     2    16    13    1
     3    13    14    1
     4    13    12    1
     5    12    11    1
     6    11     9    1
     7     9    10    1
     8     9     7    1
     9    10     3    1
    10     1     2    1
    11     8     7    1
    12     7     5    1
    13     2     3    1
    14     3     5    1
    15     3     4    1
    16     5     6    1
