@<TRIPOS>MOLECULE
2axn_EDT_A_1.pdb
 20 19 0 0 0
SMALL
GASTEIGER

@<TRIPOS>ATOM
      1  O20       -1.9480   51.0190   -1.7780 O.co2 737  EDT737     -0.2441
      2  C5        -1.8670   49.6950   -1.9740 C.2   737  EDT737      0.3809
      3  O19       -0.8100   49.1550   -2.2950 O.co2 737  EDT737     -0.2441
      4  C4        -3.1680   48.8680   -1.7560 C.3   737  EDT737      0.1882
      5  N3        -4.4390   49.3560   -2.4080 N.3   737  EDT737     -0.2524
      6  C2        -4.2200   49.5660   -3.8500 C.3   737  EDT737      0.1882
      7  C1        -4.6420   48.3920   -4.7080 C.2   737  EDT737      0.3809
      8  O18       -5.3950   47.4690   -4.0910 O.co2 737  EDT737     -0.2441
      9  O17       -4.3030   48.3250   -5.8810 O.co2 737  EDT737     -0.2441
     10  C6        -4.8980   50.6170   -1.7840 C.3   737  EDT737      0.0905
     11  C7        -5.6480   50.5470   -0.4320 C.3   737  EDT737      0.0905
     12  N8        -6.6070   49.4010   -0.3860 N.3   737  EDT737     -0.2524
     13  C9        -8.0060   49.8570   -0.5370 C.3   737  EDT737      0.1882
     14  C10       -8.8330   49.1470   -1.6220 C.2   737  EDT737      0.3809
     15  O16       -8.1430   48.6220   -2.6650 O.co2 737  EDT737     -0.2441
     16  O15      -10.0650   49.1000   -1.5290 O.co2 737  EDT737     -0.2441
     17  C11       -6.4150   48.6970    0.8950 C.3   737  EDT737      0.1882
     18  C12       -5.0990   47.9120    0.9060 C.2   737  EDT737      0.3809
     19  O13       -4.1110   48.4460    1.6720 O.co2 737  EDT737     -0.2441
     20  O14       -4.9790   46.8870    0.2400 O.co2 737  EDT737     -0.2441
@<TRIPOS>BOND
     1     9     7   ar
     2     7     8   ar
     3     7     6    1
     4     6     5    1
     5    15    14   ar
     6     5    10    1
     7     5     4    1
     8     3     2   ar
     9     2     1   ar
    10     2     4    1
    11    10    11    1
    12    14    16   ar
    13    14    13    1
    14    13    12    1
    15    11    12    1
    16    12    17    1
    17    20    18   ar
    18    17    18    1
    19    18    19   ar
