@<TRIPOS>MOLECULE
2axn_ADP_A_1.pdb
 27 29 0 0 0
SMALL
GASTEIGER

@<TRIPOS>ATOM
      1  PB        -7.3300   48.2780    4.5150 P.3   738  ADP738      0.5373
      2  O1B       -6.1950   48.6250    5.4210 O.3   738  ADP738     -0.1143
      3  O2B       -7.9610   49.4200    3.7960 O.3   738  ADP738     -0.1143
      4  O3B       -6.8000   47.2340    3.4700 O.2   738  ADP738     -0.2221
      5  PA       -10.0280   47.9480    5.4170 P.3   738  ADP738      0.2231
      6  O1A      -10.3600   49.3440    5.8240 O.3   738  ADP738     -0.4370
      7  O2A      -10.4740   47.3930    4.1290 O.2   738  ADP738     -0.5169
      8  O3A       -8.3790   47.7090    5.4940 O.3   738  ADP738     -0.2261
      9  O5'      -10.4460   47.1080    6.6840 O.3   738  ADP738     -0.3111
     10  C5'      -11.7580   47.2810    7.2170 C.3   738  ADP738      0.1813
     11  C4'      -11.7850   46.4330    8.4440 C.3   738  ADP738      0.1821
     12  O4'      -10.7800   46.8630    9.3610 O.3   738  ADP738     -0.3135
     13  C3'      -13.1110   46.3720    9.2520 C.3   738  ADP738      0.2184
     14  O3'      -13.4530   45.0260    9.4820 O.3   738  ADP738     -0.2174
     15  C2'      -12.7850   47.0610   10.5930 C.3   738  ADP738      0.2570
     16  O2'      -13.4340   46.4880   11.7320 O.3   738  ADP738     -0.2130
     17  C1'      -11.2650   46.9460   10.6670 C.3   738  ADP738      0.3186
     18  N9       -10.6380   48.0720   11.4040 N.pl3 738  ADP738     -0.1439
     19  C8       -11.0540   49.3670   11.6780 C.3   738  ADP738      0.3377
     20  N7       -10.2500   50.1550   12.3730 N.2   738  ADP738     -0.2095
     21  C5        -9.1910   49.3070   12.5760 C.2   738  ADP738      0.2526
     22  C6        -7.9400   49.4450   13.2530 C.2   738  ADP738      0.4393
     23  N6        -7.5700   50.6870   13.8870 N.pl3 738  ADP738      0.2180
     24  N1        -7.0640   48.3790   13.2870 N.2   738  ADP738      0.0021
     25  C2        -7.3910   47.1860   12.6890 C.3   738  ADP738      0.5254
     26  N3        -8.5440   46.9250   12.0200 N.2   738  ADP738     -0.0055
     27  C4        -9.4030   48.0190   11.9970 C.2   738  ADP738      0.3518
@<TRIPOS>BOND
     1     4     1    2
     2     3     1    1
     3     7     5    2
     4     1     2    1
     5     1     8    1
     6     5     8    1
     7     5     6    1
     8     5     9    1
     9     9    10    1
    10    10    11    1
    11    11    13    1
    12    11    12    1
    13    13    14    1
    14    13    15    1
    15    12    17    1
    16    15    17    1
    17    15    16    1
    18    17    18    1
    19    18    19    1
    20    18    27    1
    21    19    20    1
    22    27    26    2
    23    27    21    1
    24    26    25    1
    25    20    21    2
    26    21    22    1
    27    25    24    1
    28    22    24    2
    29    22    23    1
