@<TRIPOS>MOLECULE
2axr_ABL_A_1.pdb
 23 24 0 0 0
SMALL
GASTEIGER

@<TRIPOS>ATOM
      1  C1        -2.8640   34.5180   19.3490 C.1   505  ABL505      0.1594
      2  O1        -2.4180   33.4360   18.9000 O.2   505  ABL505     -0.2244
      3  C2        -1.9180   35.5490   19.9810 C.3   505  ABL505      0.2885
      4  O2        -1.0410   34.8230   20.8350 O.3   505  ABL505     -0.2021
      5  C3        -2.6050   36.6530   20.8140 C.3   505  ABL505      0.2271
      6  O3        -1.6460   37.7330   20.9330 O.3   505  ABL505     -0.2165
      7  C4        -3.8600   37.1470   20.1260 C.3   505  ABL505      0.1774
      8  O4        -4.5500   38.1600   20.9040 O.3   505  ABL505     -0.3262
      9  C5        -4.8130   35.9130   20.0470 C.3   505  ABL505      0.1771
     10  N5        -4.1820   34.8120   19.2780 N.2   505  ABL505     -0.2009
     11  C6        -6.1300   36.2820   19.3190 C.3   505  ABL505      0.2096
     12  O6        -6.9930   35.1570   19.2140 O.3   505  ABL505     -0.2181
     13  C1A       -4.6670   39.5370   20.4380 C.3   505  ABL505      0.2695
     14  C2A       -5.6110   40.3240   21.3770 C.3   505  ABL505      0.2406
     15  O2A       -6.9090   39.7200   21.4090 O.3   505  ABL505     -0.2149
     16  C3A       -5.6970   41.7730   20.9150 C.3   505  ABL505      0.2198
     17  O3A       -6.5550   42.5220   21.7670 O.3   505  ABL505     -0.2174
     18  C4A       -4.2520   42.3430   20.9040 C.3   505  ABL505      0.2144
     19  O4A       -4.2530   43.7000   20.4940 O.3   505  ABL505     -0.2176
     20  C5A       -3.3540   41.5170   19.9790 C.3   505  ABL505      0.1835
     21  O5A       -3.3980   40.1490   20.4160 O.3   505  ABL505     -0.3256
     22  C6A       -1.9070   42.0250   19.9800 C.3   505  ABL505      0.2142
     23  O6A       -1.0520   41.3060   19.1320 O.3   505  ABL505     -0.2176
@<TRIPOS>BOND
     1     2     1    2
     2    23    22    1
     3    12    11    1
     4    10     1    2
     5    10     9    1
     6    11     9    1
     7     1     3    1
     8    20    22    1
     9    20    21    1
    10    20    18    1
    11     3     5    1
    12     3     4    1
    13     9     7    1
    14     7     5    1
    15     7     8    1
    16    21    13    1
    17    13     8    1
    18    13    14    1
    19    19    18    1
    20     5     6    1
    21    18    16    1
    22    16    14    1
    23    16    17    1
    24    14    15    1
