@<TRIPOS>MOLECULE
2axt_HEM_f_1.pdb
 43 50 0 0 0
SMALL
GASTEIGER

@<TRIPOS>ATOM
      1  CHA       40.3550  -26.6470  -23.1630 C.2   5051  HEM5051     0.0000
      2  CHB       42.6120  -30.6420  -21.3570 C.2   5051  HEM5051     0.0000
      3  CHC       38.8510  -31.5250  -18.5030 C.2   5051  HEM5051     0.0000
      4  CHD       36.5600  -27.6040  -20.2860 C.2   5051  HEM5051     0.0000
      5  C1A       41.2840  -27.6460  -22.9960 C.ar  5051  HEM5051     0.0000
      6  C2A       42.5130  -27.8860  -23.8020 C.ar  5051  HEM5051     0.0000
      7  C3A       43.1960  -28.9820  -23.1830 C.ar  5051  HEM5051     0.0000
      8  C4A       42.3340  -29.5310  -22.1350 C.ar  5051  HEM5051     0.0000
      9  CMA       44.5360  -29.5890  -23.7170 C.3   5051  HEM5051     0.0000
     10  CAA       43.0970  -27.0230  -24.9920 C.3   5051  HEM5051     0.0000
     11  CBA       42.3510  -27.3760  -26.2510 C.3   5051  HEM5051     0.0000
     12  CGA       42.7070  -26.6910  -27.5190 C.2   5051  HEM5051     0.0000
     13  O1A       42.5430  -27.3250  -28.5830 O.co2 5051  HEM5051     0.0000
     14  O2A       43.1620  -25.4030  -27.5460 O.co2 5051  HEM5051     0.0000
     15  C1B       41.8590  -31.1830  -20.4450 C.2   5051  HEM5051     0.0000
     16  C2B       42.2350  -32.3460  -19.6590 C.2   5051  HEM5051     0.0000
     17  C3B       41.1600  -32.6290  -18.8270 C.2   5051  HEM5051     0.0000
     18  C4B       40.1150  -31.6190  -19.1190 C.2   5051  HEM5051     0.0000
     19  CMB       43.5770  -33.1000  -19.7730 C.3   5051  HEM5051     0.0000
     20  CAB       41.2630  -33.7950  -17.9070 C.2   5051  HEM5051     0.0000
     21  CBB       41.6940  -33.7160  -16.7050 C.2   5051  HEM5051     0.0000
     22  C1C       37.8400  -30.5570  -18.7440 C.ar  5051  HEM5051     0.0000
     23  C2C       36.5020  -30.5450  -18.1250 C.ar  5051  HEM5051     0.0000
     24  C3C       35.8200  -29.4340  -18.6330 C.ar  5051  HEM5051     0.0000
     25  C4C       36.7730  -28.7770  -19.5620 C.ar  5051  HEM5051     0.0000
     26  CMC       35.9900  -31.5810  -17.1300 C.3   5051  HEM5051     0.0000
     27  CAC       34.3830  -28.9960  -18.3150 C.3   5051  HEM5051     0.0000
     28  CBC       34.1900  -27.4950  -18.0180 C.3   5051  HEM5051     0.0000
     29  C1D       37.4040  -26.9720  -21.2110 C.2   5051  HEM5051     0.0000
     30  C2D       37.1130  -25.7580  -21.8620 C.2   5051  HEM5051     0.0000
     31  C3D       38.2160  -25.4900  -22.6580 C.2   5051  HEM5051     0.0000
     32  C4D       39.1300  -26.6090  -22.4490 C.2   5051  HEM5051     0.0000
     33  CMD       35.8560  -24.8850  -21.7580 C.3   5051  HEM5051     0.0000
     34  CAD       38.7610  -24.5130  -23.5920 C.3   5051  HEM5051     0.0000
     35  CBD       39.4820  -23.4460  -22.5710 C.3   5051  HEM5051     0.0000
     36  CGD       40.2190  -22.2200  -23.1760 C.2   5051  HEM5051     0.0000
     37  O1D       40.1340  -21.9050  -24.3430 O.co2 5051  HEM5051     0.0000
     38  O2D       40.9600  -21.5200  -22.2850 O.co2 5051  HEM5051     0.0000
     39  NA        41.1960  -28.7240  -22.0500 N.ar  5051  HEM5051     0.0000
     40  NB        40.5940  -30.7430  -20.0810 N.2   5051  HEM5051     0.0000
     41  NC        37.9560  -29.5060  -19.5840 N.ar  5051  HEM5051     0.0000
     42  ND        38.6330  -27.4280  -21.5360 N.2   5051  HEM5051     0.0000
     43 FE         39.5640  -29.0670  -20.8020 Fe    5051  HEM5051     0.0000
@<TRIPOS>BOND
     1    13    12   ar
     2    14    12   ar
     3    12    11    1
     4    11    10    1
     5    10     6    1
     6    37    36   ar
     7     6     7   ar
     8     6     5   ar
     9     9     7    1
    10    34    31    1
    11    34    35    1
    12     7     8   ar
    13    36    35    1
    14    36    38   ar
    15     1     5    2
    16     1    32    1
    17     5    39   ar
    18    31    32    1
    19    31    30    2
    20    32    42    2
    21     8    39   ar
    22     8     2    2
    23    39    43    1
    24    30    33    1
    25    30    29    1
    26    42    29    1
    27    42    43    1
    28     2    15    1
    29    29     4    2
    30    43    40    1
    31    43    41    1
    32    15    40    2
    33    15    16    1
    34     4    25    1
    35    40    18    1
    36    19    16    1
    37    16    17    2
    38    41    25   ar
    39    41    22   ar
    40    25    24   ar
    41    18    17    1
    42    18     3    2
    43    17    20    1
    44    22     3    1
    45    22    23   ar
    46    24    27    1
    47    24    23   ar
    48    27    28    1
    49    23    26    1
    50    20    21    2
