@<TRIPOS>MOLECULE
2axt_UNK_c_3.pdb
 13 12 0 0 0
SMALL
GASTEIGER

@<TRIPOS>ATOM
      1  C1        55.9720  -12.4530   -0.1740 C.3   5483  UNK5483     0.0000
      2  C2        55.6390  -10.9740   -0.0310 C.3   5483  UNK5483     0.0000
      3  C3        55.7680  -10.2730   -1.3640 C.3   5483  UNK5483     0.0000
      4  C4        55.4260   -8.8080   -1.2580 C.3   5483  UNK5483     0.0000
      5  C5        55.4260   -8.1840   -2.6460 C.3   5483  UNK5483     0.0000
      6  C6        54.8910   -6.7560   -2.6410 C.3   5483  UNK5483     0.0000
      7  C7        54.7730   -6.2370   -4.0660 C.3   5483  UNK5483     0.0000
      8  C8        54.1780   -4.8440   -4.1120 C.3   5483  UNK5483     0.0000
      9  C9        54.2360   -4.3080   -5.5150 C.3   5483  UNK5483     0.0000
     10  C10       54.1160   -2.8080   -5.4910 C.3   5483  UNK5483     0.0000
     11  C11       52.6830   -2.4120   -5.4170 C.3   5483  UNK5483     0.0000
     12  C12       52.0050   -2.6750   -6.7630 C.3   5483  UNK5483     0.0000
     13  C13       52.5230   -1.7430   -7.8570 C.3   5483  UNK5483     0.0000
@<TRIPOS>BOND
     1    13    12    1
     2    12    11    1
     3     9    10    1
     4     9     8    1
     5    10    11    1
     6     8     7    1
     7     7     6    1
     8     5     6    1
     9     5     4    1
    10     3     4    1
    11     3     2    1
    12     1     2    1
