@<TRIPOS>MOLECULE
2axt_CLA_b_1.pdb
 41 47 0 0 0
SMALL
GASTEIGER

@<TRIPOS>ATOM
      1 MG         65.7020  -13.9330   24.4750 Mg    5511  CLA5511     0.0000
      2  CHA       64.3110  -11.9040   21.9380 C.2   5511  CLA5511     0.0000
      3  CHB       63.9330  -16.6050   23.3510 C.2   5511  CLA5511     0.0000
      4  CHC       67.6670  -16.0800   26.4360 C.2   5511  CLA5511     0.0000
      5  CHD       67.9360  -11.3070   25.2300 C.2   5511  CLA5511     0.0000
      6  NA        64.2760  -14.2180   22.8420 N.2   5511  CLA5511     0.0000
      7  C1A       63.7630  -13.2140   22.0210 C.2   5511  CLA5511     0.0000
      8  C2A       62.5760  -13.7760   21.2460 C.2   5511  CLA5511     0.0000
      9  C3A       62.4920  -15.2270   21.7000 C.2   5511  CLA5511     0.0000
     10  C4A       63.6110  -15.3780   22.6940 C.1   5511  CLA5511     0.0000
     11  CMA       61.0960  -15.4610   22.3270 C.3   5511  CLA5511     0.0000
     12  CAA       62.8050  -13.7930   19.7140 C.3   5511  CLA5511     0.0000
     13  NB        65.8050  -15.9810   24.7910 N.ar  5511  CLA5511     0.0000
     14  C1B       64.9170  -16.8890   24.2370 C.ar  5511  CLA5511     0.0000
     15  C2B       65.2380  -18.2310   24.7520 C.ar  5511  CLA5511     0.0000
     16  C3B       66.3370  -18.0810   25.6420 C.ar  5511  CLA5511     0.0000
     17  C4B       66.6660  -16.6570   25.6710 C.ar  5511  CLA5511     0.0000
     18  CMB       64.4870  -19.5160   24.3500 C.3   5511  CLA5511     0.0000
     19  CAB       66.9020  -19.2740   26.3270 C.2   5511  CLA5511     0.0000
     20  CBB       67.8480  -20.0020   25.8230 C.2   5511  CLA5511     0.0000
     21  NC        67.4880  -13.7340   25.6250 N.2   5511  CLA5511     0.0000
     22  C1C       68.0330  -14.7140   26.4430 C.1   5511  CLA5511     0.0000
     23  C2C       69.0900  -14.1080   27.3160 C.2   5511  CLA5511     0.0000
     24  C3C       69.1620  -12.7350   26.9820 C.2   5511  CLA5511     0.0000
     25  C4C       68.1560  -12.5140   25.8950 C.2   5511  CLA5511     0.0000
     26  CMC       69.9320  -14.8650   28.3670 C.3   5511  CLA5511     0.0000
     27  CAC       70.0860  -11.6590   27.5640 C.3   5511  CLA5511     0.0000
     28  CBC       69.3820  -10.8190   28.6580 C.3   5511  CLA5511     0.0000
     29  ND        66.1150  -12.0340   23.7680 N.ar  5511  CLA5511     0.0000
     30  C1D       67.0090  -11.0740   24.2000 C.ar  5511  CLA5511     0.0000
     31  C2D       66.8680   -9.8480   23.4660 C.ar  5511  CLA5511     0.0000
     32  C3D       65.8320  -10.1110   22.5330 C.ar  5511  CLA5511     0.0000
     33  C4D       65.3880  -11.4590   22.7560 C.ar  5511  CLA5511     0.0000
     34  CMD       67.6660   -8.5160   23.6270 C.3   5511  CLA5511     0.0000
     35  CAD       65.0570   -9.5650   21.4780 C.2   5511  CLA5511     0.0000
     36  OBD       65.0840   -8.4320   20.9520 O.2   5511  CLA5511     0.0000
     37  CBD       64.0860  -10.7210   20.9830 C.3   5511  CLA5511     0.0000
     38  CGD       62.6400  -10.2280   20.9020 C.2   5511  CLA5511     0.0000
     39  O1D       61.9760   -9.9850   21.8760 O.2   5511  CLA5511     0.0000
     40  O2D       62.1790  -10.1050   19.6720 O.3   5511  CLA5511     0.0000
     41  CED       60.9340  -10.6640   19.2990 C.3   5511  CLA5511     0.0000
@<TRIPOS>BOND
     1    41    40    1
     2    40    38    1
     3    12     8    1
     4    38    37    1
     5    38    39    2
     6    36    35    2
     7    37    35    1
     8    37     2    1
     9     8     9    2
    10     8     7    1
    11    35    32    1
    12     9    11    1
    13     9    10    1
    14     2     7    1
    15     2    33    2
    16     7     6    2
    17    32    33   ar
    18    32    31   ar
    19    10     6    2
    20    10     3    2
    21    33    29   ar
    22     3    14    1
    23    31    34    1
    24    31    30   ar
    25    29    30   ar
    26    29     1    1
    27    30     5    2
    28    14    15   ar
    29    14    13   ar
    30    18    15    1
    31     1    13    1
    32    15    16   ar
    33    13    17   ar
    34     5    25    1
    35    21    25    2
    36    21    22    2
    37    16    17   ar
    38    16    19    1
    39    17     4    1
    40    20    19    2
    41    25    24    1
    42     4    22    2
    43    22    23    1
    44    24    23    2
    45    24    27    1
    46    23    26    1
    47    27    28    1
