@<TRIPOS>MOLECULE
2ay1_PLP_A_1.pdb
 15 15 0 0 0
SMALL
GASTEIGER

@<TRIPOS>ATOM
      1  N1        87.6060   19.7570    0.1780 N.ar  413  PLP413     -0.2452
      2  C2        87.6350   18.8130   -0.7900 C.ar  413  PLP413      0.0978
      3  C2A       86.7490   17.5800   -0.6770 C.3   413  PLP413      0.0555
      4  C3        88.4580   18.9840   -1.8690 C.ar  413  PLP413      0.2049
      5  O3        88.4880   18.0140   -2.8510 O.3   413  PLP413     -0.2857
      6  C4        89.2520   20.1380   -1.9690 C.ar  413  PLP413      0.0182
      7  C4A       90.0910   20.3040   -3.0560 C.3   413  PLP413      0.0342
      8  C5        89.1800   21.0960   -0.9560 C.ar  413  PLP413      0.0261
      9  C6        88.3630   20.8890    0.1040 C.ar  413  PLP413      0.0965
     10  C5A       89.8990   22.4130   -1.0370 C.3   413  PLP413      0.1815
     11  O4P       91.2620   22.4200   -1.3230 O.3   413  PLP413     -0.2653
     12  P         91.9850   23.8180   -1.2720 P.3   413  PLP413      0.5329
     13  O1P       91.0810   24.8600   -1.7740 O.3   413  PLP413     -0.1145
     14  O2P       93.1220   23.5690   -2.3690 O.2   413  PLP413     -0.2224
     15  O3P       92.5760   23.9960    0.0620 O.3   413  PLP413     -0.1145
@<TRIPOS>BOND
     1     7     6    1
     2     5     4    1
     3    14    12    2
     4     6     4   ar
     5     6     8   ar
     6     4     2   ar
     7    13    12    1
     8    11    12    1
     9    11    10    1
    10    12    15    1
    11    10     8    1
    12     8     9   ar
    13     2     3    1
    14     2     1   ar
    15     9     1   ar
