@<TRIPOS>MOLECULE
2ay1_AHC_B_1.pdb
 12 12 0 0 0
SMALL
GASTEIGER

@<TRIPOS>ATOM
      1  CA       103.3630   46.4480   11.7040 C.3   414  AHC414      0.1187
      2  C        102.8860   47.1490   12.9620 C.2   414  AHC414      0.3652
      3  OT1      103.3400   46.7700   14.0560 O.co2 414  AHC414     -0.2456
      4  OT2      102.0590   48.0820   12.8670 O.co2 414  AHC414     -0.2456
      5  CB       102.2290   46.0930   10.7440 C.3   414  AHC414      0.0382
      6  CG       101.3440   44.9730   11.2260 C.ar  414  AHC414     -0.0215
      7  CD1      101.5430   43.6680   10.7840 C.ar  414  AHC414     -0.0029
      8  CD2      100.2990   45.2240   12.1010 C.ar  414  AHC414     -0.0029
      9  CE1      100.7100   42.6340   11.2120 C.ar  414  AHC414      0.0177
     10  CE2       99.4690   44.1960   12.5300 C.ar  414  AHC414      0.0177
     11  CZ        99.6640   42.8910   12.0890 C.ar  414  AHC414      0.0891
     12  NH        98.7690   41.7920   12.5580 N.pl3 414  AHC414     -0.1281
@<TRIPOS>BOND
     1     5     6    1
     2     5     1    1
     3     7     9   ar
     4     7     6   ar
     5     9    11   ar
     6     6     8   ar
     7     1     2    1
     8    11    10   ar
     9    11    12    1
    10     8    10   ar
    11     4     2   ar
    12     2     3   ar
