@<TRIPOS>MOLECULE
2ay2_PLP_A_1.pdb
 15 15 0 0 0
SMALL
GASTEIGER

@<TRIPOS>ATOM
      1  N1        87.5030   19.8980    0.1790 N.ar  413  PLP413     -0.2452
      2  C2        87.4910   18.9760   -0.8040 C.ar  413  PLP413      0.0978
      3  C2A       86.5590   17.7900   -0.7130 C.3   413  PLP413      0.0555
      4  C3        88.3150   19.1180   -1.8710 C.ar  413  PLP413      0.2049
      5  O3        88.2660   18.1570   -2.8910 O.3   413  PLP413     -0.2857
      6  C4        89.1700   20.2210   -1.9320 C.ar  413  PLP413      0.0182
      7  C4A       90.0300   20.3690   -3.0020 C.3   413  PLP413      0.0342
      8  C5        89.1370   21.1480   -0.8920 C.ar  413  PLP413      0.0261
      9  C6        88.3090   20.9590    0.1370 C.ar  413  PLP413      0.0965
     10  C5A       89.9420   22.4230   -0.8750 C.3   413  PLP413      0.1815
     11  O4P       91.1570   22.5820   -1.5050 O.3   413  PLP413     -0.2653
     12  P         91.8380   23.9700   -1.2570 P.3   413  PLP413      0.5329
     13  O1P       91.0350   25.0580   -1.8400 O.3   413  PLP413     -0.1145
     14  O2P       93.0260   23.6840   -2.1970 O.2   413  PLP413     -0.2224
     15  O3P       92.3530   24.0810    0.1110 O.3   413  PLP413     -0.1145
@<TRIPOS>BOND
     1     7     6    1
     2     5     4    1
     3    14    12    2
     4     6     4   ar
     5     6     8   ar
     6     4     2   ar
     7    13    12    1
     8    11    12    1
     9    11    10    1
    10    12    15    1
    11     8    10    1
    12     8     9   ar
    13     2     3    1
    14     2     1   ar
    15     9     1   ar
