@<TRIPOS>MOLECULE
2ay2_CXP_B_1.pdb
 11 11 0 0 0
SMALL
GASTEIGER

@<TRIPOS>ATOM
      1  C1       101.0710   44.8070   11.6360 C.3   414  CXP414      0.0006
      2  C2        99.9520   45.4070   12.4900 C.3   414  CXP414      0.0000
      3  C3        99.1340   44.3550   13.2350 C.3   414  CXP414      0.0000
      4  C4        98.5830   43.3040   12.2700 C.3   414  CXP414      0.0000
      5  C5        99.7010   42.6700   11.4360 C.3   414  CXP414      0.0000
      6  C6       100.4930   43.7440   10.7020 C.3   414  CXP414      0.0000
      7  C7       101.9090   45.8550   10.8950 C.3   414  CXP414      0.0118
      8  C8       103.1460   46.3530   11.6580 C.3   414  CXP414      0.1141
      9  C9       102.8110   47.1200   12.9290 C.2   414  CXP414      0.3649
     10  O1       102.1190   48.1570   12.8460 O.co2 414  CXP414     -0.2457
     11  O2       103.2200   46.6910   14.0230 O.co2 414  CXP414     -0.2457
@<TRIPOS>BOND
     1     6     5    1
     2     6     1    1
     3     7     1    1
     4     7     8    1
     5     5     4    1
     6     1     2    1
     7     8     9    1
     8     4     3    1
     9     2     3    1
    10    10     9   ar
    11     9    11   ar
