@<TRIPOS>MOLECULE
2ay3_MPP_A_1.pdb
 15 15 0 0 0
SMALL
GASTEIGER

@<TRIPOS>ATOM
      1  CA        92.0080   16.8320   -4.2230 C.3   414  MPP414      0.1187
      2  C         92.1300   15.3500   -3.9350 C.2   414  MPP414      0.3652
      3  OT1       91.2610   14.7920   -3.2330 O.co2 414  MPP414     -0.2456
      4  OT2       93.1080   14.7260   -4.3990 O.co2 414  MPP414     -0.2456
      5  CB        93.3610   17.5360   -4.2810 C.3   414  MPP414      0.0383
      6  CG        94.0380   17.7460   -2.9390 C.ar  414  MPP414     -0.0184
      7  CD1       93.9850   18.9910   -2.2980 C.ar  414  MPP414      0.0358
      8  CD2       94.7680   16.7190   -2.3280 C.ar  414  MPP414     -0.0009
      9  CE1       94.6760   19.2180   -1.0970 C.ar  414  MPP414      0.1721
     10  OEA       94.6880   20.4440   -0.4440 O.3   414  MPP414     -0.4684
     11  CEA       93.9380   21.3280   -1.0440 C.3   414  MPP414      0.2526
     12  CE2       95.4350   16.9250   -1.1170 C.ar  414  MPP414      0.0397
     13  CZ        95.3980   18.1790   -0.5160 C.ar  414  MPP414      0.1724
     14  OZA       96.0770   18.4080    0.6580 O.3   414  MPP414     -0.4684
     15  CZA       97.3640   18.2390    0.4810 C.3   414  MPP414      0.2526
@<TRIPOS>BOND
     1     4     2   ar
     2     5     1    1
     3     5     6    1
     4     1     2    1
     5     2     3   ar
     6     6     8   ar
     7     6     7   ar
     8     8    12   ar
     9     7     9   ar
    10    12    13   ar
    11     9    13   ar
    12     9    10    1
    13    11    10    1
    14    13    14    1
    15    15    14    1
