@<TRIPOS>MOLECULE
2ay3_PLP_A_1.pdb
 15 15 0 0 0
SMALL
GASTEIGER

@<TRIPOS>ATOM
      1  N1        87.4350   19.9200    0.0840 N.ar  413  PLP413     -0.2452
      2  C2        87.5070   18.9930   -0.9150 C.ar  413  PLP413      0.0978
      3  C2A       86.6470   17.7240   -0.8440 C.3   413  PLP413      0.0555
      4  C3        88.3390   19.2120   -1.9840 C.ar  413  PLP413      0.2049
      5  O3        88.3880   18.2580   -2.9970 O.3   413  PLP413     -0.2857
      6  C4        89.1000   20.3880   -2.0360 C.ar  413  PLP413      0.0182
      7  C4A       89.9270   20.6400   -3.1140 C.3   413  PLP413      0.0342
      8  C5        88.9920   21.3150   -0.9940 C.ar  413  PLP413      0.0261
      9  C6        88.1690   21.0670    0.0460 C.ar  413  PLP413      0.0965
     10  C5A       89.7180   22.6540   -1.0040 C.3   413  PLP413      0.1815
     11  O4P       91.0450   22.7600   -1.4570 O.3   413  PLP413     -0.2653
     12  P         91.6610   24.1710   -1.3450 P.3   413  PLP413      0.5329
     13  O1P       90.7730   25.2040   -1.8700 O.3   413  PLP413     -0.1145
     14  O2P       92.8050   23.9140   -2.3640 O.2   413  PLP413     -0.2224
     15  O3P       92.2680   24.3190    0.0050 O.3   413  PLP413     -0.1145
@<TRIPOS>BOND
     1     7     6    1
     2     5     4    1
     3    14    12    2
     4     6     4   ar
     5     6     8   ar
     6     4     2   ar
     7    13    12    1
     8    11    12    1
     9    11    10    1
    10    12    15    1
    11    10     8    1
    12     8     9   ar
    13     2     3    1
    14     2     1   ar
    15     9     1   ar
