@<TRIPOS>MOLECULE
2ay4_PLP_A_1.pdb
 15 15 0 0 0
SMALL
GASTEIGER

@<TRIPOS>ATOM
      1  N1        87.5880   19.6200    0.0730 N.ar  413  PLP413     -0.2452
      2  C2        87.6080   18.7830   -0.9840 C.ar  413  PLP413      0.0978
      3  C2A       86.6930   17.5660   -1.0010 C.3   413  PLP413      0.0555
      4  C3        88.4300   19.0380   -2.0330 C.ar  413  PLP413      0.2049
      5  O3        88.4180   18.1540   -3.0870 O.3   413  PLP413     -0.2857
      6  C4        89.2690   20.1790   -2.0120 C.ar  413  PLP413      0.0182
      7  C4A       90.0940   20.4700   -3.0920 C.3   413  PLP413      0.0342
      8  C5        89.2190   21.0190   -0.8940 C.ar  413  PLP413      0.0261
      9  C6        88.3760   20.7150    0.1290 C.ar  413  PLP413      0.0965
     10  C5A       90.0890   22.2790   -0.7230 C.3   413  PLP413      0.1815
     11  O4P       91.0080   22.7800   -1.6640 O.3   413  PLP413     -0.2653
     12  P         91.9860   23.9550   -1.2840 P.3   413  PLP413      0.5329
     13  O1P       91.4260   25.1990   -1.7980 O.3   413  PLP413     -0.1145
     14  O2P       93.1170   23.5340   -2.2550 O.2   413  PLP413     -0.2224
     15  O3P       92.4410   23.9220    0.1110 O.3   413  PLP413     -0.1145
@<TRIPOS>BOND
     1     7     6    1
     2     5     4    1
     3    14    12    2
     4     4     6   ar
     5     4     2   ar
     6     6     8   ar
     7    13    12    1
     8    11    12    1
     9    11    10    1
    10    12    15    1
    11     3     2    1
    12     2     1   ar
    13     8    10    1
    14     8     9   ar
    15     1     9   ar
