@<TRIPOS>MOLECULE
2ay4_PPT_B_1.pdb
 12 12 0 0 0
SMALL
GASTEIGER

@<TRIPOS>ATOM
      1  CA       103.4200   46.1910   11.9400 C.3   414  PPT414      0.1187
      2  C        102.9880   47.1070   13.0690 C.2   414  PPT414      0.3652
      3  OT1      103.3660   46.8430   14.2270 O.co2 414  PPT414     -0.2456
      4  OT2      102.2590   48.0890   12.8100 O.co2 414  PPT414     -0.2456
      5  CB       102.3090   45.9170   10.9250 C.3   414  PPT414      0.0382
      6  CG       101.2300   44.9780   11.4230 C.ar  414  PPT414     -0.0216
      7  CD1      101.0550   43.7260   10.8390 C.ar  414  PPT414     -0.0046
      8  CD2      100.3730   45.3580   12.4490 C.ar  414  PPT414     -0.0046
      9  CE1      100.0430   42.8790   11.2700 C.ar  414  PPT414     -0.0046
     10  CE2       99.3640   44.5150   12.8790 C.ar  414  PPT414     -0.0046
     11  CZ        99.1840   43.2680   12.2940 C.ar  414  PPT414     -0.0219
     12  CH        98.0570   42.3740   12.7330 C.3   414  PPT414      0.0310
@<TRIPOS>BOND
     1     7     9   ar
     2     7     6   ar
     3     5     6    1
     4     5     1    1
     5     9    11   ar
     6     6     8   ar
     7     1     2    1
     8    11    12    1
     9    11    10   ar
    10     8    10   ar
    11     4     2   ar
    12     2     3   ar
