@<TRIPOS>MOLECULE
2ay5_PLP_A_1.pdb
 15 15 0 0 0
SMALL
GASTEIGER

@<TRIPOS>ATOM
      1  N1        87.6820   20.0610    0.2440 N.ar  413  PLP413     -0.2452
      2  C2        87.5760   18.9930   -0.5930 C.ar  413  PLP413      0.0978
      3  C2A       86.6640   17.8300   -0.2520 C.3   413  PLP413      0.0555
      4  C3        88.3050   18.9620   -1.7420 C.ar  413  PLP413      0.2049
      5  O3        88.1690   17.8980   -2.5880 O.3   413  PLP413     -0.2857
      6  C4        89.1450   19.9970   -2.0530 C.ar  413  PLP413      0.0182
      7  C4A       89.8810   19.9640   -3.2170 C.3   413  PLP413      0.0342
      8  C5        89.2400   21.0750   -1.2040 C.ar  413  PLP413      0.0261
      9  C6        88.5140   21.1020   -0.0590 C.ar  413  PLP413      0.0965
     10  C5A       90.1110   22.2680   -1.5800 C.3   413  PLP413      0.1815
     11  O4P       91.2030   22.5730   -0.7660 O.3   413  PLP413     -0.2653
     12  P         91.9250   23.9560   -1.0640 P.3   413  PLP413      0.5329
     13  O1P       90.9750   24.8930   -1.6790 O.3   413  PLP413     -0.1145
     14  O2P       93.0370   23.6090   -2.1410 O.2   413  PLP413     -0.2224
     15  O3P       92.5700   24.3230    0.2160 O.3   413  PLP413     -0.1145
@<TRIPOS>BOND
     1     7     6    1
     2     5     4    1
     3    14    12    2
     4     6     4   ar
     5     6     8   ar
     6     4     2   ar
     7    13    12    1
     8    10     8    1
     9    10    11    1
    10     8     9   ar
    11    12    11    1
    12    12    15    1
    13     2     3    1
    14     2     1   ar
    15     9     1   ar
