@<TRIPOS>MOLECULE
2ay5_IOP_B_1.pdb
 14 15 0 0 0
SMALL
GASTEIGER

@<TRIPOS>ATOM
      1  C1'      102.7500   47.2000   13.0140 C.2   414  IOP414      0.3652
      2  O1       103.1190   46.6940   14.0900 O.co2 414  IOP414     -0.2456
      3  O2       102.1640   48.3010   12.9540 O.co2 414  IOP414     -0.2456
      4  C2'      102.9580   46.4340   11.7300 C.3   414  IOP414      0.1188
      5  C3'      101.6630   46.2530   10.9590 C.3   414  IOP414      0.0398
      6  N1        99.0480   44.9850   13.2310 N.2   414  IOP414     -0.2442
      7  C2        99.8030   45.9970   12.6880 C.2   414  IOP414      0.0946
      8  C3       100.6350   45.5030   11.7270 C.2   414  IOP414     -0.0014
      9  C3A      100.3750   44.0950   11.6520 C.2   414  IOP414      0.0112
     10  C4       100.8880   43.0560   10.8750 C.2   414  IOP414     -0.0202
     11  C5       100.4030   41.7710   11.0750 C.3   414  IOP414      0.0521
     12  C6        99.4160   41.5110   12.0370 C.2   414  IOP414     -0.0199
     13  C7        98.8920   42.5130   12.8140 C.2   414  IOP414      0.0148
     14  C7A       99.3810   43.8080   12.6110 C.2   414  IOP414      0.0804
@<TRIPOS>BOND
     1    10    11    1
     2    10     9    2
     3     5     8    1
     4     5     4    1
     5    11    12    1
     6     9     8    1
     7     9    14    1
     8     8     7    2
     9     4     1    1
    10    12    13    2
    11    14    13    1
    12    14     6    2
    13     7     6    1
    14     3     1   ar
    15     1     2   ar
