@<TRIPOS>MOLECULE
2ay6_3IB_B_1.pdb
 15 16 0 0 0
SMALL
GASTEIGER

@<TRIPOS>ATOM
      1  N1       100.4040   42.3310   10.8140 N.2   414  3IB414     -0.2482
      2  C2       100.9530   43.4760   10.2900 C.2   414  3IB414      0.0906
      3  C3       100.5870   44.5620   11.0390 C.2   414  3IB414     -0.0159
      4  C4        99.0940   44.6580   13.1670 C.2   414  3IB414     -0.0164
      5  C5        98.3690   43.8550   14.0220 C.2   414  3IB414     -0.0038
      6  C6        98.2950   42.4640   13.8310 C.2   414  3IB414      0.0009
      7  C7        98.9370   41.8500   12.7870 C.2   414  3IB414      0.0153
      8  C8        99.6700   42.6600   11.9230 C.2   414  3IB414      0.0665
      9  C9        99.7620   44.0590   12.0920 C.3   414  3IB414      0.0819
     10  C10      100.9800   45.9940   10.8120 C.3   414  3IB414      0.0248
     11  C11      102.4890   46.2260   10.7960 C.3   414  3IB414      0.0162
     12  C12      103.1290   46.0350   12.1730 C.3   414  3IB414      0.1144
     13  C13      102.7800   47.1430   13.1550 C.2   414  3IB414      0.3649
     14  O1       103.0070   46.9670   14.3710 O.co2 414  3IB414     -0.2457
     15  O2       102.2670   48.1950   12.7220 O.co2 414  3IB414     -0.2457
@<TRIPOS>BOND
     1     2     1    1
     2     2     3    2
     3    11    10    1
     4    11    12    1
     5    10     3    1
     6     1     8    2
     7     3     9    1
     8     8     9    1
     9     8     7    1
    10     9     4    1
    11    12    13    1
    12    15    13   ar
    13     7     6    2
    14    13    14   ar
    15     4     5    2
    16     6     5    1
