@<TRIPOS>MOLECULE
2ay6_PLP_A_1.pdb
 15 15 0 0 0
SMALL
GASTEIGER

@<TRIPOS>ATOM
      1  N1        87.4920   19.6340    0.2830 N.2   413  PLP413     -0.2499
      2  C2        87.5550   18.7680   -0.7580 C.2   413  PLP413      0.0714
      3  C2A       86.7640   17.4950   -0.6990 C.3   413  PLP413      0.0503
      4  C3        88.3100   19.0770   -1.8630 C.3   413  PLP413      0.2097
      5  O3        88.3730   18.1530   -2.9450 O.3   413  PLP413     -0.2121
      6  C4        89.0100   20.3200   -1.8810 C.2   413  PLP413      0.0130
      7  C4A       89.7700   20.6710   -2.9580 C.2   413  PLP413     -0.0019
      8  C5        88.9040   21.1840   -0.7810 C.2   413  PLP413      0.0257
      9  C6        88.1530   20.8200    0.2810 C.2   413  PLP413      0.0961
     10  C5A       89.5860   22.5760   -0.7480 C.3   413  PLP413      0.1815
     11  O4P       90.9880   22.5820   -0.9980 O.3   413  PLP413     -0.2653
     12  P         91.8530   23.8980   -1.1690 P.3   413  PLP413      0.5329
     13  O1P       91.0650   24.9010   -1.8980 O.3   413  PLP413     -0.1145
     14  O2P       92.9390   23.3560   -2.1810 O.2   413  PLP413     -0.2224
     15  O3P       92.4420   24.2560    0.1360 O.3   413  PLP413     -0.1145
@<TRIPOS>BOND
     1     7     6    2
     2     5     4    1
     3    14    12    2
     4    13    12    1
     5     6     4    1
     6     6     8    1
     7     4     2    1
     8    12    11    1
     9    12    15    1
    10    11    10    1
    11     8    10    1
    12     8     9    2
    13     2     3    1
    14     2     1    2
    15     9     1    1
