@<TRIPOS>MOLECULE
2ay7_PLP_A_1.pdb
 15 15 0 0 0
SMALL
GASTEIGER

@<TRIPOS>ATOM
      1  N1        87.6600   19.8780    0.4610 N.ar  413  PLP413     -0.2452
      2  C2        87.6050   18.9270   -0.5800 C.ar  413  PLP413      0.0978
      3  C2A       86.7260   17.7830   -0.4800 C.3   413  PLP413      0.0555
      4  C3        88.3520   19.0830   -1.6910 C.ar  413  PLP413      0.2049
      5  O3        88.3090   18.1240   -2.7850 O.3   413  PLP413     -0.2857
      6  C4        89.1390   20.1810   -1.7970 C.ar  413  PLP413      0.0182
      7  C4A       89.9700   20.3390   -2.9240 C.3   413  PLP413      0.0342
      8  C5        89.1780   21.1320   -0.7470 C.ar  413  PLP413      0.0261
      9  C6        88.4330   20.9400    0.3550 C.ar  413  PLP413      0.0965
     10  C5A       89.8810   22.4350   -0.8540 C.3   413  PLP413      0.1815
     11  O4P       91.1210   22.5800   -1.3380 O.3   413  PLP413     -0.2653
     12  P         91.8320   23.9190   -1.1140 P.3   413  PLP413      0.5329
     13  O1P       91.1090   25.0480   -1.7590 O.3   413  PLP413     -0.1145
     14  O2P       92.9200   23.4260   -2.1200 O.2   413  PLP413     -0.2224
     15  O3P       92.4390   24.0140    0.2250 O.3   413  PLP413     -0.1145
@<TRIPOS>BOND
     1     7     6    1
     2     5     4    1
     3    14    12    2
     4     6     4   ar
     5     6     8   ar
     6    13    12    1
     7     4     2   ar
     8    11    12    1
     9    11    10    1
    10    12    15    1
    11    10     8    1
    12     8     9   ar
    13     2     3    1
    14     2     1   ar
    15     9     1   ar
