@<TRIPOS>MOLECULE
2ay7_CLT_B_1.pdb
 12 11 0 0 0
SMALL
GASTEIGER

@<TRIPOS>ATOM
      1  CA       103.2640   46.0900   12.1020 C.3   414  CLT414      0.1144
      2  CB1      102.5500   46.3080   10.7660 C.3   414  CLT414      0.0165
      3  CG       101.0320   46.2220   10.9040 C.3   414  CLT414      0.0266
      4  CD       100.5360   44.8920   11.3990 C.2   414  CLT414     -0.0261
      5  CE1      100.6980   43.7460   10.6330 C.2   414  CLT414     -0.0049
      6  CZ1      100.2370   42.5160   11.0860 C.2   414  CLT414     -0.0052
      7  CZ2       99.4440   43.5660   13.0940 C.3   414  CLT414     -0.0002
      8  CH        99.6130   42.4250   12.3180 C.2   414  CLT414     -0.0307
      9  CB2      102.9120   47.1340   13.1490 C.2   414  CLT414      0.3649
     10  OG1      103.0390   46.8410   14.3570 O.co2 414  CLT414     -0.2457
     11  OG2      102.5020   48.2500   12.7720 O.co2 414  CLT414     -0.2457
     12  HZ2       99.9080   44.7890   12.6330 H     414  CLT414      0.0361
@<TRIPOS>BOND
     1     5     6    1
     2     5     4    2
     3     2     3    1
     4     2     1    1
     5     3     4    1
     6     6     8    2
     7     1     9    1
     8     8     7    1
     9    12     7    1
    10    11     9   ar
    11     9    10   ar
