@<TRIPOS>MOLECULE
2ay8_4TB_A_1.pdb
 11 11 0 0 0
SMALL
GASTEIGER

@<TRIPOS>ATOM
      1  S1        94.3950   19.8500   -0.8210 S.2   414  4TB414     -0.0908
      2  C2        94.1950   18.5030   -1.9270 C.ar  414  4TB414      0.0073
      3  C3        95.1230   17.5370   -1.7350 C.ar  414  4TB414      0.0027
      4  C4        96.0490   17.8650   -0.6510 C.ar  414  4TB414      0.0072
      5  C5        95.7790   19.0540   -0.0830 C.ar  414  4TB414      0.0351
      6  C6        93.0680   18.5040   -2.9150 C.3   414  4TB414      0.0335
      7  C7        93.1720   17.3870   -3.9370 C.3   414  4TB414      0.0170
      8  C8        91.8120   16.8080   -4.2700 C.3   414  4TB414      0.1144
      9  C9        91.7940   15.3020   -4.1330 C.2   414  4TB414      0.3649
     10  O1        91.2010   14.7960   -3.1620 O.co2 414  4TB414     -0.2457
     11  O2        92.4100   14.6140   -4.9680 O.co2 414  4TB414     -0.2457
@<TRIPOS>BOND
     1    11     9   ar
     2     8     9    1
     3     8     7    1
     4     9    10   ar
     5     7     6    1
     6     6     2    1
     7     2     3   ar
     8     2     1   ar
     9     3     4   ar
    10     1     5   ar
    11     4     5   ar
