@<TRIPOS>MOLECULE
2ay8_PLP_A_1.pdb
 15 15 0 0 0
SMALL
GASTEIGER

@<TRIPOS>ATOM
      1  N1        87.2840   19.6180    0.3170 N.ar  413  PLP413     -0.2452
      2  C2        87.3280   18.7530   -0.7130 C.ar  413  PLP413      0.0978
      3  C2A       86.4610   17.5020   -0.6720 C.3   413  PLP413      0.0555
      4  C3        88.1540   19.0030   -1.7700 C.ar  413  PLP413      0.2049
      5  O3        88.1860   18.1260   -2.8090 O.3   413  PLP413     -0.2857
      6  C4        88.9450   20.1470   -1.7800 C.ar  413  PLP413      0.0182
      7  C4A       89.7590   20.4080   -2.8620 C.3   413  PLP413      0.0342
      8  C5        88.8740   21.0290   -0.6920 C.ar  413  PLP413      0.0261
      9  C6        88.0440   20.7450    0.3350 C.ar  413  PLP413      0.0965
     10  C5A       89.6750   22.3470   -0.6030 C.3   413  PLP413      0.1815
     11  O4P       90.8280   22.5470   -1.3890 O.3   413  PLP413     -0.2653
     12  P         91.6400   23.8420   -1.2080 P.3   413  PLP413      0.5329
     13  O1P       90.9640   24.9360   -1.8840 O.3   413  PLP413     -0.1145
     14  O2P       92.8500   23.4200   -2.1500 O.2   413  PLP413     -0.2224
     15  O3P       92.0620   24.0250    0.1940 O.3   413  PLP413     -0.1145
@<TRIPOS>BOND
     1     7     6    1
     2     5     4    1
     3    14    12    2
     4    13    12    1
     5     6     4   ar
     6     6     8   ar
     7     4     2   ar
     8    11    12    1
     9    11    10    1
    10    12    15    1
    11     2     3    1
    12     2     1   ar
    13     8    10    1
    14     8     9   ar
    15     1     9   ar
