@<TRIPOS>MOLECULE
2ay9_5PV_A_1.pdb
 13 13 0 0 0
SMALL
GASTEIGER

@<TRIPOS>ATOM
      1  C1        94.9910   18.5800   -1.6300 C.ar  414  5PV414     -0.0222
      2  C2        94.1730   19.6790   -1.2980 C.ar  414  5PV414     -0.0043
      3  C3        94.0930   20.1500    0.0020 C.ar  414  5PV414     -0.0003
      4  C4        94.8250   19.5370    0.9950 C.ar  414  5PV414     -0.0000
      5  C5        95.6520   18.4540    0.6830 C.ar  414  5PV414     -0.0003
      6  C6        95.7290   17.9750   -0.6300 C.ar  414  5PV414     -0.0043
      7  C7        95.0690   18.0720   -3.0400 C.3   414  5PV414      0.0264
      8  C8        93.9580   17.1070   -3.4040 C.3   414  5PV414      0.0052
      9  C9        92.5280   17.6700   -3.2480 C.3   414  5PV414      0.0121
     10  C10       91.5320   16.8440   -4.0830 C.3   414  5PV414      0.1141
     11  C11       91.6960   15.3390   -3.8720 C.2   414  5PV414      0.3649
     12  O1        91.3100   14.8270   -2.8040 O.co2 414  5PV414     -0.2457
     13  O2        92.2100   14.6570   -4.7770 O.co2 414  5PV414     -0.2457
@<TRIPOS>BOND
     1    13    11   ar
     2    10    11    1
     3    10     9    1
     4    11    12   ar
     5     8     9    1
     6     8     7    1
     7     7     1    1
     8     1     2   ar
     9     1     6   ar
    10     2     3   ar
    11     6     5   ar
    12     3     4   ar
    13     5     4   ar
