@<TRIPOS>MOLECULE
2ay9_PLP_A_1.pdb
 15 15 0 0 0
SMALL
GASTEIGER

@<TRIPOS>ATOM
      1  N1        87.2650   19.6130    0.0510 N.2   413  PLP413     -0.2499
      2  C2        87.3280   18.7500   -0.9600 C.2   413  PLP413      0.0714
      3  C2A       86.4460   17.4900   -0.8660 C.3   413  PLP413      0.0503
      4  C3        88.1870   18.9740   -2.0170 C.3   413  PLP413      0.2097
      5  O3        88.2100   18.0400   -3.0710 O.3   413  PLP413     -0.2121
      6  C4        88.9850   20.1420   -2.0150 C.2   413  PLP413      0.0130
      7  C4A       89.8050   20.4480   -3.0560 C.2   413  PLP413     -0.0019
      8  C5        88.8760   21.0210   -0.9290 C.2   413  PLP413      0.0257
      9  C6        88.0060   20.7210    0.0800 C.2   413  PLP413      0.0961
     10  C5A       89.6560   22.3370   -0.8130 C.3   413  PLP413      0.1815
     11  O4P       90.8910   22.4860   -1.4220 O.3   413  PLP413     -0.2653
     12  P         91.6910   23.8050   -1.2150 P.3   413  PLP413      0.5329
     13  O1P       90.9310   24.9440   -1.7260 O.3   413  PLP413     -0.1145
     14  O2P       92.7070   23.4560   -2.3580 O.2   413  PLP413     -0.2224
     15  O3P       92.3430   23.8620    0.1020 O.3   413  PLP413     -0.1145
@<TRIPOS>BOND
     1     5     4    1
     2     7     6    2
     3    14    12    2
     4     4     6    1
     5     4     2    1
     6     6     8    1
     7    13    12    1
     8    11    12    1
     9    11    10    1
    10    12    15    1
    11     2     3    1
    12     2     1    2
    13     8    10    1
    14     8     9    2
    15     1     9    1
