@<TRIPOS>MOLECULE
2ayl_MAN_A_1.pdb
 11 11 0 0 0
SMALL
GASTEIGER

@<TRIPOS>ATOM
      1  C1        45.1560   34.7770  155.3870 C.3   675  MAN675      0.1777
      2  C2        44.8890   35.7130  154.1970 C.3   675  MAN675      0.2141
      3  C3        44.9860   37.1840  154.6310 C.3   675  MAN675      0.2173
      4  C4        46.1940   37.4100  155.5430 C.3   675  MAN675      0.2142
      5  C5        47.1380   36.2070  155.4800 C.3   675  MAN675      0.1810
      6  C6        48.3630   36.3940  156.3500 C.3   675  MAN675      0.2141
      7  O2        43.6050   35.4550  153.6510 O.3   675  MAN675     -0.2176
      8  O3        43.8020   37.5630  155.3160 O.3   675  MAN675     -0.2175
      9  O4        46.8870   38.5820  155.1410 O.3   675  MAN675     -0.2176
     10  O5        46.4630   35.0050  155.9350 O.3   675  MAN675     -0.3481
     11  O6        49.2460   37.3520  155.7890 O.3   675  MAN675     -0.2176
@<TRIPOS>BOND
     1     7     2    1
     2     2     3    1
     3     2     1    1
     4     3     8    1
     5     3     4    1
     6     9     4    1
     7     1    10    1
     8     5     4    1
     9     5    10    1
    10     5     6    1
    11    11     6    1
