@<TRIPOS>MOLECULE
2ayl_MNH_A_1.pdb
 43 50 0 0 0
SMALL
GASTEIGER

@<TRIPOS>ATOM
      1 MN         21.2060   45.5780  185.6240 Mn    601  MNH601      0.0000
      2  CHA       22.9790   44.5340  183.1460 C.2   601  MNH601      0.0000
      3  CHB       20.0610   47.9830  183.6850 C.2   601  MNH601      0.0000
      4  CHC       19.9970   47.3770  188.2510 C.2   601  MNH601      0.0000
      5  CHD       22.8800   43.8180  187.6550 C.2   601  MNH601      0.0000
      6  NA        21.5130   46.2480  183.5850 N.ar  601  MNH601      0.0000
      7  C1A       22.1710   45.5240  182.6180 C.ar  601  MNH601      0.0000
      8  C2A       21.7860   46.0010  181.2970 C.ar  601  MNH601      0.0000
      9  C3A       20.9380   47.0450  181.4090 C.ar  601  MNH601      0.0000
     10  C4A       20.7560   47.1360  182.8560 C.ar  601  MNH601      0.0000
     11  CMA       20.2440   47.9350  180.3820 C.3   601  MNH601      0.0000
     12  CAA       22.4180   45.3510  180.0640 C.3   601  MNH601      0.0000
     13  CBA       21.3970   44.3810  179.4680 C.3   601  MNH601      0.0000
     14  CGA       21.4910   43.8120  178.0550 C.2   601  MNH601      0.0000
     15  O1A       22.5780   43.8590  177.4270 O.co2 601  MNH601      0.0000
     16  O2A       20.4110   43.2320  177.7850 O.co2 601  MNH601      0.0000
     17  NB        20.1060   47.5510  185.9180 N.2   601  MNH601      0.0000
     18  C1B       19.6810   48.4490  184.9350 C.2   601  MNH601      0.0000
     19  C2B       18.8390   49.5400  185.3610 C.2   601  MNH601      0.0000
     20  C3B       18.8450   49.2300  186.7070 C.2   601  MNH601      0.0000
     21  C4B       19.5820   48.0390  187.1090 C.2   601  MNH601      0.0000
     22  CMB       18.1980   50.5770  184.4150 C.3   601  MNH601      0.0000
     23  CAB       18.0620   50.0720  187.7130 C.3   601  MNH601      0.0000
     24  CBB       17.5680   51.4560  188.1260 C.3   601  MNH601      0.0000
     25  NC        21.4350   45.6040  187.7800 N.ar  601  MNH601      0.0000
     26  C1C       20.7620   46.3300  188.7420 C.ar  601  MNH601      0.0000
     27  C2C       21.0490   45.8200  190.0760 C.ar  601  MNH601      0.0000
     28  C3C       21.8860   44.7840  189.8970 C.ar  601  MNH601      0.0000
     29  C4C       22.1340   44.6420  188.4730 C.ar  601  MNH601      0.0000
     30  CMC       20.4030   46.3610  191.3590 C.3   601  MNH601      0.0000
     31  CAC       22.3940   43.8090  190.9510 C.3   601  MNH601      0.0000
     32  CBC       23.8090   43.4360  191.3370 C.3   601  MNH601      0.0000
     33  ND        22.9300   44.3180  185.4530 N.2   601  MNH601      0.0000
     34  C1D       23.3610   43.4490  186.4300 C.2   601  MNH601      0.0000
     35  C2D       24.4030   42.5690  185.9160 C.2   601  MNH601      0.0000
     36  C3D       24.4320   42.8610  184.5850 C.2   601  MNH601      0.0000
     37  C4D       23.4770   43.8920  184.2720 C.2   601  MNH601      0.0000
     38  CMD       25.1710   41.5460  186.7590 C.3   601  MNH601      0.0000
     39  CAD       25.2460   42.1980  183.4780 C.3   601  MNH601      0.0000
     40  CBD       26.5780   42.8990  183.2420 C.3   601  MNH601      0.0000
     41  CGD       27.3750   42.4110  182.0550 C.2   601  MNH601      0.0000
     42  O1D       27.2550   41.2790  181.5590 O.co2 601  MNH601      0.0000
     43  O2D       27.9380   43.3160  181.3900 O.co2 601  MNH601      0.0000
@<TRIPOS>BOND
     1    15    14   ar
     2    16    14   ar
     3    14    13    1
     4    13    12    1
     5    12     8    1
     6    11     9    1
     7     8     9   ar
     8     8     7   ar
     9    43    41   ar
    10     9    10   ar
    11    42    41   ar
    12    41    40    1
    13     7     2    2
    14     7     6   ar
    15    10     6   ar
    16    10     3    2
    17     2    37    1
    18    40    39    1
    19    39    36    1
    20     6     1    1
    21     3    18    1
    22    37    36    1
    23    37    33    2
    24    22    19    1
    25    36    35    2
    26    18    19    1
    27    18    17    2
    28    19    20    2
    29    33     1    1
    30    33    34    1
    31     1    17    1
    32     1    25    1
    33    35    34    1
    34    35    38    1
    35    17    21    1
    36    34     5    2
    37    20    21    1
    38    20    23    1
    39    21     4    2
    40     5    29    1
    41    23    24    1
    42    25    29   ar
    43    25    26   ar
    44     4    26    1
    45    29    28   ar
    46    26    27   ar
    47    28    27   ar
    48    28    31    1
    49    27    30    1
    50    31    32    1
