@<TRIPOS>MOLECULE
2ayl_FLP_A_1.pdb
 18 19 0 0 0
SMALL
GASTEIGER

@<TRIPOS>ATOM
      1  C         25.1180   35.0820  195.6740 C.ar  1701  FLP1701     0.0000
      2  C1        25.3200   34.3990  196.9150 C.ar  1701  FLP1701     0.0001
      3  C2        26.1830   34.9990  197.9220 C.ar  1701  FLP1701     0.0022
      4  C3        26.8080   36.2600  197.6530 C.ar  1701  FLP1701     0.0001
      5  C4        26.5830   36.9120  196.4000 C.ar  1701  FLP1701     0.0000
      6  C5        25.7400   36.3130  195.4240 C.ar  1701  FLP1701     0.0000
      7  C6        26.4060   34.2700  199.2360 C.ar  1701  FLP1701     0.0275
      8  C7        25.2940   33.7840  200.0420 C.ar  1701  FLP1701     0.0019
      9  C8        25.5640   33.0930  201.2730 C.ar  1701  FLP1701    -0.0036
     10  C9        26.9090   32.8740  201.7180 C.ar  1701  FLP1701    -0.0096
     11  C10       27.9890   33.3450  200.9400 C.ar  1701  FLP1701     0.0259
     12  C11       27.7280   34.0160  199.7480 C.ar  1701  FLP1701     0.1398
     13  C12       27.2410   32.1200  203.0440 C.3   1701  FLP1701     0.1257
     14  C13       28.3750   32.7800  203.8510 C.3   1701  FLP1701     0.0166
     15  C14       27.4880   30.6710  202.6540 C.2   1701  FLP1701     0.3683
     16  O         28.5020   30.2670  202.1490 O.co2 1701  FLP1701    -0.2453
     17  O1        26.4880   29.9000  202.9220 O.co2 1701  FLP1701    -0.2453
     18  F         28.8290   34.4330  199.0630 F     1701  FLP1701    -0.2042
@<TRIPOS>BOND
     1     6     1   ar
     2     6     5   ar
     3     1     2   ar
     4     5     4   ar
     5     2     3   ar
     6     4     3   ar
     7     3     7    1
     8    18    12    1
     9     7    12   ar
    10     7     8   ar
    11    12    11   ar
    12     8     9   ar
    13    11    10   ar
    14     9    10   ar
    15    10    13    1
    16    16    15   ar
    17    15    17   ar
    18    15    13    1
    19    13    14    1
