@<TRIPOS>MOLECULE
2ayp_43A_A_1.pdb
 25 28 0 0 0
SMALL
GASTEIGER

@<TRIPOS>ATOM
      1  C1        11.8800   -3.4810   15.0870 C.ar  270  43A270      0.2293
      2  C2        11.1140   -2.2090   15.1650 C.ar  270  43A270      0.1774
      3  C3         9.7490   -2.2520   15.7760 C.ar  270  43A270      0.0402
      4  C4         9.1680   -3.4930   16.2880 C.ar  270  43A270      0.0033
      5  C5         9.9650   -4.7120   16.1830 C.ar  270  43A270      0.0035
      6  C6        11.2930   -4.7110   15.5960 C.ar  270  43A270      0.0452
      7  O7        13.1580   -3.5130   14.5320 O.3   270  43A270     -0.2833
      8  O8        11.7880   -1.0420   14.6300 O.3   270  43A270     -0.4682
      9  C9        11.7100    0.2220   15.2860 C.3   270  43A270      0.2526
     10  C10        7.7800   -3.5120   16.9090 C.ar  270  43A270      0.0027
     11  C11        7.3700   -2.4480   17.8560 C.ar  270  43A270      0.0330
     12  C12        6.0340   -2.4760   18.4390 C.ar  270  43A270      0.1448
     13  C13        5.1020   -3.5150   18.1210 C.ar  270  43A270      0.0388
     14  C14        5.4640   -4.5820   17.1950 C.ar  270  43A270      0.0030
     15  C15        6.8040   -4.5680   16.6000 C.ar  270  43A270      0.0002
     16  N16        5.4650   -1.6090   19.3160 N.2   270  43A270     -0.3331
     17  C17        4.1910   -1.9840   19.6200 C.1   270  43A270      0.2010
     18  C18        3.8210   -3.2850   18.8580 C.2   270  43A270      0.0805
     19  O19        3.4730   -1.3460   20.3940 O.2   270  43A270     -0.2096
     20  C20        2.7120   -4.0880   18.7820 C.3   270  43A270      0.0809
     21  C21        1.3370   -3.7400   19.2330 C.2   270  43A270      0.0464
     22  N22        1.0230   -2.7190   19.7800 N.2   270  43A270     -0.2521
     23  C23       -0.4070   -2.6860   20.0990 C.2   270  43A270      0.0939
     24  C24       -0.8870   -3.8410   19.6560 C.2   270  43A270      0.0004
     25  C25        0.2590   -4.5280   19.0890 C.3   270  43A270      0.0692
@<TRIPOS>BOND
     1     7     1    1
     2     8     2    1
     3     8     9    1
     4     1     2   ar
     5     1     6   ar
     6     2     3   ar
     7     6     5   ar
     8     3     4   ar
     9     5     4   ar
    10     4    10    1
    11    15    10   ar
    12    15    14   ar
    13    10    11   ar
    14    14    13   ar
    15    11    12   ar
    16    13    12   ar
    17    13    18    2
    18    12    16    2
    19    20    18    1
    20    20    21    1
    21    18    17    1
    22    25    21    1
    23    25    24    1
    24    21    22    2
    25    16    17    2
    26    17    19    2
    27    24    23    2
    28    22    23    1
