@<TRIPOS>MOLECULE
2ayr_L4G_A_1.pdb
 37 41 0 0 0
SMALL
GASTEIGER

@<TRIPOS>ATOM
      1  C5        32.2070    0.4660   28.2400 C.ar  201  L4G201      0.0030
      2  C6        29.8570    1.3550   28.2530 C.ar  201  L4G201      0.0030
      3  C7        27.9180   -0.0290   27.6560 C.ar  201  L4G201      0.0061
      4  C8        28.2180   -2.4130   27.0040 C.ar  201  L4G201      0.0063
      5  C10       32.8720    1.6290   27.7200 C.ar  201  L4G201      0.0014
      6  C13       26.5200   -0.1610   27.4720 C.ar  201  L4G201      0.0421
      7  C15       32.6480   -3.1980   25.8070 C.ar  201  L4G201      0.0406
      8  C17       34.2670    1.8030   27.9250 C.ar  201  L4G201      0.0183
      9  C20       33.2880   -3.2900   24.5500 C.ar  201  L4G201      0.0400
     10  C21       31.9560   -1.3950   23.7080 C.ar  201  L4G201      0.0400
     11  C22       35.0090    0.8240   28.6360 C.ar  201  L4G201      0.1057
     12  C24       32.9480   -2.3840   23.4780 C.ar  201  L4G201      0.1388
     13  C1        30.2020   -1.0240   27.5980 C.ar  201  L4G201      0.1451
     14  C2        30.7510    0.2590   28.0310 C.ar  201  L4G201      0.0346
     15  C3        28.7900   -1.1620   27.4180 C.ar  201  L4G201      0.0348
     16  O4        31.0320   -2.1570   27.3520 O.3   201  L4G201     -0.4535
     17  C9        31.6570   -2.2140   26.0460 C.ar  201  L4G201      0.1455
     18  C11       32.9800   -0.5030   28.9590 C.ar  201  L4G201      0.0014
     19  C12       28.4600    1.2130   28.0670 C.ar  201  L4G201      0.0003
     20  C14       26.8220   -2.5290   26.8260 C.ar  201  L4G201      0.0421
     21  C16       31.3180   -1.3050   24.9650 C.ar  201  L4G201      0.0406
     22  C18       34.3670   -0.3240   29.1540 C.ar  201  L4G201      0.0183
     23  C19       25.9730   -1.4110   27.0580 C.ar  201  L4G201      0.1957
     24  O23       24.6510   -1.5330   26.8790 O.3   201  L4G201     -0.2866
     25  S25       36.7580    1.0300   28.9080 S.O2  201  L4G201      0.0104
     26  O26       33.5370   -2.4060   22.1890 O.3   201  L4G201     -0.4740
     27  C27       38.0420   -0.2180   28.5040 C.3   201  L4G201      0.1816
     28  O28       36.9320    1.3850   30.3880 O.2   201  L4G201     -0.1686
     29  O29       37.1800    2.3840   28.3060 O.2   201  L4G201     -0.1686
     30  C30       34.2630   -3.5730   21.7600 C.3   201  L4G201      0.2226
     31  C31       33.2780   -4.5520   21.0860 C.3   201  L4G201      0.1200
     32  N32       32.5200   -4.1440   19.9020 N.3   201  L4G201     -0.2696
     33  C33       33.4010   -3.4750   18.9190 C.3   201  L4G201      0.0722
     34  C34       31.3630   -3.2510   20.2030 C.3   201  L4G201      0.0722
     35  C35       32.6540   -3.3240   17.5790 C.3   201  L4G201      0.0174
     36  C36       30.4990   -3.0460   18.9390 C.3   201  L4G201      0.0174
     37  C37       31.3680   -2.4930   17.7890 C.3   201  L4G201      0.0029
@<TRIPOS>BOND
     1    35    37    1
     2    35    33    1
     3    37    36    1
     4    33    32    1
     5    36    34    1
     6    32    34    1
     7    32    31    1
     8    31    30    1
     9    30    26    1
    10    26    12    1
    11    12    10   ar
    12    12     9   ar
    13    10    21   ar
    14     9     7   ar
    15    21    17   ar
    16     7    17   ar
    17    17    16    1
    18    20     4   ar
    19    20    23   ar
    20    24    23    1
    21     4    15   ar
    22    23     6   ar
    23    16    13    1
    24    15    13   ar
    25    15     3   ar
    26     6     3   ar
    27    13    14   ar
    28     3    19   ar
    29     5     8   ar
    30     5     1   ar
    31     8    11   ar
    32    14     1    1
    33    14     2   ar
    34    19     2   ar
    35     1    18   ar
    36    29    25    2
    37    27    25    1
    38    11    25    1
    39    11    22   ar
    40    25    28    2
    41    18    22   ar
