@<TRIPOS>MOLECULE
2ays_MAN_A_1.pdb
 11 11 0 0 0
SMALL
GASTEIGER

@<TRIPOS>ATOM
      1  C1        21.2020    1.3550   -6.1790 C.3     9  MAN9        0.1777
      2  C2        20.0500    0.4410   -5.7710 C.3     9  MAN9        0.2141
      3  C3        20.3850   -1.0270   -6.0260 C.3     9  MAN9        0.2173
      4  C4        21.5920   -1.2220   -6.9570 C.3     9  MAN9        0.2142
      5  C5        21.6560   -0.1230   -8.0360 C.3     9  MAN9        0.1810
      6  C6        20.6360   -0.3570   -9.1560 C.3     9  MAN9        0.2141
      7  O2        18.8870    0.7940   -6.4900 O.3     9  MAN9       -0.2176
      8  O3        19.2570   -1.7140   -6.5270 O.3     9  MAN9       -0.2175
      9  O4        22.7510   -1.4550   -6.1300 O.3     9  MAN9       -0.2176
     10  O5        21.4490    1.2000   -7.5590 O.3     9  MAN9       -0.3481
     11  O6        19.6260    0.6340   -9.1280 O.3     9  MAN9       -0.2176
@<TRIPOS>BOND
     1     6    11    1
     2     6     5    1
     3     5    10    1
     4     5     4    1
     5    10     1    1
     6     4     9    1
     7     4     3    1
     8     8     3    1
     9     7     2    1
    10     1     2    1
    11     3     2    1
