@<TRIPOS>MOLECULE
2ays_A2G_A_1.pdb
 15 15 0 0 0
SMALL
GASTEIGER

@<TRIPOS>ATOM
      1  O         13.6120   16.0330   15.7970 O.3   690  A2G690     -0.3242
      2  C1        13.4630   17.3070   15.1850 C.3   690  A2G690      0.2917
      3  O1        12.7330   17.1690   13.9690 O.3   690  A2G690     -0.1879
      4  C2        14.8550   17.8730   14.9170 C.3   690  A2G690      0.1871
      5  N2        14.6460   19.0750   14.1190 N.am  690  A2G690     -0.1991
      6  C3        15.6820   16.8950   14.0880 C.3   690  A2G690      0.2095
      7  O3        17.0220   17.3650   13.9780 O.3   690  A2G690     -0.2183
      8  C4        15.7230   15.5440   14.7900 C.3   690  A2G690      0.2136
      9  O4        16.4440   15.6910   16.0050 O.3   690  A2G690     -0.2176
     10  C5        14.3370   15.0130   15.1240 C.3   690  A2G690      0.1835
     11  C6        14.4780   13.7940   16.0250 C.3   690  A2G690      0.2142
     12  O6        13.4630   12.8470   15.7510 O.3   690  A2G690     -0.2176
     13  C7        15.1210   20.2460   14.5450 C.2   690  A2G690      0.2421
     14  O7        15.7410   20.3420   15.5970 O.2   690  A2G690     -0.2733
     15  C8        14.8450   21.4270   13.6560 C.3   690  A2G690      0.0964
@<TRIPOS>BOND
     1    15    13    1
     2     3     2    1
     3     7     6    1
     4     6     8    1
     5     6     4    1
     6     5    13   am
     7     5     4    1
     8    13    14    2
     9     8    10    1
    10     8     9    1
    11     4     2    1
    12    10     1    1
    13    10    11    1
    14     2     1    1
    15    12    11    1
