@<TRIPOS>MOLECULE
2ays_NAG_A_1.pdb
 14 14 0 0 0
SMALL
GASTEIGER

@<TRIPOS>ATOM
      1  C1        43.5200    9.2870   20.6780 C.3     1  NAG1        0.1665
      2  C2        43.5640    9.5930   19.1800 C.3     1  NAG1        0.1576
      3  C3        44.5140   10.7390   18.8490 C.3     1  NAG1        0.2069
      4  C4        44.2750   11.9460   19.7360 C.3     1  NAG1        0.2134
      5  C5        43.9910   11.5760   21.1900 C.3     1  NAG1        0.1809
      6  C6        43.2970   12.7800   21.8160 C.3     1  NAG1        0.2141
      7  C7        43.1480    7.6900   17.7120 C.2     1  NAG1        0.2420
      8  C8        43.7810    6.7110   16.7700 C.3     1  NAG1        0.0964
      9  N2        43.9930    8.4330   18.4320 N.am    1  NAG1       -0.2019
     10  O3        44.3230   11.1340   17.5000 O.3     1  NAG1       -0.2184
     11  O4        45.4070   12.7910   19.6770 O.3     1  NAG1       -0.2176
     12  O5        43.1200   10.4610   21.3280 O.3     1  NAG1       -0.3489
     13  O6        42.3380   13.2380   20.8780 O.3     1  NAG1       -0.2176
     14  O7        41.9190    7.7640   17.8060 O.2     1  NAG1       -0.2733
@<TRIPOS>BOND
     1     8     7    1
     2    10     3    1
     3     7    14    2
     4     7     9   am
     5     9     2    1
     6     3     2    1
     7     3     4    1
     8     2     1    1
     9    11     4    1
    10     4     5    1
    11     1    12    1
    12    13     6    1
    13     5    12    1
    14     5     6    1
