@<TRIPOS>MOLECULE
2ayw_ONO_A_1.pdb
 39 41 0 0 0
SMALL
GASTEIGER

@<TRIPOS>ATOM
      1  O32       24.2540   25.1620   26.7670 O.2   501  ONO501     -0.2684
      2  C30       23.3300   24.3610   26.5770 C.2   501  ONO501      0.2648
      3  N31       22.3740   24.2560   25.5980 N.am  501  ONO501     -0.2007
      4  C34       22.4600   25.0380   24.3250 C.3   501  ONO501      0.1284
      5  C66       21.8960   26.4120   24.4290 C.3   501  ONO501      0.2036
      6  O67       22.6270   27.2990   25.3110 O.3   501  ONO501     -0.2185
      7  C35       22.3640   24.1720   23.0430 C.3   501  ONO501      0.0210
      8  C62       22.5530   25.0140   21.7910 C.3   501  ONO501      0.0018
      9  C37       23.4720   23.0910   23.0790 C.3   501  ONO501      0.0018
     10  C36       20.9310   23.5680   22.8490 C.3   501  ONO501      0.0018
     11  C24       23.2440   23.4640   27.6700 C.ar  501  ONO501      0.0552
     12  C23       23.5460   23.8400   28.9340 C.ar  501  ONO501      0.0046
     13  C22       23.5040   22.9140   29.9670 C.ar  501  ONO501      0.0004
     14  C25       23.0520   22.0910   27.3530 C.ar  501  ONO501      0.0111
     15  C26       22.9930   21.1680   28.3560 C.ar  501  ONO501      0.0800
     16  C27       22.6340   19.7440   28.0080 C.2   501  ONO501      0.3878
     17  O29       23.2420   19.2010   27.0860 O.co2 501  ONO501     -0.2406
     18  O28       21.7130   19.2040   28.6340 O.co2 501  ONO501     -0.2406
     19  C21       23.1730   21.5890   29.7020 C.ar  501  ONO501      0.0087
     20  C20       23.1170   20.6570   30.8310 C.2   501  ONO501      0.0308
     21  C19       22.0510   20.8740   31.7680 C.2   501  ONO501     -0.0125
     22  C18       21.7710   19.9670   32.7790 C.3   501  ONO501      0.1251
     23  C17       22.5530   18.8150   32.8220 C.2   501  ONO501      0.2570
     24  O44       22.2500   17.9000   33.7720 O.2   501  ONO501     -0.4505
     25  C58       23.0550   16.7140   33.7920 C.3   501  ONO501      0.2550
     26  N16       23.5450   18.5860   31.9320 N.2   501  ONO501     -0.3664
     27  C15       23.7890   19.5020   30.9210 C.2   501  ONO501      0.1892
     28  C13       24.9670   19.1300   30.1870 C.2   501  ONO501      0.2988
     29  O14       25.7780   19.9250   29.9610 O.2   501  ONO501     -0.2652
     30  N7        25.1880   17.8330   29.9400 N.am  501  ONO501     -0.1733
     31  C1        26.3400   17.2780   29.3740 C.ar  501  ONO501      0.0738
     32  C6        27.6030   17.8370   29.5360 C.ar  501  ONO501      0.0169
     33  C5        28.7260   17.1920   29.0640 C.ar  501  ONO501      0.0093
     34  C4        28.6190   15.9530   28.4400 C.ar  501  ONO501      0.0976
     35  C8        29.8040   15.2420   27.9740 C.2   501  ONO501      0.4766
     36  N10       29.7380   13.9670   27.6080 N.pl3 501  ONO501      0.2047
     37  N9        30.9750   15.8590   27.9120 N.pl3 501  ONO501      0.2047
     38  C3        27.3560   15.4190   28.2430 C.ar  501  ONO501      0.0093
     39  C2        26.2310   16.0710   28.7190 C.ar  501  ONO501      0.0169
@<TRIPOS>BOND
     1     8     7    1
     2    10     7    1
     3     7     9    1
     4     7     4    1
     5     4     5    1
     6     4     3    1
     7     5     6    1
     8     3     2   am
     9     2     1    2
    10     2    11    1
    11    17    16   ar
    12    14    11   ar
    13    14    15   ar
    14    36    35    2
    15    11    12   ar
    16    37    35    1
    17    35    34    1
    18    16    15    1
    19    16    18   ar
    20    38    34   ar
    21    38    39   ar
    22    15    19   ar
    23    34    33   ar
    24    39    31   ar
    25    12    13   ar
    26    33    32   ar
    27    31    32   ar
    28    31    30    1
    29    19    13   ar
    30    19    20    1
    31    30    28   am
    32    29    28    2
    33    28    27    1
    34    20    27    1
    35    20    21    2
    36    27    26    2
    37    21    22    1
    38    26    23    2
    39    22    23    1
    40    23    24    1
    41    24    25    1
