@<TRIPOS>MOLECULE
2az3_CDP_A_1.pdb
 25 26 0 0 0
SMALL
GASTEIGER

@<TRIPOS>ATOM
      1  O3B      -12.7760   14.8340   18.6720 O.2   1100  CDP1100    -0.2221
      2  PB       -12.7740   14.4600   20.2440 P.3   1100  CDP1100     0.5373
      3  O1B      -14.2660   14.1110   20.7210 O.3   1100  CDP1100    -0.1143
      4  O2B      -11.8390   13.2040   20.5580 O.3   1100  CDP1100    -0.1143
      5  O3A      -12.0420   15.5910   21.0850 O.3   1100  CDP1100    -0.2261
      6  PA       -12.6530   16.7890   21.9490 P.3   1100  CDP1100     0.2231
      7  O1A      -14.2590   16.8590   22.0260 O.2   1100  CDP1100    -0.5169
      8  O2A      -11.8940   16.5630   23.3200 O.3   1100  CDP1100    -0.4370
      9  O5'      -12.0970   18.0690   21.2230 O.3   1100  CDP1100    -0.3111
     10  C5'      -12.6610   18.2890   19.9500 C.3   1100  CDP1100     0.1813
     11  C4'      -11.5780   18.7790   19.0000 C.3   1100  CDP1100     0.1799
     12  O4'      -11.1700   20.1250   19.2300 O.3   1100  CDP1100    -0.3320
     13  C3'      -10.3520   17.9170   18.9080 C.3   1100  CDP1100     0.2158
     14  O3'      -10.4000   16.9970   17.8500 O.3   1100  CDP1100    -0.2175
     15  C2'       -9.2280   18.8920   18.8100 C.3   1100  CDP1100     0.2319
     16  O2'       -8.8980   18.9580   17.4380 O.3   1100  CDP1100    -0.2157
     17  C1'       -9.7680   20.2660   19.1080 C.3   1100  CDP1100     0.2400
     18  N1        -9.0300   20.7720   20.2930 N.am  1100  CDP1100    -0.1778
     19  C2        -8.1740   21.8510   20.0150 C.1   1100  CDP1100     0.2756
     20  O2        -8.1540   22.3140   18.8660 O.2   1100  CDP1100    -0.1925
     21  N3        -7.4030   22.4290   20.9400 N.2   1100  CDP1100    -0.3024
     22  C4        -7.4190   21.9310   22.1810 C.2   1100  CDP1100     0.2346
     23  N4        -6.6140   22.5680   23.0400 N.pl3 1100  CDP1100    -0.0921
     24  C5        -8.2340   20.8370   22.5070 C.2   1100  CDP1100     0.0687
     25  C6        -9.0480   20.2420   21.5170 C.2   1100  CDP1100     0.0836
@<TRIPOS>BOND
     1    16    15    1
     2    14    13    1
     3     1     2    2
     4    15    13    1
     5    15    17    1
     6    20    19    2
     7    13    11    1
     8    11    12    1
     9    11    10    1
    10    17    12    1
    11    17    18    1
    12    10     9    1
    13    19    18   am
    14    19    21    2
    15     2     4    1
    16     2     3    1
    17     2     5    1
    18    18    25    1
    19    21    22    2
    20     5     6    1
    21     9     6    1
    22    25    24    2
    23     6     7    2
    24     6     8    1
    25    22    24    1
    26    22    23    1
