@<TRIPOS>MOLECULE
2az5_307_A_1.pdb
 40 44 0 0 0
SMALL
GASTEIGER

@<TRIPOS>ATOM
      1  F9       -16.5600   70.3360   36.1580 F       1  3071       -0.1659
      2  C7       -15.8540   71.4690   36.2620 C.3     1  3071        0.4186
      3  F10      -14.6290   71.0840   35.9370 F       1  3071       -0.1659
      4  F8       -15.8090   71.9650   37.4750 F       1  3071       -0.1659
      5  C6       -16.3390   72.4100   35.1830 C.ar    1  3071        0.0729
      6  C11      -17.6590   72.3880   34.7240 C.ar    1  3071        0.0214
      7  C5       -15.4290   73.2600   34.5740 C.ar    1  3071        0.0039
      8  C4       -15.8650   74.0760   33.5430 C.ar    1  3071        0.0014
      9  C3       -17.1950   74.0420   33.1310 C.ar    1  3071        0.0175
     10  C1       -18.1670   73.2040   33.6900 C.ar    1  3071        0.0640
     11  N2       -19.4480   73.2000   33.2410 N.ar    1  3071       -0.3052
     12  C12      -19.8930   73.9820   32.2240 C.ar    1  3071        0.0771
     13  C16      -20.4260   72.4410   33.7610 C.ar    1  3071        0.0638
     14  C20      -20.6080   71.4650   34.8110 C.ar    1  3071        0.0175
     15  C19      -21.8750   70.8890   35.0210 C.ar    1  3071        0.0015
     16  C18      -22.9880   71.2370   34.2500 C.ar    1  3071        0.0001
     17  C15      -21.5420   72.7650   33.0240 C.ar    1  3071        0.0149
     18  C17      -22.8480   72.1890   33.2380 C.ar    1  3071        0.0012
     19  C13      -21.2710   73.7390   32.0880 C.ar    1  3071        0.0128
     20  C14      -22.3050   74.2100   31.0930 C.3     1  3071        0.1008
     21  N21      -22.8040   75.5370   30.8910 N.3     1  3071       -0.2665
     22  C22      -23.6960   76.1190   31.8770 C.3     1  3071        0.0899
     23  C23      -22.5030   76.1330   29.5960 C.3     1  3071        0.0899
     24  C24      -22.0110   77.5610   29.7640 C.3     1  3071        0.0897
     25  N25      -20.6990   77.5470   30.4010 N.3     1  3071       -0.2698
     26  C28      -19.6370   76.6140   30.0370 C.3     1  3071        0.0897
     27  C26      -20.5150   78.5670   31.3990 C.3     1  3071        0.0837
     28  C27      -19.7610   78.0520   32.5940 C.3     1  3071        0.1215
     29  C29      -18.4910   78.4640   32.7370 C.3     1  3071        0.2144
     30  O30      -17.8540   78.3100   34.0250 O.3     1  3071       -0.4749
     31  C31      -18.3170   77.3690   34.8990 C.ar    1  3071        0.1409
     32  C32      -19.5420   76.7720   34.6710 C.ar    1  3071        0.0684
     33  C35      -20.0470   75.8310   35.5590 C.ar    1  3071        0.0013
     34  C33      -20.3280   77.2140   33.4790 C.2     1  3071        0.1805
     35  O34      -21.4920   76.8530   33.3840 O.2     1  3071       -0.2911
     36  C40      -17.5680   77.0260   36.0140 C.ar    1  3071        0.0324
     37  C38      -18.0570   76.0750   36.8950 C.ar    1  3071       -0.0228
     38  C39      -17.1800   75.7460   38.0770 C.3     1  3071        0.0308
     39  C36      -19.2940   75.4650   36.6610 C.ar    1  3071       -0.0255
     40  C37      -19.8780   74.4240   37.5940 C.3     1  3071        0.0307
@<TRIPOS>BOND
     1    23    24    1
     2    23    21    1
     3    24    25    1
     4    26    25    1
     5    25    27    1
     6    21    20    1
     7    21    22    1
     8    20    19    1
     9    27    28    1
    10    19    12   ar
    11    19    17   ar
    12    12    11   ar
    13    28    29    1
    14    28    34    1
    15    29    30    1
    16    17    18   ar
    17    17    13   ar
    18     9     8   ar
    19     9    10   ar
    20    18    16   ar
    21    11    10    1
    22    11    13   ar
    23    35    34    2
    24    34    32    1
    25     8     7   ar
    26    10     6   ar
    27    13    14   ar
    28    30    31    1
    29    16    15   ar
    30     7     5   ar
    31    32    31   ar
    32    32    33   ar
    33     6     5   ar
    34    14    15   ar
    35    31    36   ar
    36     5     2    1
    37    33    39   ar
    38     3     2    1
    39    36    37   ar
    40     1     2    1
    41     2     4    1
    42    39    37   ar
    43    39    40    1
    44    37    38    1
