@<TRIPOS>MOLECULE
2az8_3TL_A_1.pdb
 33 34 0 0 0
SMALL
GASTEIGER

@<TRIPOS>ATOM
      1  C31      -27.1160   38.0960   19.2660 C.2   200  3TL200      0.4218
      2  O8       -27.2050   39.3340   19.2570 O.2   200  3TL200     -0.2245
      3  O9       -27.3250   37.5400   18.0500 O.3   200  3TL200     -0.4285
      4  CA       -28.2130   38.1180   17.1260 C.3   200  3TL200      0.2368
      5  C        -29.6130   38.4910   17.3220 C.ar  200  3TL200      0.0213
      6  C13      -29.9660   39.7100   16.5430 C.ar  200  3TL200     -0.0007
      7  C14      -31.2700   40.1690   16.6460 C.ar  200  3TL200     -0.0002
      8  C15      -32.2020   39.4300   17.5070 C.ar  200  3TL200     -0.0000
      9  C16      -31.8590   38.2020   18.2980 C.ar  200  3TL200     -0.0002
     10  C17      -30.4980   37.7100   18.1980 C.ar  200  3TL200     -0.0007
     11  N4       -26.8780   37.1090   20.1170 N.am  200  3TL200     -0.1611
     12  C18      -26.6230   37.2710   21.4170 C.3   200  3TL200      0.1762
     13  C19      -25.1420   37.0150   21.7730 C.2   200  3TL200      0.2617
     14  O4       -24.5030   36.0030   21.3890 O.2   200  3TL200     -0.2715
     15  C20      -27.6020   36.2060   22.0180 C.3   200  3TL200      0.0335
     16  N2       -24.6950   37.9970   22.5700 N.am  200  3TL200     -0.1963
     17  C10      -23.3420   38.1000   23.1880 C.3   200  3TL200      0.1727
     18  C11      -23.5470   38.4730   24.6480 C.2   200  3TL200      0.2612
     19  O2       -23.7860   39.5560   25.1520 O.2   200  3TL200     -0.2715
     20  C12      -22.4330   39.0530   22.3770 C.3   200  3TL200      0.0290
     21  CG2      -22.2220   38.6210   20.9060 C.3   200  3TL200      0.0023
     22  CG1      -21.0950   39.1160   23.0460 C.3   200  3TL200      0.0023
     23  C2       -22.3020   36.4660   27.2640 C.3   200  3TL200      0.2039
     24  O1       -22.0650   35.2140   26.8080 O.3   200  3TL200     -0.2185
     25  C1       -23.5000   37.3670   26.9690 C.3   200  3TL200      0.1325
     26  N1       -23.4030   37.4180   25.4500 N.am  200  3TL200     -0.2027
     27  C3       -24.7470   36.8200   27.4780 C.3   200  3TL200      0.0507
     28  C4       -26.0620   37.1720   27.0740 C.ar  200  3TL200     -0.0204
     29  C5       -26.8090   36.5680   25.9410 C.ar  200  3TL200     -0.0042
     30  C9       -26.5890   38.1760   27.8800 C.ar  200  3TL200     -0.0042
     31  C6       -28.1640   37.0350   25.6160 C.ar  200  3TL200     -0.0003
     32  C8       -27.8830   38.6540   27.6130 C.ar  200  3TL200     -0.0003
     33  C7       -28.6690   38.0830   26.4860 C.ar  200  3TL200     -0.0000
@<TRIPOS>BOND
     1     6     7   ar
     2     6     5   ar
     3     7     8   ar
     4     4     5    1
     5     4     3    1
     6     5    10   ar
     7     8     9   ar
     8     3     1    1
     9    10     9   ar
    10     2     1    2
    11     1    11   am
    12    11    12    1
    13    21    20    1
    14    14    13    2
    15    12    13    1
    16    12    15    1
    17    13    16   am
    18    20    22    1
    19    20    17    1
    20    16    17    1
    21    17    18    1
    22    18    19    2
    23    18    26   am
    24    26    25    1
    25    31    29   ar
    26    31    33   ar
    27    29    28   ar
    28    33    32   ar
    29    24    23    1
    30    25    23    1
    31    25    27    1
    32    28    27    1
    33    28    30   ar
    34    32    30   ar
