@<TRIPOS>MOLECULE
2az9_3TL_A_1.pdb
 33 34 0 0 0
SMALL
GASTEIGER

@<TRIPOS>ATOM
      1  C31       15.5740   58.5820   33.2330 C.2   200  3TL200      0.4218
      2  O8        16.7050   58.1020   33.4310 O.2   200  3TL200     -0.2245
      3  O9        15.3550   58.8660   31.9460 O.3   200  3TL200     -0.4285
      4  CA        15.6170   60.1340   31.4390 C.3   200  3TL200      0.2368
      5  C         16.8830   60.8280   31.3730 C.ar  200  3TL200      0.0213
      6  C13       17.8180   60.1720   30.4060 C.ar  200  3TL200     -0.0007
      7  C14       19.0660   60.7600   30.2560 C.ar  200  3TL200     -0.0002
      8  C15       19.3720   61.9730   31.0520 C.ar  200  3TL200     -0.0000
      9  C16       18.4380   62.6350   32.0250 C.ar  200  3TL200     -0.0002
     10  C17       17.1300   62.0340   32.1940 C.ar  200  3TL200     -0.0007
     11  N4        14.4730   58.9200   33.8900 N.am  200  3TL200     -0.1611
     12  C18       14.2600   58.8090   35.1890 C.3   200  3TL200      0.1762
     13  C19       13.3200   57.6450   35.5450 C.2   200  3TL200      0.2617
     14  O4        12.0910   57.5550   35.2170 O.2   200  3TL200     -0.2715
     15  C20       13.7480   60.2410   35.4820 C.3   200  3TL200      0.0335
     16  N2        14.0300   56.7730   36.2460 N.am  200  3TL200     -0.1963
     17  C10       13.5790   55.4990   36.8190 C.3   200  3TL200      0.1727
     18  C11       13.9890   55.5170   38.2860 C.2   200  3TL200      0.2612
     19  O2        15.0550   55.2180   38.8420 O.2   200  3TL200     -0.2715
     20  C12       14.0730   54.3160   35.9300 C.3   200  3TL200      0.0290
     21  CG2       13.6040   54.3760   34.4520 C.3   200  3TL200      0.0023
     22  CG1       13.6250   52.9860   36.4700 C.3   200  3TL200      0.0023
     23  C2        11.6590   55.3810   40.8920 C.3   200  3TL200      0.2039
     24  O1        10.4790   55.8270   40.4000 O.3   200  3TL200     -0.2185
     25  C1        12.9760   56.0840   40.5510 C.3   200  3TL200      0.1325
     26  N1        12.9910   55.9290   39.0480 N.am  200  3TL200     -0.2027
     27  C3        13.4360   57.3960   41.0890 C.3   200  3TL200      0.0507
     28  C4        13.7000   58.6390   40.3910 C.ar  200  3TL200     -0.0204
     29  C5        12.6690   59.5670   39.8100 C.ar  200  3TL200     -0.0042
     30  C9        15.0810   58.9140   40.3170 C.ar  200  3TL200     -0.0042
     31  C6        13.0640   60.8350   39.1240 C.ar  200  3TL200     -0.0003
     32  C8        15.5040   60.1200   39.6650 C.ar  200  3TL200     -0.0003
     33  C7        14.5040   61.0810   39.0700 C.ar  200  3TL200     -0.0000
@<TRIPOS>BOND
     1     7     6   ar
     2     7     8   ar
     3     6     5   ar
     4     8     9   ar
     5     5     4    1
     6     5    10   ar
     7     4     3    1
     8     3     1    1
     9     9    10   ar
    10     1     2    2
    11     1    11   am
    12    11    12    1
    13    21    20    1
    14    12    15    1
    15    12    13    1
    16    14    13    2
    17    13    16   am
    18    20    22    1
    19    20    17    1
    20    16    17    1
    21    17    18    1
    22    18    19    2
    23    18    26   am
    24    26    25    1
    25    33    31   ar
    26    33    32   ar
    27    31    29   ar
    28    32    30   ar
    29    29    28   ar
    30    30    28   ar
    31    28    27    1
    32    24    23    1
    33    25    23    1
    34    25    27    1
