@<TRIPOS>MOLECULE
2azb_3TL_A_1.pdb
 33 34 0 0 0
SMALL
GASTEIGER

@<TRIPOS>ATOM
      1  C31      -26.8470   37.2260   19.4730 C.2   200  3TL200      0.4218
      2  O8       -26.7550   38.4970   19.6010 O.2   200  3TL200     -0.2245
      3  O9       -27.1880   36.6440   18.0940 O.3   200  3TL200     -0.4285
      4  CA       -27.9010   37.4160   17.1510 C.3   200  3TL200      0.2368
      5  C        -29.3770   37.6270   17.4000 C.ar  200  3TL200      0.0213
      6  C13      -29.8650   38.9920   17.4440 C.ar  200  3TL200     -0.0007
      7  C14      -31.2670   39.2600   17.6770 C.ar  200  3TL200     -0.0002
      8  C15      -32.1800   38.1470   17.8660 C.ar  200  3TL200     -0.0000
      9  C16      -31.6770   36.7670   17.8200 C.ar  200  3TL200     -0.0002
     10  C17      -30.2470   36.4850   17.5820 C.ar  200  3TL200     -0.0007
     11  N4       -26.7100   36.2950   20.3820 N.am  200  3TL200     -0.1611
     12  C18      -26.4330   36.5970   21.6140 C.3   200  3TL200      0.1762
     13  C19      -24.9340   36.4930   21.9900 C.2   200  3TL200      0.2617
     14  O4       -24.2950   35.4450   21.6920 O.2   200  3TL200     -0.2715
     15  C20      -27.3800   35.6640   22.2700 C.3   200  3TL200      0.0335
     16  N2       -24.5090   37.5580   22.6650 N.am  200  3TL200     -0.1963
     17  C10      -23.1720   37.7500   23.2530 C.3   200  3TL200      0.1727
     18  C11      -23.3400   37.9860   24.7700 C.2   200  3TL200      0.2612
     19  O2       -23.7300   39.0530   25.1190 O.2   200  3TL200     -0.2715
     20  C12      -22.3990   38.8580   22.4950 C.3   200  3TL200      0.0290
     21  CG2      -22.3120   38.4580   21.0360 C.3   200  3TL200      0.0023
     22  CG1      -21.0300   39.0390   23.0890 C.3   200  3TL200      0.0023
     23  C2       -21.6650   36.0700   27.3160 C.3   200  3TL200      0.2039
     24  O1       -21.3930   34.8410   26.7420 O.3   200  3TL200     -0.2185
     25  C1       -23.0060   36.7260   27.0160 C.3   200  3TL200      0.1325
     26  N1       -23.0240   36.9680   25.5520 N.am  200  3TL200     -0.2027
     27  C3       -24.1590   36.2340   27.7960 C.3   200  3TL200      0.0507
     28  C4       -25.5180   36.2230   27.2610 C.ar  200  3TL200     -0.0204
     29  C5       -26.0690   35.0290   26.5620 C.ar  200  3TL200     -0.0042
     30  C9       -26.2090   37.4310   27.4880 C.ar  200  3TL200     -0.0042
     31  C6       -27.4110   35.0030   26.0280 C.ar  200  3TL200     -0.0003
     32  C8       -27.5480   37.3780   26.9480 C.ar  200  3TL200     -0.0003
     33  C7       -28.1250   36.2200   26.2480 C.ar  200  3TL200     -0.0000
@<TRIPOS>BOND
     1     4     5    1
     2     4     3    1
     3     5     6   ar
     4     5    10   ar
     5     6     7   ar
     6    10     9   ar
     7     7     8   ar
     8     9     8   ar
     9     3     1    1
    10     1     2    2
    11     1    11   am
    12    11    12    1
    13    21    20    1
    14    12    13    1
    15    12    15    1
    16    14    13    2
    17    13    16   am
    18    20    22    1
    19    20    17    1
    20    16    17    1
    21    17    18    1
    22    18    19    2
    23    18    26   am
    24    26    25    1
    25    31    33   ar
    26    31    29   ar
    27    33    32   ar
    28    29    28   ar
    29    24    23    1
    30    32    30   ar
    31    25    23    1
    32    25    27    1
    33    28    30   ar
    34    28    27    1
