@<TRIPOS>MOLECULE
2azc_3TL_A_1.pdb
 33 34 0 0 0
SMALL
GASTEIGER

@<TRIPOS>ATOM
      1  C31       97.0300   21.8220   15.0180 C.2   200  3TL200      0.4218
      2  O8        98.1280   21.3660   14.4260 O.2   200  3TL200     -0.2245
      3  O9        95.6700   21.9970   14.3760 O.3   200  3TL200     -0.4285
      4  CA        95.7910   21.6140   12.9390 C.3   200  3TL200      0.2368
      5  C         96.5440   22.7370   12.1350 C.ar  200  3TL200      0.0213
      6  C13       97.9860   22.8470   12.1040 C.ar  200  3TL200     -0.0007
      7  C14       98.6740   23.8490   11.3520 C.ar  200  3TL200     -0.0002
      8  C15       98.0030   24.8250   10.5670 C.ar  200  3TL200     -0.0000
      9  C16       96.5590   24.7890   10.5430 C.ar  200  3TL200     -0.0002
     10  C17       95.8740   23.7560   11.3190 C.ar  200  3TL200     -0.0007
     11  N4        97.0830   22.1490   16.3310 N.am  200  3TL200     -0.1611
     12  C18       98.3070   22.0510   17.1830 C.3   200  3TL200      0.1762
     13  C19       98.3210   20.7120   18.0750 C.2   200  3TL200      0.2617
     14  O4        97.3020   20.4620   18.7130 O.2   200  3TL200     -0.2715
     15  C20       98.4460   23.2800   18.0840 C.3   200  3TL200      0.0335
     16  N2        99.4420   20.0430   17.9830 N.am  200  3TL200     -0.1963
     17  C10       99.6860   18.8060   18.6780 C.3   200  3TL200      0.1727
     18  C11      101.1080   18.9170   19.3390 C.2   200  3TL200      0.2612
     19  O2       102.2200   19.0270   18.7010 O.2   200  3TL200     -0.2715
     20  C12       99.5770   17.5910   17.7440 C.3   200  3TL200      0.0290
     21  CG2       98.1720   17.3820   16.9790 C.3   200  3TL200      0.0023
     22  CG1       99.9850   16.3820   18.5520 C.3   200  3TL200      0.0023
     23  C2       102.2160   17.8710   22.6770 C.3   200  3TL200      0.2039
     24  O1       100.9080   17.8150   23.3250 O.3   200  3TL200     -0.2185
     25  C1       102.2930   19.0160   21.5900 C.3   200  3TL200      0.1325
     26  N1       101.0430   18.9010   20.7110 N.am  200  3TL200     -0.2027
     27  C3       102.1270   20.4230   22.2660 C.3   200  3TL200      0.0507
     28  C4       102.1580   21.7240   21.3890 C.ar  200  3TL200     -0.0204
     29  C5       101.0310   22.5110   21.4350 C.ar  200  3TL200     -0.0042
     30  C9       103.3090   22.0240   20.6090 C.ar  200  3TL200     -0.0042
     31  C6       100.9610   23.7800   20.6440 C.ar  200  3TL200     -0.0003
     32  C8       103.2180   23.2940   19.8200 C.ar  200  3TL200     -0.0003
     33  C7       102.0670   24.1310   19.8540 C.ar  200  3TL200     -0.0000
@<TRIPOS>BOND
     1     9     8   ar
     2     9    10   ar
     3     8     7   ar
     4    10     5   ar
     5     7     6   ar
     6     6     5   ar
     7     5     4    1
     8     4     3    1
     9     3     1    1
    10     2     1    2
    11     1    11   am
    12    11    12    1
    13    21    20    1
    14    12    13    1
    15    12    15    1
    16    20    22    1
    17    20    17    1
    18    16    13   am
    19    16    17    1
    20    13    14    2
    21    17    18    1
    22    19    18    2
    23    18    26   am
    24    32    33   ar
    25    32    30   ar
    26    33    31   ar
    27    30    28   ar
    28    31    29   ar
    29    26    25    1
    30    28    29   ar
    31    28    27    1
    32    25    27    1
    33    25    23    1
    34    23    24    1
