@<TRIPOS>MOLECULE
2azm_III_C_1.pdb
 46 46 0 0 0
SMALL
GASTEIGER

@<TRIPOS>ATOM
      1  N         38.9600   86.8870   98.7730 N.3   138  ALA138     -0.1231
      2  CA        40.1370   86.6910   97.8820 C.3   138  ALA138      0.1694
      3  C         40.1350   85.3090   97.2150 C.2   138  ALA138      0.2593
      4  O         39.5900   84.3310   97.7620 O.2   138  ALA138     -0.2718
      5  CB        41.4270   86.9080   98.6520 C.3   138  ALA138      0.0304
      6  N         40.7430   85.2430   96.0340 N.am  139  SER139     -0.1939
      7  CA        40.8910   83.9940   95.2940 C.3   139  SER139      0.2027
      8  CB        41.5250   84.2450   93.9260 C.3   139  SER139      0.1847
      9  OG        40.6100   84.8830   93.0690 O.3   139  SER139     -0.2679
     10  C         41.7170   82.9620   96.0510 C.2   139  SER139      0.2642
     11  O         42.8060   83.2470   96.5450 O.2   139  SER139     -0.2714
     12  P         41.3810   85.6860   91.9300 P.3   139  SER139      0.5327
     13  O1P       42.3830   84.6970   91.1690 O.3   139  SER139     -0.1145
     14  O2P       42.2750   86.9160   92.4750 O.3   139  SER139     -0.1145
     15  O3P       40.2220   86.2500   90.9790 O.2   139  SER139     -0.2224
     16  N         41.1720   81.7580   96.1080 N.am  140  GLN140     -0.1963
     17  CA        41.7870   80.6420   96.7780 C.3   140  GLN140      0.1733
     18  C         43.1350   80.2600   96.1660 C.2   140  GLN140      0.2616
     19  O         43.2500   80.1080   94.9470 O.2   140  GLN140     -0.2715
     20  CB        40.8460   79.4520   96.6880 C.3   140  GLN140      0.0408
     21  CG        41.2700   78.2970   97.5500 C.3   140  GLN140      0.0908
     22  CD        40.4070   78.1640   98.7660 C.2   140  GLN140      0.2608
     23  OE1       39.1750   78.0460   98.6630 O.2   140  GLN140     -0.2717
     24  NE2       41.0390   78.1740   99.9330 N.am  140  GLN140     -0.0878
     25  N         44.1470   80.1200   97.0200 N.am  141  GLU141     -0.1963
     26  CA        45.4390   79.5580   96.6210 C.3   141  GLU141      0.1733
     27  C         45.4850   78.0850   96.9880 C.2   141  GLU141      0.2617
     28  O         44.9250   77.6770   98.0000 O.2   141  GLU141     -0.2715
     29  CB        46.5890   80.2860   97.2990 C.3   141  GLU141      0.0429
     30  CG        46.6910   81.7400   96.9320 C.3   141  GLU141      0.1163
     31  CD        47.9170   82.4050   97.5300 C.2   141  GLU141      0.3649
     32  OE1       49.0160   81.8010   97.4870 O.co2 141  GLU141     -0.2457
     33  OE2       47.7780   83.5430   98.0330 O.co2 141  GLU141     -0.2457
     34  N         46.1590   77.2880   96.1730 N.am  142  TYR142     -0.1938
     35  CA        46.1900   75.8450   96.4000 C.3   142  TYR142      0.2021
     36  C         47.5990   75.3020   96.6570 C.2   142  TYR142      0.3845
     37  O         47.7560   74.2000   97.1930 O.co2 142  TYR142     -0.2437
     38  CB        45.4800   75.1060   95.2550 C.3   142  TYR142      0.0596
     39  CG        44.0030   75.4420   95.1690 C.ar  142  TYR142     -0.0197
     40  CD1       43.5510   76.4840   94.3570 C.ar  142  TYR142     -0.0009
     41  CD2       43.0600   74.7400   95.9210 C.ar  142  TYR142     -0.0009
     42  CE1       42.1950   76.8050   94.2820 C.ar  142  TYR142      0.0417
     43  CE2       41.7080   75.0480   95.8550 C.ar  142  TYR142      0.0417
     44  CZ        41.2830   76.0740   95.0280 C.ar  142  TYR142      0.1957
     45  OH        39.9470   76.3920   94.9550 O.3   142  TYR142     -0.2866
     46  OXT       48.6110   75.9410   96.3630 O.co2 142  TYR142     -0.2437
@<TRIPOS>BOND
     1    15    12    2
     2    13    12    1
     3    12    14    1
     4    12     9    1
     5     9     8    1
     6     8     7    1
     7    42    40   ar
     8    42    44   ar
     9    40    39   ar
    10    19    18    2
    11    45    44    1
    12    44    43   ar
    13    39    38    1
    14    39    41   ar
    15    38    35    1
    16     7     6    1
    17     7    10    1
    18    43    41   ar
    19     6     3   am
    20    10    16   am
    21    10    11    2
    22    16    17    1
    23    18    17    1
    24    18    25   am
    25    34    35    1
    26    34    27   am
    27    46    36   ar
    28    35    36    1
    29    26    27    1
    30    26    25    1
    31    26    29    1
    32    36    37   ar
    33    20    17    1
    34    20    21    1
    35    30    29    1
    36    30    31    1
    37    27    28    2
    38     3     4    2
    39     3     2    1
    40    32    31   ar
    41    31    33   ar
    42    21    22    1
    43     2     5    1
    44     2     1    1
    45    23    22    2
    46    22    24   am
