@<TRIPOS>MOLECULE
2azn_MA5_A_1.pdb
 31 33 0 0 0
SMALL
GASTEIGER

@<TRIPOS>ATOM
      1  C42       28.1350  -36.2610  -52.7140 C.3   1004  MA51004     0.0001
      2  C32       28.9260  -37.4570  -53.2500 C.3   1004  MA51004     0.0000
      3  C22       29.9470  -37.9370  -52.2140 C.3   1004  MA51004     0.0000
      4  C12       29.2490  -38.2790  -50.8940 C.3   1004  MA51004     0.0000
      5  C62       28.4570  -37.0760  -50.3750 C.3   1004  MA51004     0.0001
      6  C52       27.4220  -36.6080  -51.4030 C.3   1004  MA51004     0.0025
      7  C61       26.6930  -35.3640  -50.8890 C.3   1004  MA51004     0.0322
      8  C11       25.8120  -35.6910  -49.6800 C.3   1004  MA51004     0.1449
      9  O10       24.7410  -36.5700  -50.0580 O.3   1004  MA51004    -0.3286
     10  C10       23.7510  -36.6380  -49.0200 C.3   1004  MA51004     0.2695
     11  C20       22.8660  -35.3890  -49.0340 C.3   1004  MA51004     0.2404
     12  O20       23.6600  -34.2270  -48.7810 O.3   1004  MA51004    -0.2149
     13  C30       21.7820  -35.5060  -47.9590 C.3   1004  MA51004     0.2167
     14  O30       20.9040  -34.3820  -48.0550 O.3   1004  MA51004    -0.2175
     15  O50       22.9150  -37.7900  -49.2270 O.3   1004  MA51004    -0.3257
     16  C50       21.9500  -37.9660  -48.1760 C.3   1004  MA51004     0.1803
     17  C60       21.1900  -39.2690  -48.4320 C.3   1004  MA51004     0.2141
     18  O60       22.1190  -40.3550  -48.4860 O.3   1004  MA51004    -0.2176
     19  C40       20.9770  -36.7940  -48.1490 C.3   1004  MA51004     0.1804
     20  O1        20.0180  -36.9280  -47.0870 O.3   1004  MA51004    -0.3257
     21  C1        18.7110  -37.1580  -47.6360 C.3   1004  MA51004     0.2695
     22  O5        18.0950  -38.2720  -46.9650 O.3   1004  MA51004    -0.3256
     23  C5        17.8450  -38.0110  -45.5740 C.3   1004  MA51004     0.1835
     24  C6        17.3500  -39.2840  -44.8860 C.3   1004  MA51004     0.2142
     25  O6        18.4010  -40.2520  -44.9200 O.3   1004  MA51004    -0.2176
     26  C4        16.8270  -36.8760  -45.4430 C.3   1004  MA51004     0.2144
     27  O4        16.5630  -36.6200  -44.0600 O.3   1004  MA51004    -0.2176
     28  C3        17.4140  -35.6200  -46.0900 C.3   1004  MA51004     0.2198
     29  O3        16.4360  -34.5760  -46.0660 O.3   1004  MA51004    -0.2174
     30  C2        17.8230  -35.9120  -47.5370 C.3   1004  MA51004     0.2406
     31  O2        18.4890  -34.7770  -48.0970 O.3   1004  MA51004    -0.2149
@<TRIPOS>BOND
     1     2     1    1
     2     2     3    1
     3     1     6    1
     4     3     4    1
     5     6     7    1
     6     6     5    1
     7     4     5    1
     8     7     8    1
     9     9     8    1
    10     9    10    1
    11    15    10    1
    12    15    16    1
    13    11    10    1
    14    11    12    1
    15    11    13    1
    16    18    17    1
    17    17    16    1
    18    16    19    1
    19    19    13    1
    20    19    20    1
    21    31    30    1
    22    14    13    1
    23    21    30    1
    24    21    20    1
    25    21    22    1
    26    30    28    1
    27    22    23    1
    28    28    29    1
    29    28    26    1
    30    23    26    1
    31    23    24    1
    32    26    27    1
    33    25    24    1
