@<TRIPOS>MOLECULE
2azn_NAP_A_1.pdb
 48 52 0 0 0
SMALL
GASTEIGER

@<TRIPOS>ATOM
      1  PA        -7.2650  -51.3420  -45.1460 P.3   2001  NAP2001     0.2189
      2  O1A       -7.2680  -51.1270  -43.6830 O.3   2001  NAP2001    -0.4371
      3  O2A       -8.1920  -52.3550  -45.6970 O.2   2001  NAP2001    -0.5170
      4  O5B       -5.7660  -51.6710  -45.6380 O.3   2001  NAP2001    -0.3112
      5  C5B       -4.7320  -50.6980  -45.4660 C.3   2001  NAP2001     0.1813
      6  C4B       -3.3990  -51.1090  -46.0990 C.3   2001  NAP2001     0.1820
      7  O4B       -2.7710  -52.2730  -45.5430 O.3   2001  NAP2001    -0.3136
      8  C3B       -3.4540  -51.5010  -47.5750 C.3   2001  NAP2001     0.2157
      9  O3B       -3.7560  -50.3540  -48.3730 O.3   2001  NAP2001    -0.2175
     10  C2B       -1.9850  -51.8860  -47.7620 C.3   2001  NAP2001     0.2314
     11  O2B       -1.2470  -50.7000  -48.0830 O.3   2001  NAP2001    -0.2630
     12  C1B       -1.6030  -52.4120  -46.3730 C.3   2001  NAP2001     0.3158
     13  N9A       -1.0920  -53.8040  -46.4230 N.pl3 2001  NAP2001    -0.1439
     14  C8A        0.1700  -54.1580  -46.1880 C.3   2001  NAP2001     0.3377
     15  N7A        0.3110  -55.4720  -46.3510 N.2   2001  NAP2001    -0.2095
     16  C5A       -0.8760  -55.9630  -46.6900 C.2   2001  NAP2001     0.2526
     17  C6A       -1.3490  -57.2370  -46.9910 C.2   2001  NAP2001     0.4393
     18  N6A       -0.5330  -58.2850  -46.9450 N.pl3 2001  NAP2001     0.2180
     19  N1A       -2.6420  -57.3920  -47.3140 N.2   2001  NAP2001     0.0021
     20  C2A       -3.4700  -56.3610  -47.3490 C.3   2001  NAP2001     0.5254
     21  N3A       -3.0530  -55.1380  -47.0660 N.2   2001  NAP2001    -0.0055
     22  C4A       -1.7740  -54.9040  -46.7360 C.2   2001  NAP2001     0.3518
     23  O3        -7.5420  -49.9130  -45.8380 O.3   2001  NAP2001    -0.2703
     24  PN        -8.7510  -49.6180  -46.8630 P.3   2001  NAP2001     0.2189
     25  O1N       -9.1790  -50.8670  -47.5300 O.3   2001  NAP2001    -0.4371
     26  O2N       -8.3770  -48.4680  -47.7170 O.2   2001  NAP2001    -0.5170
     27  O5D       -9.9400  -49.1580  -45.8780 O.3   2001  NAP2001    -0.3112
     28  C5D      -11.1410  -48.5800  -46.4000 C.3   2001  NAP2001     0.1813
     29  C4D      -12.1100  -48.1760  -45.2840 C.3   2001  NAP2001     0.1799
     30  O4D      -12.4560  -49.2640  -44.4140 O.3   2001  NAP2001    -0.3327
     31  C3D      -11.5400  -47.1440  -44.3110 C.3   2001  NAP2001     0.2158
     32  O3D      -11.6480  -45.8200  -44.8420 O.3   2001  NAP2001    -0.2175
     33  C2D      -12.4690  -47.2970  -43.1050 C.3   2001  NAP2001     0.2309
     34  O2D      -13.4040  -46.2160  -43.0440 O.3   2001  NAP2001    -0.2158
     35  C1D      -13.2060  -48.6130  -43.3750 C.3   2001  NAP2001     0.2263
     36  N1N      -13.3490  -49.4630  -42.1710 N.pl3 2001  NAP2001    -0.2787
     37  C2N      -14.6200  -49.7350  -41.6420 C.3   2001  NAP2001     0.1244
     38  C3N      -14.7480  -50.5780  -40.5420 C.2   2001  NAP2001     0.0544
     39  C7N      -16.1250  -50.9210  -39.9640 C.2   2001  NAP2001     0.2818
     40  O7N      -16.2460  -51.7420  -39.0550 O.2   2001  NAP2001    -0.2670
     41  N7N      -17.1530  -50.2850  -40.5180 N.am  2001  NAP2001    -0.0839
     42  C4N      -13.6080  -51.1390  -39.9750 C.2   2001  NAP2001     0.0033
     43  C5N      -12.3420  -50.8720  -40.4890 C.2   2001  NAP2001     0.0157
     44  C6N      -12.2090  -50.0340  -41.5900 C.2   2001  NAP2001     0.0633
     45  P2B        0.3630  -50.6190  -48.0540 P.3   2001  NAP2001     0.5328
     46  O1X        0.7520  -49.1070  -48.4460 O.3   2001  NAP2001    -0.1145
     47  O2X        0.7920  -50.8140  -46.5150 O.3   2001  NAP2001    -0.1145
     48  O3X        1.0070  -51.6040  -48.9520 O.2   2001  NAP2001    -0.2224
@<TRIPOS>BOND
     1    48    45    2
     2    46    45    1
     3     9     8    1
     4    11    45    1
     5    11    10    1
     6    45    47    1
     7    10     8    1
     8    10    12    1
     9    26    24    2
    10     8     6    1
    11    25    24    1
    12    20    19    1
    13    20    21    1
    14    19    17    2
    15    21    22    2
    16    17    18    1
    17    17    16    1
    18    24    27    1
    19    24    23    1
    20    22    16    1
    21    22    13    1
    22    16    15    2
    23    13    12    1
    24    13    14    1
    25    28    27    1
    26    28    29    1
    27    12     7    1
    28    15    14    1
    29     6     7    1
    30     6     5    1
    31    23     1    1
    32     3     1    2
    33     4     5    1
    34     4     1    1
    35    29    30    1
    36    29    31    1
    37     1     2    1
    38    32    31    1
    39    30    35    1
    40    31    33    1
    41    35    33    1
    42    35    36    1
    43    33    34    1
    44    36    37    1
    45    36    44    1
    46    37    38    1
    47    44    43    2
    48    38    42    2
    49    38    39    1
    50    41    39   am
    51    43    42    1
    52    39    40    2
