@<TRIPOS>MOLECULE
2azr_982_A_1.pdb
 17 18 0 0 0
SMALL
GASTEIGER

@<TRIPOS>ATOM
      1  C1        46.4550   12.2720    2.9360 C.ar  301  982301      0.0067
      2  C2        46.4850   11.0190    2.3170 C.ar  301  982301      0.0208
      3  C3        45.8240   10.8500    1.1090 C.ar  301  982301      0.0994
      4  N1        45.1360   11.8170    0.4610 N.ar  301  982301     -0.2372
      5  C5        45.1370   13.0150    1.0940 C.ar  301  982301      0.1139
      6  C6        45.7540   13.3290    2.3110 C.ar  301  982301      0.0585
      7  S10       44.3260   14.3420    0.4060 S.2   301  982301     -0.0584
      8  C11       44.7650   15.3620    1.7120 C.ar  301  982301      0.1445
      9  C12       45.5370   14.7090    2.6630 C.ar  301  982301      0.1536
     10  C13       44.3010   16.8600    1.7050 C.2   301  982301      0.3967
     11  O14       43.8000   17.2620    0.6140 O.co2 301  982301     -0.2399
     12  O15       46.0160   15.2980    3.8050 O.3   301  982301     -0.4629
     13  C16       47.2510   16.0130    3.6410 C.3   301  982301      0.3186
     14  C17       47.4750   16.9630    4.8310 C.2   301  982301      0.4084
     15  O20       48.5250   17.6360    4.7770 O.co2 301  982301     -0.2415
     16  O21       44.4540   17.5450    2.7620 O.co2 301  982301     -0.2399
     17  O22       46.6160   16.9760    5.7460 O.co2 301  982301     -0.2415
@<TRIPOS>BOND
     1     7     5   ar
     2     7     8   ar
     3     4     5   ar
     4     4     3   ar
     5    11    10   ar
     6     5     6   ar
     7     3     2   ar
     8    10     8    1
     9    10    16   ar
    10     8     9   ar
    11     6     9   ar
    12     6     1   ar
    13     2     1   ar
    14     9    12    1
    15    13    12    1
    16    13    14    1
    17    15    14   ar
    18    14    17   ar
