@<TRIPOS>MOLECULE
2azx_TRP_A_1.pdb
 15 16 0 0 0
SMALL
GASTEIGER

@<TRIPOS>ATOM
      1  N         37.1210   -1.6590  -13.1480 N.3   601  TRP601     -0.1205
      2  CA        37.6370   -0.9900  -14.3400 C.3   601  TRP601      0.1987
      3  C         39.1550   -1.1810  -14.5070 C.2   601  TRP601      0.3822
      4  O         39.8060   -1.8240  -13.6800 O.co2 601  TRP601     -0.2440
      5  CB        37.3860    0.5340  -14.1800 C.3   601  TRP601      0.0585
      6  CG        36.0560    1.0610  -14.6390 C.2   601  TRP601      0.0001
      7  CD1       35.0680    1.5840  -13.8420 C.2   601  TRP601      0.0946
      8  CD2       35.5640    1.1210  -15.9770 C.2   601  TRP601      0.0113
      9  NE1       33.9770    1.9690  -14.5860 N.2   601  TRP601     -0.2442
     10  CE2       34.2320    1.7040  -15.9040 C.2   601  TRP601      0.0804
     11  CE3       36.0950    0.7420  -17.2800 C.2   601  TRP601     -0.0202
     12  CZ2       33.4230    1.9170  -17.0860 C.2   601  TRP601      0.0148
     13  CZ3       35.2930    0.9540  -18.4560 C.3   601  TRP601      0.0521
     14  CH2       33.9680    1.5360  -18.3480 C.2   601  TRP601     -0.0199
     15  OXT       39.8150   -0.5940  -15.6580 O.co2 601  TRP601     -0.2440
@<TRIPOS>BOND
     1    13    14    1
     2    13    11    1
     3    14    12    2
     4    11     8    2
     5    12    10    1
     6     8    10    1
     7     8     6    1
     8    10     9    2
     9    15     3   ar
    10     6     5    1
    11     6     7    2
    12     9     7    1
    13     3     2    1
    14     3     4   ar
    15     2     5    1
    16     2     1    1
