@<TRIPOS>MOLECULE
2azz_TCH_A_1.pdb
 35 38 0 0 0
SMALL
GASTEIGER

@<TRIPOS>ATOM
      1  C1        36.9190   17.1710   17.7240 C.3   131  TCH131      0.0026
      2  C2        37.7270   17.0690   19.1020 C.3   131  TCH131      0.0329
      3  C3        37.1080   18.0480   20.1570 C.3   131  TCH131      0.1520
      4  O3        37.8730   17.9410   21.4010 O.3   131  TCH131     -0.2232
      5  C4        37.1350   19.5560   19.6520 C.3   131  TCH131      0.0330
      6  C5        36.3110   19.7160   18.2880 C.3   131  TCH131      0.0050
      7  C6        36.2880   21.2130   17.6760 C.3   131  TCH131      0.0330
      8  C7        37.6880   21.7050   17.1610 C.3   131  TCH131      0.1519
      9  O7        38.7020   21.9040   18.2100 O.3   131  TCH131     -0.2232
     10  C8        38.2950   20.6970   16.0470 C.3   131  TCH131      0.0306
     11  C9        38.3830   19.1750   16.6490 C.3   131  TCH131      0.0050
     12  C10       36.8800   18.6640   17.1280 C.3   131  TCH131      0.0004
     13  C11       39.0300   18.1930   15.4780 C.3   131  TCH131      0.0330
     14  C12       40.4460   18.8260   15.1820 C.3   131  TCH131      0.1519
     15  O12       41.2490   18.7760   16.4150 O.3   131  TCH131     -0.2232
     16  C13       40.3800   20.3230   14.4720 C.3   131  TCH131      0.0285
     17  C14       39.7600   21.2250   15.5480 C.3   131  TCH131      0.0048
     18  C15       39.7690   22.6780   14.8920 C.3   131  TCH131      0.0002
     19  C16       40.9860   22.5410   13.8610 C.3   131  TCH131      0.0004
     20  C17       41.6880   21.0880   14.2000 C.3   131  TCH131      0.0064
     21  C18       39.4380   20.0700   13.1050 C.3   131  TCH131      0.0025
     22  C19       35.7690   18.5100   15.9720 C.3   131  TCH131      0.0000
     23  C20       42.6640   20.5040   13.0230 C.3   131  TCH131      0.0223
     24  C21       43.1840   19.0310   13.0030 C.3   131  TCH131      0.0047
     25  C22       43.9630   21.4520   12.9100 C.2   131  TCH131     -0.0218
     26  C23       45.2390   21.2930   11.9330 C.2   131  TCH131      0.0549
     27  C24       46.4640   22.0820   12.1420 C.2   131  TCH131      0.2646
     28  N24       47.2400   22.4450   11.2150 N.am  131  TCH131     -0.1999
     29  O24       46.7090   22.4030   13.4420 O.2   131  TCH131     -0.2684
     30  C25       48.4630   23.2350   11.4560 C.3   131  TCH131      0.1369
     31  C26       49.7630   22.3900   11.4920 C.3   131  TCH131      0.1286
     32  S26       51.0480   23.0200   11.7210 S.3   131  TCH131     -0.1942
     33  O1S       52.0650   21.9250   11.6930 O.3   131  TCH131     -0.3074
     34  O2S       51.2670   24.0190   10.6450 O.3   131  TCH131     -0.3074
     35  O3S       51.0980   23.7070   13.0700 O.3   131  TCH131     -0.3074
@<TRIPOS>BOND
     1    34    32    1
     2    28    30    1
     3    28    27   am
     4    30    31    1
     5    31    32    1
     6    33    32    1
     7    32    35    1
     8    26    27    1
     9    26    25    2
    10    27    29    2
    11    25    23    1
    12    24    23    1
    13    23    20    1
    14    21    16    1
    15    19    20    1
    16    19    18    1
    17    20    16    1
    18    16    14    1
    19    16    17    1
    20    18    17    1
    21    14    13    1
    22    14    15    1
    23    13    11    1
    24    17    10    1
    25    22    12    1
    26    10    11    1
    27    10     8    1
    28    11    12    1
    29    12     1    1
    30    12     6    1
    31     8     7    1
    32     8     9    1
    33     7     6    1
    34     1     2    1
    35     6     5    1
    36     2     3    1
    37     5     3    1
    38     3     4    1
