@<TRIPOS>MOLECULE
2b00_GCH_A_1.pdb
 33 36 0 0 0
SMALL
GASTEIGER

@<TRIPOS>ATOM
      1  C         38.0700   18.3990   12.4690 C.3   254  GCH254      0.1520
      2  O         38.5790   17.7080   11.3100 O.3   254  GCH254     -0.2232
      3  C1        36.7070   17.7040   12.9090 C.3   254  GCH254      0.0330
      4  C2        36.0790   18.4150   14.2250 C.3   254  GCH254      0.0050
      5  C3        37.2240   18.4030   15.4420 C.3   254  GCH254      0.0004
      6  C4        38.5640   19.1230   14.8890 C.3   254  GCH254      0.0026
      7  C5        39.1520   18.3470   13.6090 C.3   254  GCH254      0.0329
      8  C6        36.8150   19.4030   16.6580 C.3   254  GCH254      0.0000
      9  C7        34.7060   17.7100   14.7380 C.3   254  GCH254      0.0330
     10  C8        34.9310   16.2160   15.2650 C.3   254  GCH254      0.1519
     11  O1        35.2910   15.2060   14.2320 O.3   254  GCH254     -0.2232
     12  C9        36.0630   16.1450   16.4400 C.3   254  GCH254      0.0306
     13  C10       37.4920   16.7970   15.8880 C.3   254  GCH254      0.0050
     14  C11       38.6380   16.6730   17.1240 C.3   254  GCH254      0.0330
     15  C12       38.7550   15.1100   17.4200 C.3   254  GCH254      0.1519
     16  C13       37.3150   14.4460   18.0640 C.3   254  GCH254      0.0285
     17  C14       36.2600   14.5620   16.9240 C.3   254  GCH254      0.0048
     18  C15       34.9450   13.8730   17.5250 C.3   254  GCH254      0.0002
     19  C16       35.6150   12.7510   18.5020 C.3   254  GCH254      0.0004
     20  C17       37.2500   12.9400   18.3360 C.3   254  GCH254      0.0064
     21  C18       38.2210   12.3950   19.5950 C.3   254  GCH254      0.0223
     22  C19       39.7760   12.5300   19.6080 C.3   254  GCH254      0.0047
     23  C20       37.9880   10.8230   19.8020 C.2   254  GCH254     -0.0217
     24  C21       37.8980    9.6740   18.6850 C.2   254  GCH254      0.0552
     25  C22       37.6600    8.2790   19.0590 C.2   254  GCH254      0.2690
     26  N         37.9730    7.7790   20.1940 N.am  254  GCH254     -0.1672
     27  CA        37.7330    6.3600   20.5910 C.2   254  GCH254      0.1748
     28  O2        37.0540    7.5580   18.0600 O.2   254  GCH254     -0.2680
     29  C23       37.0300   15.4230   19.4360 C.3   254  GCH254      0.0025
     30  O3        39.1840   14.3740   16.2040 O.3   254  GCH254     -0.2232
     31  C24       38.3340    5.9550   21.8930 C.2   254  GCH254      0.4043
     32  O4        37.9670    6.5580   22.9320 O.co2 254  GCH254     -0.2390
     33  O5        39.1870    5.0250   21.9190 O.co2 254  GCH254     -0.2390
@<TRIPOS>BOND
     1     2     1    1
     2     1     3    1
     3     1     7    1
     4     3     4    1
     5     7     6    1
     6     4     9    1
     7     4     5    1
     8    11    10    1
     9     9    10    1
    10     6     5    1
    11    10    12    1
    12     5    13    1
    13     5     8    1
    14    13    12    1
    15    13    14    1
    16    30    15    1
    17    12    17    1
    18    17    18    1
    19    17    16    1
    20    14    15    1
    21    15    16    1
    22    18    19    1
    23    28    25    2
    24    16    20    1
    25    16    29    1
    26    20    19    1
    27    20    21    1
    28    24    25    1
    29    24    23    2
    30    25    26    1
    31    21    22    1
    32    21    23    1
    33    26    27    2
    34    27    31    1
    35    31    33   ar
    36    31    32   ar
