@<TRIPOS>MOLECULE
2b01_TUD_A_1.pdb
 34 37 0 0 0
SMALL
GASTEIGER

@<TRIPOS>ATOM
      1  C1        37.1260   16.6240   17.7190 C.3   137  TUD137      0.0026
      2  C2        37.9680   16.6990   19.0760 C.3   137  TUD137      0.0329
      3  C3        37.2760   17.6690   20.0800 C.3   137  TUD137      0.1520
      4  O3        38.0670   17.7280   21.3040 O.3   137  TUD137     -0.2232
      5  C4        37.1250   19.1230   19.4820 C.3   137  TUD137      0.0330
      6  C5        36.2670   19.0940   18.1380 C.3   137  TUD137      0.0050
      7  C6        36.0720   20.5350   17.4520 C.3   137  TUD137      0.0330
      8  C7        37.3880   21.1510   16.8890 C.3   137  TUD137      0.1519
      9  O7        38.3780   21.5410   17.8950 O.3   137  TUD137     -0.2232
     10  C8        38.0810   20.1680   15.8300 C.3   137  TUD137      0.0304
     11  C9        38.3310   18.7080   16.5060 C.3   137  TUD137      0.0024
     12  C10       36.9140   18.0560   17.0480 C.3   137  TUD137      0.0003
     13  C11       39.0570   17.7490   15.3840 C.3   137  TUD137      0.0001
     14  C12       40.3680   18.5230   15.0250 C.3   137  TUD137      0.0000
     15  C13       40.1740   19.9350   14.2570 C.3   137  TUD137      0.0004
     16  C14       39.4590   20.8110   15.2850 C.3   137  TUD137      0.0025
     17  C15       39.3330   22.2130   14.5570 C.3   137  TUD137      0.0001
     18  C16       40.5440   22.1560   13.5330 C.3   137  TUD137      0.0003
     19  C17       41.3960   20.8180   13.9320 C.3   137  TUD137      0.0040
     20  C18       39.2810   19.5660   12.9280 C.3   137  TUD137      0.0000
     21  C19       35.8180   17.7220   15.9210 C.3   137  TUD137      0.0000
     22  C20       42.4220   20.3270   12.7740 C.3   137  TUD137      0.0222
     23  C21       42.9900   18.8800   12.7270 C.3   137  TUD137      0.0047
     24  C22       43.6920   21.2930   12.7040 C.2   137  TUD137     -0.0218
     25  C23       44.5970   21.7150   13.9690 C.2   137  TUD137      0.0549
     26  O25       46.4110   22.8900   12.9850 O.2   137  TUD137     -0.2684
     27  C24       45.4710   22.8990   13.9560 C.2   137  TUD137      0.2646
     28  N26       45.3930   23.8580   14.7550 N.am  137  TUD137     -0.1999
     29  C25       46.3160   24.9930   14.6670 C.3   137  TUD137      0.1369
     30  C26       45.8720   26.2480   15.4560 C.3   137  TUD137      0.1286
     31  S27       46.7030   27.4300   15.4560 S.3   137  TUD137     -0.1942
     32  O28       45.9930   28.4480   16.2800 O.3   137  TUD137     -0.3074
     33  O29       48.0110   27.0520   16.0230 O.3   137  TUD137     -0.3074
     34  O30       46.8970   27.9690   14.0680 O.3   137  TUD137     -0.3074
@<TRIPOS>BOND
     1    24    22    1
     2    24    25    2
     3    23    22    1
     4    22    19    1
     5    20    15    1
     6    26    27    2
     7    18    19    1
     8    18    17    1
     9    19    15    1
    10    27    25    1
    11    27    28   am
    12    34    31    1
    13    15    14    1
    14    15    16    1
    15    17    16    1
    16    29    28    1
    17    29    30    1
    18    14    13    1
    19    16    10    1
    20    13    11    1
    21    30    31    1
    22    31    33    1
    23    31    32    1
    24    10    11    1
    25    10     8    1
    26    21    12    1
    27    11    12    1
    28     8     7    1
    29     8     9    1
    30    12     1    1
    31    12     6    1
    32     7     6    1
    33     1     2    1
    34     6     5    1
    35     2     3    1
    36     5     3    1
    37     3     4    1
