@<TRIPOS>MOLECULE
2b03_TUD_A_1.pdb
 34 37 0 0 0
SMALL
GASTEIGER

@<TRIPOS>ATOM
      1  C1        -0.9170   35.2550    5.2040 C.3   126  TUD126      0.0026
      2  C2        -0.5900   34.3020    6.4430 C.3   126  TUD126      0.0329
      3  C3         0.1230   35.1160    7.5660 C.3   126  TUD126      0.1520
      4  O3         0.4200   34.2210    8.6790 O.3   126  TUD126     -0.2232
      5  C4         1.4620   35.7700    7.0500 C.3   126  TUD126      0.0330
      6  C5         1.1720   36.7460    5.8250 C.3   126  TUD126      0.0050
      7  C6         2.4880   37.4510    5.2250 C.3   126  TUD126      0.0330
      8  C7         3.4710   36.4630    4.5270 C.3   126  TUD126      0.1519
      9  O7         4.1400   35.5170    5.4320 O.3   126  TUD126     -0.2232
     10  C8         2.7420   35.6420    3.3490 C.3   126  TUD126      0.0304
     11  C9         1.4300   34.8820    3.9320 C.3   126  TUD126      0.0024
     12  C10        0.3790   35.9620    4.6220 C.3   126  TUD126      0.0003
     13  C11        0.7420   34.0460    2.6910 C.3   126  TUD126      0.0001
     14  C12        1.8780   33.0820    2.2090 C.3   126  TUD126      0.0000
     15  C13        3.1610   33.7800    1.5220 C.3   126  TUD126      0.0001
     16  C14        3.7730   34.6040    2.6630 C.3   126  TUD126      0.0024
     17  C15        5.0730   35.2430    2.0080 C.3   126  TUD126      0.0001
     18  C16        5.3920   34.2040    0.8450 C.3   126  TUD126      0.0000
     19  C17        4.3850   32.9330    1.0940 C.3   126  TUD126      0.0000
     20  C18        2.5360   34.6560    0.2760 C.3   126  TUD126      0.0000
     21  C19       -0.2770   37.0440    3.6400 C.3   126  TUD126      0.0000
     22  C20        4.2470   31.9400   -0.1880 C.3   126  TUD126      0.0005
     23  C21        3.0330   30.9870   -0.3740 C.3   126  TUD126      0.0000
     24  C22        5.5360   31.0080   -0.3270 C.3   126  TUD126      0.0096
     25  C23        6.6190   31.0740   -1.5130 C.3   126  TUD126      0.0868
     26  O25        7.6070   28.8920   -1.4230 O.2   126  TUD126     -0.2733
     27  C24        7.1070   29.8680   -2.2240 C.2   126  TUD126      0.2414
     28  N26        7.0820   29.7210   -3.4660 N.am  126  TUD126     -0.2037
     29  C25        7.5820   28.5080   -4.1170 C.3   126  TUD126      0.1366
     30  C26        7.2430   28.4270   -5.6290 C.3   126  TUD126      0.1286
     31  S27        7.6710   27.2940   -6.4240 S.3   126  TUD126     -0.1942
     32  O28        7.1690   27.5300   -7.8070 O.3   126  TUD126     -0.3074
     33  O29        9.1480   27.2350   -6.3620 O.3   126  TUD126     -0.3074
     34  O30        7.0910   26.0020   -5.8990 O.3   126  TUD126     -0.3074
@<TRIPOS>BOND
     1    32    31    1
     2    31    33    1
     3    31    34    1
     4    31    30    1
     5    30    29    1
     6    29    28    1
     7    28    27   am
     8    27    25    1
     9    27    26    2
    10    25    24    1
    11    23    22    1
    12    24    22    1
    13    22    19    1
    14    20    15    1
    15    18    19    1
    16    18    17    1
    17    19    15    1
    18    15    14    1
    19    15    16    1
    20    17    16    1
    21    14    13    1
    22    16    10    1
    23    13    11    1
    24    10    11    1
    25    10     8    1
    26    21    12    1
    27    11    12    1
    28     8     7    1
    29     8     9    1
    30    12     1    1
    31    12     6    1
    32     1     2    1
    33     7     6    1
    34     6     5    1
    35     2     3    1
    36     5     3    1
    37     3     4    1
