@<TRIPOS>MOLECULE
2b04_CHO_A_1.pdb
 32 35 0 0 0
SMALL
GASTEIGER

@<TRIPOS>ATOM
      1  C1        -1.5470   35.9100    6.2740 C.3   200  CHO200      0.0026
      2  C2        -1.0070   35.1100    7.5640 C.3   200  CHO200      0.0329
      3  C3        -0.4870   36.1620    8.6250 C.3   200  CHO200      0.1520
      4  O3         0.0030   35.4530    9.7910 O.3   200  CHO200     -0.2232
      5  C4         0.6900   37.0680    8.0390 C.3   200  CHO200      0.0330
      6  C5         0.2140   37.8810    6.7030 C.3   200  CHO200      0.0050
      7  C6         1.3890   38.7930    6.0260 C.3   200  CHO200      0.0330
      8  C7         2.5970   37.9400    5.4710 C.3   200  CHO200      0.1519
      9  O7         3.4300   37.2660    6.4740 O.3   200  CHO200     -0.2232
     10  C8         2.0820   36.8220    4.3810 C.3   200  CHO200      0.0304
     11  C9         0.9190   35.8520    5.0690 C.3   200  CHO200      0.0024
     12  C10       -0.3750   36.7890    5.5770 C.3   200  CHO200      0.0003
     13  C11        0.4390   34.7200    3.9270 C.3   200  CHO200      0.0001
     14  C12        1.7990   34.0060    3.6350 C.3   200  CHO200      0.0000
     15  C13        2.9580   34.8630    2.8270 C.3   200  CHO200      0.0004
     16  C14        3.3630   35.9180    3.8560 C.3   200  CHO200      0.0025
     17  C15        4.5300   36.7400    3.1290 C.3   200  CHO200      0.0001
     18  C16        5.2030   35.5760    2.2180 C.3   200  CHO200      0.0003
     19  C17        4.3200   34.2320    2.5560 C.3   200  CHO200      0.0040
     20  C18        2.1820   35.4120    1.4370 C.3   200  CHO200      0.0000
     21  C19       -1.2130   37.5140    4.3810 C.3   200  CHO200      0.0000
     22  C20        4.3820   33.0290    1.4230 C.3   200  CHO200      0.0222
     23  C21        3.5670   31.7020    1.5650 C.3   200  CHO200      0.0047
     24  C22        5.8920   32.5300    1.2570 C.2   200  CHO200     -0.0218
     25  C23        6.8430   32.0400    2.4780 C.2   200  CHO200      0.0549
     26  C24        8.2710   31.7810    2.3060 C.2   200  CHO200      0.2651
     27  O24        8.6190   31.5560    0.9970 O.2   200  CHO200     -0.2684
     28  N25        9.1290   31.7610    3.2670 N.am  200  CHO200     -0.1894
     29  C26       10.5910   31.5000    3.0980 C.3   200  CHO200      0.2288
     30  C27       10.9790   30.1500    2.6290 C.2   200  CHO200      0.3865
     31  OT1       10.9560   29.1770    3.4300 O.co2 200  CHO200     -0.2437
     32  OT2       11.3290   30.0180    1.4220 O.co2 200  CHO200     -0.2437
@<TRIPOS>BOND
     1    27    26    2
     2    24    22    1
     3    24    25    2
     4    32    30   ar
     5    22    23    1
     6    22    19    1
     7    20    15    1
     8    18    19    1
     9    18    17    1
    10    26    25    1
    11    26    28   am
    12    19    15    1
    13    30    29    1
    14    30    31   ar
    15    15    14    1
    16    15    16    1
    17    29    28    1
    18    17    16    1
    19    14    13    1
    20    16    10    1
    21    13    11    1
    22    21    12    1
    23    10    11    1
    24    10     8    1
    25    11    12    1
    26     8     7    1
    27     8     9    1
    28    12     1    1
    29    12     6    1
    30     7     6    1
    31     1     2    1
    32     6     5    1
    33     2     3    1
    34     5     3    1
    35     3     4    1
