@<TRIPOS>MOLECULE
2b05_III_G_1.pdb
 44 44 0 0 0
SMALL
GASTEIGER

@<TRIPOS>ATOM
      1  N        -57.7110  -37.8160  -66.1790 N.3   502  ARG502     -0.1231
      2  CA       -57.7640  -38.6300  -67.3970 C.3   502  ARG502      0.1694
      3  C        -59.1910  -39.1590  -67.6520 C.2   502  ARG502      0.2592
      4  O        -59.7770  -38.8980  -68.7130 O.2   502  ARG502     -0.2718
      5  CB       -56.7340  -39.7790  -67.3520 C.3   502  ARG502      0.0304
      6  N        -59.7400  -39.9090  -66.6960 N.am  503  ALA503     -0.1966
      7  CA       -61.1510  -40.3090  -66.7640 C.3   503  ALA503      0.1728
      8  C        -62.0020  -39.0750  -66.5600 C.2   503  ALA503      0.2616
      9  O        -61.6530  -38.2110  -65.7610 O.2   503  ALA503     -0.2715
     10  CB       -61.4650  -41.3250  -65.6780 C.3   503  ALA503      0.0334
     11  N        -63.1170  -38.9860  -67.2680 N.am  504  ILE504     -0.1963
     12  CA       -64.0080  -37.8430  -67.1260 C.3   504  ILE504      0.1727
     13  C        -65.2450  -38.1950  -66.2920 C.2   504  ILE504      0.2617
     14  O        -65.9070  -39.1810  -66.5460 O.2   504  ILE504     -0.2715
     15  CB       -64.3860  -37.2430  -68.5030 C.3   504  ILE504      0.0290
     16  CG1      -65.3860  -36.0940  -68.3620 C.3   504  ILE504      0.0022
     17  CG2      -64.9100  -38.3250  -69.4760 C.3   504  ILE504      0.0023
     18  CD1      -65.3940  -35.1200  -69.5670 C.3   504  ILE504      0.0001
     19  N        -65.5160  -37.4000  -65.2620 N.am  505  SER505     -0.1937
     20  CA       -66.7130  -37.5530  -64.4520 C.3   505  SER505      0.2027
     21  CB       -66.4210  -37.1380  -63.0050 C.3   505  SER505      0.1847
     22  OG       -66.1120  -35.7490  -62.9430 O.3   505  SER505     -0.2679
     23  C        -67.8280  -36.6910  -65.0440 C.2   505  SER505      0.2642
     24  O        -67.5820  -35.9310  -65.9650 O.2   505  SER505     -0.2714
     25  P        -65.7420  -35.2580  -61.4640 P.3   505  SER505      0.5327
     26  O1P      -64.4810  -36.1080  -60.9100 O.3   505  SER505     -0.1145
     27  O2P      -67.0130  -35.4000  -60.5300 O.3   505  SER505     -0.1145
     28  O3P      -65.2860  -33.7230  -61.5470 O.2   505  SER505     -0.2224
     29  N        -69.0420  -36.8040  -64.5120 N.am  506  LEU506     -0.1963
     30  CA       -70.1740  -36.0210  -64.9920 C.3   506  LEU506      0.1713
     31  C        -69.8580  -34.5290  -64.9990 C.2   506  LEU506      0.2459
     32  O        -69.4770  -33.9900  -63.9700 O.2   506  LEU506     -0.2730
     33  CB       -71.4100  -36.2570  -64.1140 C.3   506  LEU506      0.0310
     34  CG       -72.7280  -35.6710  -64.6600 C.3   506  LEU506      0.0022
     35  CD1      -73.1260  -36.3370  -65.9870 C.3   506  LEU506      0.0001
     36  CD2      -73.8730  -35.7990  -63.6550 C.3   506  LEU506      0.0001
     37  N        -70.0050  -33.8560  -66.1570 N.am  507  PRO507     -0.2699
     38  CA       -69.7750  -32.3950  -66.1610 C.3   507  PRO507      0.1791
     39  C        -70.7820  -31.6810  -65.2540 C.2   507  PRO507      0.3825
     40  O        -70.5400  -30.5910  -64.7890 O.co2 507  PRO507     -0.2438
     41  CB       -70.0050  -31.9860  -67.6170 C.3   507  PRO507      0.0332
     42  CG       -69.8880  -33.2670  -68.4100 C.3   507  PRO507      0.0238
     43  CD       -70.3720  -34.3570  -67.4870 C.3   507  PRO507      0.0940
     44  OXT      -71.8490  -32.1610  -64.8360 O.co2 507  PRO507     -0.2438
@<TRIPOS>BOND
     1    18    16    1
     2    17    15    1
     3     4     3    2
     4    15    16    1
     5    15    12    1
     6    42    41    1
     7    42    43    1
     8     3     2    1
     9     3     6   am
    10    41    38    1
    11    43    37    1
    12     2     5    1
    13     2     1    1
    14    11    12    1
    15    11     8   am
    16    12    13    1
    17     7     6    1
    18     7     8    1
    19     7    10    1
    20     8     9    2
    21    14    13    2
    22    13    19   am
    23    38    37    1
    24    38    39    1
    25    37    31   am
    26    35    34    1
    27    24    23    2
    28    19    20    1
    29    39    44   ar
    30    39    40   ar
    31    23    29   am
    32    23    20    1
    33    31    30    1
    34    31    32    2
    35    30    29    1
    36    30    33    1
    37    34    33    1
    38    34    36    1
    39    20    21    1
    40    21    22    1
    41    22    25    1
    42    28    25    2
    43    25    26    1
    44    25    27    1
