@<TRIPOS>MOLECULE
2b07_598_A_1.pdb
 37 41 0 0 0
SMALL
GASTEIGER

@<TRIPOS>ATOM
      1  S1        44.3620   14.1180    0.5200 S.2   301  598301     -0.0768
      2  C2        44.6830   15.3340    1.6850 C.ar  301  598301      0.1437
      3  C3        45.5910   14.9690    2.6490 C.ar  301  598301      0.1581
      4  C4        46.0140   13.6290    2.4370 C.ar  301  598301      0.0701
      5  C5        45.4390   13.0490    1.3430 C.ar  301  598301      0.0391
      6  C6        43.9670   16.7160    1.5230 C.2   301  598301      0.3966
      7  O7        44.0370   17.5620    2.4670 O.co2 301  598301     -0.2399
      8  O8        43.3800   16.8410    0.4120 O.co2 301  598301     -0.2399
      9  O9        46.0220   15.7410    3.6790 O.3   301  598301     -0.4625
     10  C10       47.2680   16.4150    3.4510 C.3   301  598301      0.3186
     11  C11       47.5720   17.1990    4.7270 C.2   301  598301      0.4084
     12  O14       46.6960   17.1600    5.6320 O.co2 301  598301     -0.2415
     13  O15       48.6730   17.7860    4.7440 O.co2 301  598301     -0.2415
     14  S18       47.1170   12.5550    3.2310 S.2   301  598301     -0.0833
     15  C19       46.7620   11.3250    2.0640 C.ar  301  598301      0.0313
     16  C20       45.8400   11.7110    1.0930 C.ar  301  598301      0.0127
     17  C21       47.3100   10.0270    2.0140 C.ar  301  598301      0.0226
     18  C22       46.9340    9.1100    1.0050 C.ar  301  598301      0.0657
     19  C23       46.0130    9.5230    0.0360 C.ar  301  598301      0.0161
     20  C24       45.4590   10.8140    0.0650 C.ar  301  598301      0.0023
     21  N28       47.5160    7.8510    1.0300 N.pl3 301  598301     -0.2392
     22  C29       48.5720    7.4510    1.9440 C.3   301  598301      0.0953
     23  C30       47.9410    6.9520    3.2650 C.3   301  598301      0.0407
     24  C31       49.0190    6.4840    4.2370 C.3   301  598301      0.0972
     25  N32       49.8400    5.4300    3.5400 N.3   301  598301     -0.1590
     26  C33       50.5370    5.9320    2.2970 C.3   301  598301      0.0972
     27  C34       49.4680    6.3810    1.3030 C.3   301  598301      0.0407
     28  S44       50.6720    4.2940    4.5480 S.O2  301  598301      0.0481
     29  C45       49.6580    2.8300    4.3100 C.3   301  598301      0.1954
     30  C46       49.3150    2.6740    2.8490 C.ar  301  598301      0.0029
     31  C49       48.0250    2.9940    2.3820 C.ar  301  598301     -0.0025
     32  C50       47.6950    2.8550    1.0240 C.ar  301  598301     -0.0003
     33  C51       48.6570    2.3980    0.1190 C.ar  301  598301     -0.0000
     34  C52       49.9480    2.0760    0.5670 C.ar  301  598301     -0.0003
     35  C53       50.2760    2.2120    1.9250 C.ar  301  598301     -0.0025
     36  O59       50.5680    4.7260    5.9280 O.2   301  598301     -0.1570
     37  O60       51.9810    4.0690    3.9540 O.2   301  598301     -0.1570
@<TRIPOS>BOND
     1    19    20   ar
     2    19    18   ar
     3    20    16   ar
     4    33    34   ar
     5    33    32   ar
     6     8     6   ar
     7     1     5   ar
     8     1     2   ar
     9    34    35   ar
    10    18    21    1
    11    18    17   ar
    12    32    31   ar
    13    21    22    1
    14    16     5   ar
    15    16    15   ar
    16    27    22    1
    17    27    26    1
    18     5     4   ar
    19     6     2    1
    20     6     7   ar
    21     2     3   ar
    22    35    30   ar
    23    22    23    1
    24    17    15   ar
    25    15    14   ar
    26    26    25    1
    27    31    30   ar
    28     4     3   ar
    29     4    14   ar
    30     3     9    1
    31    30    29    1
    32    23    24    1
    33    10     9    1
    34    10    11    1
    35    25    24    1
    36    25    28    1
    37    37    28    2
    38    29    28    1
    39    28    36    2
    40    11    13   ar
    41    11    12   ar
