@<TRIPOS>MOLECULE
2b0c_G1P_A_1.pdb
 16 16 0 0 0
SMALL
GASTEIGER

@<TRIPOS>ATOM
      1  C1        19.1460    4.5680   51.9110 C.3   496  G1P496      0.2781
      2  C2        18.0140    3.6100   51.4820 C.3   496  G1P496      0.2410
      3  C3        17.3190    4.2330   50.2830 C.3   496  G1P496      0.2198
      4  C4        17.0810    5.6850   50.6370 C.3   496  G1P496      0.2144
      5  C5        18.4030    6.4080   50.4110 C.3   496  G1P496      0.1835
      6  C6        18.3610    7.8420   50.9550 C.3   496  G1P496      0.2142
      7  O1        20.1760    3.6340   52.1480 O.3   496  G1P496     -0.2416
      8  O2        18.4800    2.2370   51.4450 O.3   496  G1P496     -0.2149
      9  O3        16.0440    3.6540   50.1380 O.3   496  G1P496     -0.2174
     10  O4        16.0000    6.2700   49.8820 O.3   496  G1P496     -0.2176
     11  O5        19.4860    5.6080   50.9450 O.3   496  G1P496     -0.3253
     12  O6        18.3470    7.8750   52.3890 O.3   496  G1P496     -0.2176
     13  P         21.6040    4.0190   52.6430 P.3   496  G1P496      0.5346
     14  O1P       21.5850    3.6230   54.0970 O.3   496  G1P496     -0.1145
     15  O2P       22.4640    3.1370   51.7740 O.2   496  G1P496     -0.2223
     16  O3P       21.6920    5.5180   52.3950 O.3   496  G1P496     -0.1145
@<TRIPOS>BOND
     1    10     4    1
     2     9     3    1
     3     3     4    1
     4     3     2    1
     5     5     4    1
     6     5    11    1
     7     5     6    1
     8    11     1    1
     9     6    12    1
    10     8     2    1
    11     2     1    1
    12    15    13    2
    13     1     7    1
    14     7    13    1
    15    16    13    1
    16    13    14    1
