@<TRIPOS>MOLECULE
2b0m_FMN_A_1.pdb
 31 33 0 0 0
SMALL
GASTEIGER

@<TRIPOS>ATOM
      1  N1       -34.8790  -24.1980   -8.6610 N.2   402  FMN402     -0.2890
      2  C2       -35.6620  -24.1680   -9.7920 C.1   402  FMN402      0.3669
      3  O2       -35.2950  -24.6010  -10.8620 O.2   402  FMN402     -0.1744
      4  N3       -36.9750  -23.5820   -9.6910 N.2   402  FMN402     -0.2300
      5  C4       -37.5080  -23.0620   -8.5790 C.1   402  FMN402      0.2513
      6  O4       -38.6480  -22.5810   -8.6030 O.2   402  FMN402     -0.2057
      7  C4A      -36.6820  -23.0830   -7.3600 C.2   402  FMN402      0.2700
      8  N5       -37.1390  -22.5800   -6.2090 N.2   402  FMN402     -0.3878
      9  C5A      -36.3350  -22.6030   -5.0900 C.2   402  FMN402      0.1320
     10  C6       -36.7990  -22.0410   -3.8270 C.2   402  FMN402      0.0250
     11  C7       -36.0160  -22.0260   -2.6890 C.2   402  FMN402     -0.0238
     12  C7M      -36.5450  -21.4100   -1.3830 C.3   402  FMN402      0.0308
     13  C8       -34.6690  -22.5900   -2.7320 C.2   402  FMN402     -0.0280
     14  C8M      -33.7360  -22.6010   -1.5300 C.3   402  FMN402      0.0304
     15  C9       -34.2130  -23.1400   -3.9240 C.2   402  FMN402     -0.0041
     16  C9A      -35.0000  -23.1600   -5.1100 C.3   402  FMN402      0.1497
     17  N10      -34.5490  -23.7130   -6.3710 N.pl3 402  FMN402     -0.2691
     18  C10      -35.3360  -23.6950   -7.5020 C.2   402  FMN402      0.2416
     19  C1'      -33.2100  -24.3090   -6.4710 C.3   402  FMN402      0.1294
     20  C2'      -32.0600  -23.3390   -6.7240 C.3   402  FMN402      0.2044
     21  O2'      -32.2750  -22.7160   -8.0270 O.3   402  FMN402     -0.2185
     22  C3'      -30.6990  -24.1010   -6.7760 C.3   402  FMN402      0.2164
     23  O3'      -30.7600  -25.1690   -7.8040 O.3   402  FMN402     -0.2175
     24  C4'      -30.3780  -24.8170   -5.4370 C.3   402  FMN402      0.2147
     25  O4'      -31.0170  -24.1470   -4.3260 O.3   402  FMN402     -0.2176
     26  C5'      -28.8730  -24.9020   -5.1470 C.3   402  FMN402      0.1892
     27  O5'      -28.2470  -23.6200   -5.0010 O.3   402  FMN402     -0.2674
     28  P        -27.9870  -22.9110   -3.5870 P.3   402  FMN402      0.5327
     29  O1P      -29.3140  -22.3810   -3.0970 O.3   402  FMN402     -0.1145
     30  O2P      -26.9740  -21.8170   -3.8900 O.2   402  FMN402     -0.2224
     31  O3P      -27.4050  -23.9610   -2.6370 O.3   402  FMN402     -0.1145
@<TRIPOS>BOND
     1     3     2    2
     2     2     4    2
     3     2     1    2
     4     4     5    2
     5     1    18    2
     6     6     5    2
     7     5     7    1
     8    21    20    1
     9    23    22    1
    10    18     7    1
    11    18    17    1
    12     7     8    2
    13    22    20    1
    14    22    24    1
    15    20    19    1
    16    19    17    1
    17    17    16    1
    18     8     9    2
    19    24    26    1
    20    24    25    1
    21    26    27    1
    22    16     9    1
    23    16    15    1
    24     9    10    1
    25    27    28    1
    26    15    13    2
    27    30    28    2
    28    10    11    2
    29    28    29    1
    30    28    31    1
    31    13    11    1
    32    13    14    1
    33    11    12    1
