@<TRIPOS>MOLECULE
2b0m_201_A_1.pdb
 24 26 0 0 0
SMALL
GASTEIGER

@<TRIPOS>ATOM
      1  C4       -33.9730  -15.2020    4.3460 C.ar  401  201401      0.0799
      2  C2       -33.4930  -13.8830    4.0420 C.ar  401  201401      0.0066
      3  C3       -33.5490  -13.3770    2.7040 C.ar  401  201401      0.0004
      4  C1       -34.0900  -14.2130    1.6690 C.ar  401  201401      0.0046
      5  C7       -34.5720  -15.5360    1.9550 C.ar  401  201401      0.0569
      6  C6       -34.5050  -16.0160    3.2950 C.ar  401  201401      0.0112
      7  C23      -33.0660  -12.0020    2.3790 C.ar  401  201401      0.0000
      8  C8       -33.6310  -10.8690    3.0540 C.ar  401  201401      0.0000
      9  C12      -33.2010   -9.5510    2.7510 C.ar  401  201401      0.0000
     10  C16      -32.1910   -9.3230    1.7640 C.ar  401  201401      0.0000
     11  C13      -31.6140  -10.4520    1.0840 C.ar  401  201401      0.0000
     12  C9       -32.0460  -11.7770    1.3880 C.ar  401  201401      0.0000
     13  C17      -31.7670   -7.9320    1.4490 C.ar  401  201401      0.0000
     14  C19      -31.0490   -7.1410    2.4080 C.ar  401  201401      0.0000
     15  C22      -30.6590   -5.8090    2.0910 C.ar  401  201401      0.0000
     16  C21      -30.9760   -5.2500    0.8230 C.ar  401  201401      0.0000
     17  C20      -31.6880   -6.0220   -0.1380 C.ar  401  201401      0.0000
     18  C18      -32.0830   -7.3550    0.1690 C.ar  401  201401      0.0000
     19  C5       -33.9210  -15.7300    5.7330 C.2   401  201401      0.3878
     20  C11      -35.1320  -16.3920    0.8570 C.2   401  201401      0.2842
     21  O3       -35.1230  -15.9650   -0.3280 O.2   401  201401     -0.2667
     22  N1       -35.6510  -17.6250    1.1040 N.am  401  201401     -0.0837
     23  O1       -34.3620  -16.9380    5.9960 O.co2 401  201401     -0.2406
     24  O2       -33.4400  -15.0040    6.7140 O.co2 401  201401     -0.2406
@<TRIPOS>BOND
     1    21    20    2
     2    17    18   ar
     3    17    16   ar
     4    18    13   ar
     5    16    15   ar
     6    20    22   am
     7    20     5    1
     8    11    12   ar
     9    11    10   ar
    10    12     7   ar
    11    13    10    1
    12    13    14   ar
    13     4     5   ar
    14     4     3   ar
    15    10     9   ar
    16     5     6   ar
    17    15    14   ar
    18     7     3    1
    19     7     8   ar
    20     3     2   ar
    21     9     8   ar
    22     6     1   ar
    23     2     1   ar
    24     1    19    1
    25    19    23   ar
    26    19    24   ar
