@<TRIPOS>MOLECULE
2b0q_ADP_A_1.pdb
 27 29 0 0 0
SMALL
GASTEIGER

@<TRIPOS>ATOM
      1  PB        62.2580    8.2710 -272.9910 P.3   300  ADP300      0.5373
      2  O1B       61.8610    7.4630 -274.1700 O.2   300  ADP300     -0.2221
      3  O2B       61.2780    8.5120 -271.9330 O.3   300  ADP300     -0.1143
      4  O3B       62.8230    9.6950 -273.4880 O.3   300  ADP300     -0.1143
      5  PA        64.9870    7.4460 -272.9770 P.3   300  ADP300      0.2231
      6  O1A       65.1340    6.1080 -273.5610 O.3   300  ADP300     -0.4370
      7  O2A       65.2120    8.6440 -273.8030 O.2   300  ADP300     -0.5169
      8  O3A       63.5310    7.5710 -272.3180 O.3   300  ADP300     -0.2261
      9  O5'       65.9330    7.5210 -271.6890 O.3   300  ADP300     -0.3111
     10  C5'       65.7120    8.5190 -270.6880 C.3   300  ADP300      0.1813
     11  C4'       67.0080    9.2480 -270.3610 C.3   300  ADP300      0.1821
     12  O4'       67.8750    8.4190 -269.5670 O.3   300  ADP300     -0.3135
     13  C3'       67.8610    9.6060 -271.5820 C.3   300  ADP300      0.2184
     14  O3'       67.6130   10.9670 -271.9380 O.3   300  ADP300     -0.2174
     15  C2'       69.2720    9.4790 -270.9960 C.3   300  ADP300      0.2570
     16  O2'       69.5480   10.6370 -270.2000 O.3   300  ADP300     -0.2130
     17  C1'       69.2020    8.2770 -270.0620 C.3   300  ADP300      0.3186
     18  N9        69.5170    6.9710 -270.7050 N.pl3 300  ADP300     -0.1439
     19  C8        68.6670    5.9780 -271.1510 C.3   300  ADP300      0.3377
     20  N7        69.2700    4.9430 -271.6720 N.2   300  ADP300     -0.2095
     21  C5        70.6110    5.2640 -271.5650 C.2   300  ADP300      0.2526
     22  C6        71.8100    4.5840 -271.9300 C.2   300  ADP300      0.4393
     23  N6        71.8210    3.3890 -272.4990 N.pl3 300  ADP300      0.2180
     24  N1        72.9940    5.2000 -271.6750 N.2   300  ADP300      0.0021
     25  C2        73.0060    6.4140 -271.0990 C.3   300  ADP300      0.5254
     26  N3        71.9580    7.1470 -270.7140 N.2   300  ADP300     -0.0055
     27  C4        70.7750    6.5010 -270.9800 C.2   300  ADP300      0.3518
@<TRIPOS>BOND
     1     2     1    2
     2     7     5    2
     3     6     5    1
     4     4     1    1
     5     1     8    1
     6     1     3    1
     7     5     8    1
     8     5     9    1
     9    23    22    1
    10    14    13    1
    11    22    24    2
    12    22    21    1
    13     9    10    1
    14    24    25    1
    15    20    21    2
    16    20    19    1
    17    13    15    1
    18    13    11    1
    19    21    27    1
    20    19    18    1
    21    25    26    1
    22    15    16    1
    23    15    17    1
    24    27    26    2
    25    27    18    1
    26    18    17    1
    27    10    11    1
    28    11    12    1
    29    17    12    1
