@<TRIPOS>MOLECULE
2b0q_NMY_A_1.pdb
 42 45 0 0 0
SMALL
GASTEIGER

@<TRIPOS>ATOM
      1  C1        58.6270   14.8890 -276.2150 C.3   305  NMY305      0.2561
      2  O1        58.0370   15.0790 -277.5100 O.3   305  NMY305     -0.3278
      3  C2        59.9020   14.0230 -276.3120 C.3   305  NMY305      0.1807
      4  N2        60.6680   14.4780 -277.5110 N.3   305  NMY305     -0.1248
      5  C3        59.6370   12.5360 -276.5440 C.3   305  NMY305      0.2070
      6  O3        60.8100   11.8440 -276.1600 O.3   305  NMY305     -0.2186
      7  C4        58.4810   12.0290 -275.6990 C.3   305  NMY305      0.2122
      8  O4        58.1510   10.7140 -276.1450 O.3   305  NMY305     -0.2177
      9  C5        57.2730   12.9320 -275.9000 C.3   305  NMY305      0.1696
     10  O5        57.5830   14.2600 -275.4450 O.3   305  NMY305     -0.3276
     11  C6        56.0910   12.4220 -275.0860 C.3   305  NMY305      0.1415
     12  C7        56.6150   18.5670 -279.3620 C.3   305  NMY305      0.1261
     13  N7        55.8750   19.8390 -279.5870 N.3   305  NMY305     -0.1301
     14  C12       57.5460   18.7920 -278.1750 C.3   305  NMY305      0.1989
     15  C11       58.3430   17.5030 -277.9010 C.3   305  NMY305      0.1779
     16  O11       59.2030   17.7430 -276.7820 O.3   305  NMY305     -0.3258
     17  C10       57.3560   16.3340 -277.5580 C.3   305  NMY305      0.1649
     18  C9        56.2850   16.1780 -278.6680 C.3   305  NMY305      0.1230
     19  N9        55.2370   15.2650 -278.1290 N.3   305  NMY305     -0.1302
     20  C8        55.5720   17.5070 -278.9950 C.3   305  NMY305      0.0433
     21  C13       60.5190   18.1210 -277.2500 C.3   305  NMY305      0.2694
     22  C14       61.0320   19.2330 -276.3740 C.3   305  NMY305      0.2373
     23  C15       62.0290   18.5650 -275.4640 C.3   305  NMY305      0.1827
     24  C16       62.3710   17.2810 -276.1740 C.3   305  NMY305      0.1804
     25  O16       61.2770   16.9470 -277.0220 O.3   305  NMY305     -0.3257
     26  C17       62.5800   16.1700 -275.1780 C.3   305  NMY305      0.2141
     27  C21       66.0350   20.3240 -273.5130 C.3   305  NMY305      0.2122
     28  C20       65.3840   21.1150 -274.6220 C.3   305  NMY305      0.2070
     29  C19       63.9360   21.3770 -274.2490 C.3   305  NMY305      0.1807
     30  C18       63.1940   20.0520 -274.1140 C.3   305  NMY305      0.2561
     31  O18       63.2140   19.3420 -275.3570 O.3   305  NMY305     -0.3265
     32  C22       65.3120   18.9890 -273.2420 C.3   305  NMY305      0.1696
     33  O22       63.8400   19.1220 -273.1850 O.3   305  NMY305     -0.3276
     34  C23       65.6630   17.9130 -274.2570 C.3   305  NMY305      0.1415
     35  N6        55.0920   13.5410 -275.1510 N.3   305  NMY305     -0.1286
     36  O14       61.6960   20.1750 -277.2110 O.3   305  NMY305     -0.2150
     37  O20       66.0540   22.3610 -274.7360 O.3   305  NMY305     -0.2186
     38  O21       67.3890   20.0550 -273.8920 O.3   305  NMY305     -0.2177
     39  O17       63.7380   15.4470 -275.5880 O.3   305  NMY305     -0.2176
     40  O12       58.4480   19.8420 -278.5140 O.3   305  NMY305     -0.2189
     41  N19       65.3890   16.6400 -273.5160 N.3   305  NMY305     -0.1286
     42  N23       63.3200   22.0980 -275.4020 N.3   305  NMY305     -0.1248
@<TRIPOS>BOND
     1    13    12    1
     2    12    20    1
     3    12    14    1
     4    20    18    1
     5    18    19    1
     6    18    17    1
     7    40    14    1
     8    14    15    1
     9    15    17    1
    10    15    16    1
    11    17     2    1
    12     4     3    1
    13     2     1    1
    14    21    25    1
    15    21    16    1
    16    21    22    1
    17    36    22    1
    18    25    24    1
    19     5     3    1
    20     5     6    1
    21     5     7    1
    22    22    23    1
    23     3     1    1
    24     1    10    1
    25    24    23    1
    26    24    26    1
    27     8     7    1
    28     9     7    1
    29     9    10    1
    30     9    11    1
    31    39    26    1
    32    23    31    1
    33    42    29    1
    34    31    30    1
    35    35    11    1
    36    37    28    1
    37    28    29    1
    38    28    27    1
    39    34    41    1
    40    34    32    1
    41    29    30    1
    42    30    33    1
    43    38    27    1
    44    27    32    1
    45    32    33    1
