@<TRIPOS>MOLECULE
2b0z_ZNH_A_1.pdb
 43 50 0 0 0
SMALL
GASTEIGER

@<TRIPOS>ATOM
      1 ZN          8.9000   16.8510   78.1830 Zn    295  ZNH295      0.0000
      2  CHA       11.5890   18.2580   76.6960 C.2   295  ZNH295      0.0000
      3  CHB       10.7550   16.4290   81.0030 C.2   295  ZNH295      0.0000
      4  CHC        6.1760   16.0170   79.9340 C.2   295  ZNH295      0.0000
      5  CHD        6.9700   18.1040   75.7450 C.2   295  ZNH295      0.0000
      6  NA        10.7510   17.5340   78.8330 N.2   295  ZNH295      0.0000
      7  C1A       11.7690   17.9300   78.0290 C.2   295  ZNH295      0.0000
      8  C2A       13.0270   17.8090   78.7040 C.2   295  ZNH295      0.0000
      9  C3A       12.7930   17.2830   79.9280 C.2   295  ZNH295      0.0000
     10  C4A       11.3860   17.1170   79.9830 C.2   295  ZNH295      0.0000
     11  CMA       13.8240   16.8710   81.0020 C.3   295  ZNH295      0.0000
     12  CAA       14.3840   18.2000   78.1380 C.3   295  ZNH295      0.0000
     13  CBA       14.7860   19.6580   78.1850 C.3   295  ZNH295      0.0000
     14  CGA       16.1150   19.9080   77.5210 C.2   295  ZNH295      0.0000
     15  O1A       17.0650   19.1700   77.8340 O.co2 295  ZNH295      0.0000
     16  O2A       16.2130   20.8350   76.6920 O.co2 295  ZNH295      0.0000
     17  NB         8.5360   16.3040   80.1100 N.ar  295  ZNH295      0.0000
     18  C1B        9.4480   16.0320   81.0750 C.ar  295  ZNH295      0.0000
     19  C2B        8.8660   15.3130   82.1750 C.ar  295  ZNH295      0.0000
     20  C3B        7.4940   15.1570   81.8930 C.ar  295  ZNH295      0.0000
     21  C4B        7.3500   15.8130   80.5910 C.ar  295  ZNH295      0.0000
     22  CMB        9.6750   14.8730   83.4030 C.3   295  ZNH295      0.0000
     23  CAB        6.4170   14.6130   82.6380 C.3   295  ZNH295      0.0000
     24  CBB        6.3380   13.6000   83.5840 C.3   295  ZNH295      0.0000
     25  NC         6.9120   17.1200   77.9180 N.2   295  ZNH295      0.0000
     26  C1C        5.9350   16.6430   78.7350 C.2   295  ZNH295      0.0000
     27  C2C        4.6360   16.9050   78.2200 C.2   295  ZNH295      0.0000
     28  C3C        4.8400   17.5750   77.0150 C.2   295  ZNH295      0.0000
     29  C4C        6.2800   17.6390   76.8470 C.2   295  ZNH295      0.0000
     30  CMC        3.3770   16.5400   79.0140 C.3   295  ZNH295      0.0000
     31  CAC        3.9790   18.2980   76.1660 C.2   295  ZNH295      0.0000
     32  CBC        2.6850   18.1020   75.8280 C.2   295  ZNH295      0.0000
     33  ND         9.1980   18.0670   76.5610 N.ar  295  ZNH295      0.0000
     34  C1D        8.3180   18.2550   75.5560 C.ar  295  ZNH295      0.0000
     35  C2D        8.9670   18.5580   74.3050 C.ar  295  ZNH295      0.0000
     36  C3D       10.3270   18.5960   74.5290 C.ar  295  ZNH295      0.0000
     37  C4D       10.4220   18.2990   75.9660 C.ar  295  ZNH295      0.0000
     38  CMD        8.2670   18.6650   72.9530 C.3   295  ZNH295      0.0000
     39  CAD       11.4920   18.7320   73.5070 C.3   295  ZNH295      0.0000
     40  CBD       12.1220   20.1190   73.4230 C.3   295  ZNH295      0.0000
     41  CGD       13.2840   20.2230   72.4360 C.2   295  ZNH295      0.0000
     42  O1D       13.5390   21.3460   71.9540 O.co2 295  ZNH295      0.0000
     43  O2D       13.9360   19.2040   72.1450 O.co2 295  ZNH295      0.0000
@<TRIPOS>BOND
     1    42    41   ar
     2    43    41   ar
     3    41    40    1
     4    38    35    1
     5    40    39    1
     6    39    36    1
     7    35    36   ar
     8    35    34   ar
     9    36    37   ar
    10    34     5    2
    11    34    33   ar
    12     5    29    1
    13    32    31    2
    14    37    33   ar
    15    37     2    2
    16    31    28    1
    17    33     1    1
    18    16    14   ar
    19     2     7    1
    20    29    28    1
    21    29    25    2
    22    28    27    2
    23    14    15   ar
    24    14    13    1
    25    25     1    1
    26    25    26    1
    27     7     8    1
    28     7     6    2
    29    12    13    1
    30    12     8    1
    31     1     6    1
    32     1    17    1
    33    27    26    1
    34    27    30    1
    35     8     9    2
    36    26     4    2
    37     6    10    1
    38     9    10    1
    39     9    11    1
    40     4    21    1
    41    10     3    2
    42    17    21   ar
    43    17    18   ar
    44    21    20   ar
    45     3    18    1
    46    18    19   ar
    47    20    19   ar
    48    20    23    1
    49    19    22    1
    50    23    24    1
