@<TRIPOS>MOLECULE
2b0z_HEM_B_1.pdb
 43 50 0 0 0
SMALL
GASTEIGER

@<TRIPOS>ATOM
      1  CHA        9.1810   -1.9930   55.3820 C.2   109  HEM109      0.0000
      2  CHB       13.5510   -2.9440   53.7690 C.2   109  HEM109      0.0000
      3  CHC       14.6230   -4.9100   57.9210 C.2   109  HEM109      0.0000
      4  CHD       10.1070   -4.4290   59.3030 C.2   109  HEM109      0.0000
      5  C1A       10.2540   -2.0370   54.5610 C.ar  109  HEM109      0.0000
      6  C2A       10.2920   -1.5330   53.2460 C.ar  109  HEM109      0.0000
      7  C3A       11.5280   -1.8440   52.7940 C.ar  109  HEM109      0.0000
      8  C4A       12.2320   -2.5270   53.8100 C.ar  109  HEM109      0.0000
      9  CMA       12.1300   -1.4830   51.4830 C.3   109  HEM109      0.0000
     10  CAA        9.2350   -0.7290   52.5250 C.3   109  HEM109      0.0000
     11  CBA        8.1890   -1.5670   51.8200 C.3   109  HEM109      0.0000
     12  CGA        7.2910   -0.7650   50.8900 C.2   109  HEM109      0.0000
     13  O1A        6.4190   -1.3890   50.2460 O.co2 109  HEM109      0.0000
     14  O2A        7.4580    0.4740   50.7770 O.co2 109  HEM109      0.0000
     15  C1B       14.3100   -3.5150   54.7660 C.2   109  HEM109      0.0000
     16  C2B       15.6760   -4.0190   54.6380 C.2   109  HEM109      0.0000
     17  C3B       16.0410   -4.5000   55.8630 C.2   109  HEM109      0.0000
     18  C4B       14.8370   -4.3480   56.6760 C.2   109  HEM109      0.0000
     19  CMB       16.4220   -4.2180   53.3050 C.3   109  HEM109      0.0000
     20  CAB       17.2800   -5.0550   56.2700 C.3   109  HEM109      0.0000
     21  CBB       18.5410   -4.4900   56.4730 C.3   109  HEM109      0.0000
     22  C1C       13.4830   -4.9660   58.7040 C.ar  109  HEM109      0.0000
     23  C2C       13.3700   -5.7400   59.9170 C.ar  109  HEM109      0.0000
     24  C3C       12.0500   -5.6260   60.3940 C.ar  109  HEM109      0.0000
     25  C4C       11.4280   -4.7700   59.3540 C.ar  109  HEM109      0.0000
     26  CMC       14.4850   -6.6990   60.3680 C.3   109  HEM109      0.0000
     27  CAC       11.4330   -6.2300   61.5190 C.2   109  HEM109      0.0000
     28  CBC       11.7340   -6.1110   62.8550 C.2   109  HEM109      0.0000
     29  C1D        9.4330   -3.7400   58.3630 C.2   109  HEM109      0.0000
     30  C2D        8.0870   -3.3110   58.5340 C.2   109  HEM109      0.0000
     31  C3D        7.8120   -2.5370   57.4190 C.2   109  HEM109      0.0000
     32  C4D        9.0180   -2.5470   56.6200 C.2   109  HEM109      0.0000
     33  CMD        7.2080   -3.6400   59.7600 C.3   109  HEM109      0.0000
     34  CAD        6.5310   -1.7500   57.1420 C.3   109  HEM109      0.0000
     35  CBD        6.6860   -0.4050   57.8680 C.3   109  HEM109      0.0000
     36  CGD        5.4350    0.4560   57.8700 C.2   109  HEM109      0.0000
     37  O1D        4.3590    0.0440   57.3730 O.co2 109  HEM109      0.0000
     38  O2D        5.5260    1.5780   58.3980 O.co2 109  HEM109      0.0000
     39  NA        11.4220   -2.6420   54.8890 N.ar  109  HEM109      0.0000
     40  NB        13.8320   -3.7260   55.9970 N.2   109  HEM109      0.0000
     41  NC        12.3190   -4.4000   58.3760 N.ar  109  HEM109      0.0000
     42  ND         9.9850   -3.2760   57.2170 N.2   109  HEM109      0.0000
     43 FE         11.9120   -3.4670   56.6140 Fe    109  HEM109      0.0000
@<TRIPOS>BOND
     1    13    12   ar
     2    14    12   ar
     3    12    11    1
     4     9     7    1
     5    11    10    1
     6    10     6    1
     7     7     6   ar
     8     7     8   ar
     9     6     5   ar
    10    19    16    1
    11     2     8    2
    12     2    15    1
    13     8    39   ar
    14     5    39   ar
    15     5     1    2
    16    16    15    1
    17    16    17    2
    18    15    40    2
    19    39    43    1
    20     1    32    1
    21    17    20    1
    22    17    18    1
    23    40    43    1
    24    40    18    1
    25    20    21    1
    26    43    42    1
    27    43    41    1
    28    32    42    2
    29    32    31    1
    30    18     3    2
    31    34    31    1
    32    34    35    1
    33    42    29    1
    34    37    36   ar
    35    31    30    2
    36    35    36    1
    37    36    38   ar
    38     3    22    1
    39    29    30    1
    40    29     4    2
    41    41    22   ar
    42    41    25   ar
    43    30    33    1
    44    22    23   ar
    45     4    25    1
    46    25    24   ar
    47    23    26    1
    48    23    24   ar
    49    24    27    1
    50    27    28    2
