@<TRIPOS>MOLECULE
2b10_HEM_B_1.pdb
 43 50 0 0 0
SMALL
GASTEIGER

@<TRIPOS>ATOM
      1  CHA       -2.8190  -17.2230   46.6990 C.2   409  HEM409      0.0000
      2  CHB       -4.8750  -14.3470   49.9370 C.2   409  HEM409      0.0000
      3  CHC       -4.6070  -10.6310   46.6850 C.2   409  HEM409      0.0000
      4  CHD       -3.3210  -13.7620   43.4470 C.2   409  HEM409      0.0000
      5  C1A       -3.3560  -16.7930   47.9100 C.2   409  HEM409      0.0000
      6  C2A       -3.4260  -17.5630   49.1220 C.2   409  HEM409      0.0000
      7  C3A       -4.0690  -16.7350   49.9810 C.2   409  HEM409      0.0000
      8  C4A       -4.3480  -15.4920   49.3530 C.2   409  HEM409      0.0000
      9  CMA       -4.4370  -17.0690   51.3880 C.3   409  HEM409      0.0000
     10  CAA       -2.7680  -18.9150   49.4120 C.3   409  HEM409      0.0000
     11  CBA       -3.6010  -20.0890   48.9120 C.3   409  HEM409      0.0000
     12  CGA       -3.0180  -21.4460   49.2640 C.2   409  HEM409      0.0000
     13  O1A       -3.8010  -22.4190   49.3240 O.co2 409  HEM409      0.0000
     14  O2A       -1.7890  -21.5530   49.4670 O.co2 409  HEM409      0.0000
     15  C1B       -4.9600  -13.0270   49.3890 C.ar  409  HEM409      0.0000
     16  C2B       -5.7840  -11.9710   49.9140 C.ar  409  HEM409      0.0000
     17  C3B       -5.5820  -10.8800   49.0520 C.ar  409  HEM409      0.0000
     18  C4B       -4.7540  -11.3270   47.9530 C.ar  409  HEM409      0.0000
     19  CMB       -6.9200  -12.3650   50.8970 C.3   409  HEM409      0.0000
     20  CAB       -6.1350   -9.6150   49.1810 C.3   409  HEM409      0.0000
     21  CBB       -5.5560   -8.3590   49.3990 C.3   409  HEM409      0.0000
     22  C1C       -4.2580  -11.0930   45.4130 C.2   409  HEM409      0.0000
     23  C2C       -3.9830  -10.3530   44.1170 C.2   409  HEM409      0.0000
     24  C3C       -3.7740  -11.3370   43.1530 C.2   409  HEM409      0.0000
     25  C4C       -3.8090  -12.5880   43.9250 C.2   409  HEM409      0.0000
     26  CMC       -3.6650   -8.8590   43.9000 C.3   409  HEM409      0.0000
     27  CAC       -3.7130  -11.1970   41.7400 C.3   409  HEM409      0.0000
     28  CBC       -2.5850  -11.2570   40.9150 C.3   409  HEM409      0.0000
     29  C1D       -3.0860  -14.9750   44.0330 C.ar  409  HEM409      0.0000
     30  C2D       -2.1640  -15.8910   43.4090 C.ar  409  HEM409      0.0000
     31  C3D       -2.0020  -16.9050   44.3160 C.ar  409  HEM409      0.0000
     32  C4D       -2.8020  -16.5490   45.4830 C.ar  409  HEM409      0.0000
     33  CMD       -1.3920  -15.6400   42.0780 C.3   409  HEM409      0.0000
     34  CAD       -1.1710  -18.1650   44.0710 C.3   409  HEM409      0.0000
     35  CBD        0.2480  -18.1460   44.5730 C.3   409  HEM409      0.0000
     36  CGD        1.0590  -19.3620   44.1820 C.2   409  HEM409      0.0000
     37  O1D        0.5220  -20.2960   43.5450 O.co2 409  HEM409      0.0000
     38  O2D        2.2620  -19.3740   44.5180 O.co2 409  HEM409      0.0000
     39  NA        -3.9140  -15.5330   48.0680 N.2   409  HEM409      0.0000
     40  NB        -4.3990  -12.6340   48.1950 N.ar  409  HEM409      0.0000
     41  NC        -4.1210  -12.4420   45.2370 N.2   409  HEM409      0.0000
     42  ND        -3.4410  -15.3490   45.2810 N.ar  409  HEM409      0.0000
     43 FE         -3.9070  -13.9360   46.7070 Fe    409  HEM409      0.0000
@<TRIPOS>BOND
     1    28    27    1
     2    27    24    1
     3    33    30    1
     4    24    25    1
     5    24    23    2
     6    30    29   ar
     7    30    31   ar
     8     4    25    1
     9     4    29    2
    10    37    36   ar
    11    26    23    1
    12    25    41    2
    13    29    42   ar
    14    34    31    1
    15    34    35    1
    16    23    22    1
    17    36    38   ar
    18    36    35    1
    19    31    32   ar
    20    41    22    1
    21    41    43    1
    22    42    32   ar
    23    42    43    1
    24    22     3    2
    25    32     1    2
    26     3    18    1
    27     1     5    1
    28    43    39    1
    29    43    40    1
    30     5    39    2
    31     5     6    1
    32    18    40   ar
    33    18    17   ar
    34    39     8    1
    35    40    15   ar
    36    11    12    1
    37    11    10    1
    38    17    20    1
    39    17    16   ar
    40     6    10    1
    41     6     7    2
    42    20    21    1
    43    12    13   ar
    44    12    14   ar
    45     8     2    2
    46     8     7    1
    47    15    16   ar
    48    15     2    1
    49    16    19    1
    50     7     9    1
