@<TRIPOS>MOLECULE
2b10_ZNH_A_1.pdb
 43 50 0 0 0
SMALL
GASTEIGER

@<TRIPOS>ATOM
      1 ZN          2.3620    3.3330   28.5530 Zn    295  ZNH295      0.0000
      2  CHA       -0.3140    3.7900   30.5080 C.2   295  ZNH295      0.0000
      3  CHB        0.4350    4.0730   25.8640 C.2   295  ZNH295      0.0000
      4  CHC        5.1520    3.6090   26.5930 C.2   295  ZNH295      0.0000
      5  CHD        4.3740    3.1890   31.2560 C.2   295  ZNH295      0.0000
      6  NA         0.3660    3.6860   28.2370 N.ar  295  ZNH295      0.0000
      7  C1A       -0.5800    3.8880   29.1720 C.ar  295  ZNH295      0.0000
      8  C2A       -1.7820    4.3130   28.5730 C.ar  295  ZNH295      0.0000
      9  C3A       -1.5830    4.3960   27.2130 C.ar  295  ZNH295      0.0000
     10  C4A       -0.2430    4.0110   27.0540 C.ar  295  ZNH295      0.0000
     11  CMA       -2.5160    4.7670   26.0170 C.3   295  ZNH295      0.0000
     12  CAA       -3.0340    4.5970   29.3550 C.3   295  ZNH295      0.0000
     13  CBA       -3.3900    5.9310   29.9790 C.3   295  ZNH295      0.0000
     14  CGA       -4.6180    5.8480   30.8390 C.2   295  ZNH295      0.0000
     15  O1A       -5.7020    5.5320   30.3060 O.co2 295  ZNH295      0.0000
     16  O2A       -4.5000    6.1080   32.0480 O.co2 295  ZNH295      0.0000
     17  NB         2.6890    3.5660   26.5700 N.2   295  ZNH295      0.0000
     18  C1B        1.7910    3.8600   25.6160 C.2   295  ZNH295      0.0000
     19  C2B        2.4360    4.0370   24.3030 C.2   295  ZNH295      0.0000
     20  C3B        3.8020    3.8180   24.4590 C.2   295  ZNH295      0.0000
     21  C4B        3.9120    3.5890   25.9160 C.2   295  ZNH295      0.0000
     22  CMB        1.6590    4.5150   23.0550 C.3   295  ZNH295      0.0000
     23  CAB        4.8530    3.6950   23.5320 C.3   295  ZNH295      0.0000
     24  CBB        4.8880    3.3300   22.1900 C.3   295  ZNH295      0.0000
     25  NC         4.4170    3.5340   28.8510 N.ar  295  ZNH295      0.0000
     26  C1C        5.3860    3.5850   27.9430 C.ar  295  ZNH295      0.0000
     27  C2C        6.7000    3.4700   28.5000 C.ar  295  ZNH295      0.0000
     28  C3C        6.5180    3.3340   29.8310 C.ar  295  ZNH295      0.0000
     29  C4C        5.0540    3.3500   30.0180 C.ar  295  ZNH295      0.0000
     30  CMC        7.9950    3.5000   27.7050 C.3   295  ZNH295      0.0000
     31  CAC        7.3970    3.3600   30.9340 C.2   295  ZNH295      0.0000
     32  CBC        8.7310    3.0940   31.0880 C.2   295  ZNH295      0.0000
     33  ND         2.0730    3.5770   30.4810 N.2   295  ZNH295      0.0000
     34  C1D        2.9870    3.2660   31.4680 C.2   295  ZNH295      0.0000
     35  C2D        2.3150    3.0110   32.7940 C.2   295  ZNH295      0.0000
     36  C3D        0.9940    3.2230   32.5960 C.2   295  ZNH295      0.0000
     37  C4D        0.8870    3.5840   31.1250 C.2   295  ZNH295      0.0000
     38  CMD        2.9210    2.4870   34.0840 C.3   295  ZNH295      0.0000
     39  CAD       -0.0880    3.0110   33.6460 C.3   295  ZNH295      0.0000
     40  CBD       -0.6790    4.3080   34.1430 C.3   295  ZNH295      0.0000
     41  CGD       -1.7950    4.1520   35.1340 C.2   295  ZNH295      0.0000
     42  O1D       -2.4480    5.1700   35.4310 O.co2 295  ZNH295      0.0000
     43  O2D       -2.0210    3.0380   35.6330 O.co2 295  ZNH295      0.0000
@<TRIPOS>BOND
     1    24    23    1
     2    22    19    1
     3    23    20    1
     4    19    20    2
     5    19    18    1
     6    20    21    1
     7    18     3    1
     8    18    17    2
     9     3    10    2
    10    21    17    1
    11    21     4    2
    12    11     9    1
    13    17     1    1
    14     4    26    1
    15    10     9   ar
    16    10     6   ar
    17     9     8   ar
    18    30    27    1
    19    26    27   ar
    20    26    25   ar
    21     6     1    1
    22     6     7   ar
    23    27    28   ar
    24     1    25    1
    25     1    33    1
    26     8     7   ar
    27     8    12    1
    28    25    29   ar
    29     7     2    2
    30    12    13    1
    31    28    29   ar
    32    28    31    1
    33    13    14    1
    34    29     5    1
    35    15    14   ar
    36    33    37    2
    37    33    34    1
    38     2    37    1
    39    14    16   ar
    40    31    32    2
    41    37    36    1
    42     5    34    2
    43    34    35    1
    44    36    35    2
    45    36    39    1
    46    35    38    1
    47    39    40    1
    48    40    41    1
    49    41    42   ar
    50    41    43   ar
