@<TRIPOS>MOLECULE
2b11_ZNH_A_1.pdb
 43 50 0 0 0
SMALL
GASTEIGER

@<TRIPOS>ATOM
      1 ZN         18.6160   -2.8060    3.0080 Zn    1001  ZNH1001     0.0000
      2  CHA       21.3110   -3.2440    4.9160 C.2   1001  ZNH1001     0.0000
      3  CHB       20.4610   -3.4360    0.2070 C.2   1001  ZNH1001     0.0000
      4  CHC       15.7500   -2.6790    1.0050 C.2   1001  ZNH1001     0.0000
      5  CHD       16.6120   -2.9950    5.7790 C.2   1001  ZNH1001     0.0000
      6  NA        20.5160   -3.3370    2.6620 N.ar  1001  ZNH1001     0.0000
      7  C1A       21.5150   -3.4150    3.5510 C.ar  1001  ZNH1001     0.0000
      8  C2A       22.7470   -3.6890    2.8720 C.ar  1001  ZNH1001     0.0000
      9  C3A       22.5130   -3.7530    1.5320 C.ar  1001  ZNH1001     0.0000
     10  C4A       21.1320   -3.5290    1.4160 C.ar  1001  ZNH1001     0.0000
     11  CMA       23.4970   -3.9460    0.3610 C.3   1001  ZNH1001     0.0000
     12  CAA       24.0840   -3.9000    3.5760 C.3   1001  ZNH1001     0.0000
     13  CBA       24.3970   -5.2790    4.1390 C.3   1001  ZNH1001     0.0000
     14  CGA       25.7070   -5.3050    4.8750 C.2   1001  ZNH1001     0.0000
     15  O1A       26.7340   -4.9370    4.2710 O.co2 1001  ZNH1001     0.0000
     16  O2A       25.7110   -5.6780    6.0660 O.co2 1001  ZNH1001     0.0000
     17  NB        18.2170   -3.0370    1.0130 N.2   1001  ZNH1001     0.0000
     18  C1B       19.1150   -3.1790   -0.0010 C.2   1001  ZNH1001     0.0000
     19  C2B       18.5110   -2.9800   -1.2990 C.2   1001  ZNH1001     0.0000
     20  C3B       17.1600   -2.6880   -1.1350 C.2   1001  ZNH1001     0.0000
     21  C4B       16.9820   -2.7650    0.3250 C.2   1001  ZNH1001     0.0000
     22  CMB       19.3400   -3.1640   -2.5670 C.3   1001  ZNH1001     0.0000
     23  CAB       16.1110   -2.3410   -2.0460 C.3   1001  ZNH1001     0.0000
     24  CBB       16.1030   -1.8770   -3.3570 C.3   1001  ZNH1001     0.0000
     25  NC        16.5720   -2.9170    3.3330 N.ar  1001  ZNH1001     0.0000
     26  C1C       15.5390   -2.7830    2.3790 C.ar  1001  ZNH1001     0.0000
     27  C2C       14.2340   -2.8140    3.0140 C.ar  1001  ZNH1001     0.0000
     28  C3C       14.4670   -2.9390    4.3990 C.ar  1001  ZNH1001     0.0000
     29  C4C       15.9100   -2.9770    4.5600 C.ar  1001  ZNH1001     0.0000
     30  CMC       12.9010   -2.8200    2.2050 C.3   1001  ZNH1001     0.0000
     31  CAC       13.5890   -3.1350    5.5040 C.2   1001  ZNH1001     0.0000
     32  CBC       12.3240   -2.6680    5.7130 C.2   1001  ZNH1001     0.0000
     33  ND        18.9120   -3.1490    4.9780 N.2   1001  ZNH1001     0.0000
     34  C1D       17.9980   -3.0230    5.9810 C.2   1001  ZNH1001     0.0000
     35  C2D       18.6920   -2.7910    7.2720 C.2   1001  ZNH1001     0.0000
     36  C3D       20.0260   -2.8350    7.0320 C.2   1001  ZNH1001     0.0000
     37  C4D       20.1470   -3.0730    5.6100 C.2   1001  ZNH1001     0.0000
     38  CMD       18.0250   -2.3370    8.5980 C.3   1001  ZNH1001     0.0000
     39  CAD       21.1340   -2.5820    8.0580 C.3   1001  ZNH1001     0.0000
     40  CBD       21.6260   -3.9100    8.6440 C.3   1001  ZNH1001     0.0000
     41  CGD       22.8040   -3.7790    9.5940 C.2   1001  ZNH1001     0.0000
     42  O1D       23.1410   -4.7980   10.2270 O.co2 1001  ZNH1001     0.0000
     43  O2D       23.3900   -2.6810    9.7270 O.co2 1001  ZNH1001     0.0000
@<TRIPOS>BOND
     1    24    23    1
     2    22    19    1
     3    23    20    1
     4    19    20    2
     5    19    18    1
     6    20    21    1
     7    18     3    1
     8    18    17    2
     9     3    10    2
    10    21     4    2
    11    21    17    1
    12    11     9    1
    13     4    26    1
    14    17     1    1
    15    10     9   ar
    16    10     6   ar
    17     9     8   ar
    18    30    27    1
    19    26    27   ar
    20    26    25   ar
    21     6     1    1
    22     6     7   ar
    23     8     7   ar
    24     8    12    1
    25     1    25    1
    26     1    33    1
    27    27    28   ar
    28    25    29   ar
    29     7     2    2
    30    12    13    1
    31    13    14    1
    32    15    14   ar
    33    28    29   ar
    34    28    31    1
    35    29     5    1
    36    14    16   ar
    37     2    37    1
    38    33    37    2
    39    33    34    1
    40    31    32    2
    41    37    36    1
    42     5    34    2
    43    34    35    1
    44    36    35    2
    45    36    39    1
    46    35    38    1
    47    39    40    1
    48    40    41    1
    49    41    43   ar
    50    41    42   ar
