@<TRIPOS>MOLECULE
2b11_HEM_C_1.pdb
 43 50 0 0 0
SMALL
GASTEIGER

@<TRIPOS>ATOM
      1 FE          4.0850   51.2670   24.7330 Fe    1201  HEM1201     0.0000
      2  CHA        1.3710   51.7030   26.7810 C.2   1201  HEM1201     0.0000
      3  CHB        2.2000   52.1810   22.0330 C.2   1201  HEM1201     0.0000
      4  CHC        6.8700   51.4100   22.7440 C.2   1201  HEM1201     0.0000
      5  CHD        6.1030   51.2040   27.4690 C.2   1201  HEM1201     0.0000
      6  NA         2.1780   51.9780   24.4920 N.ar  1201  HEM1201     0.0000
      7  C1A        1.1520   52.0340   25.4390 C.ar  1201  HEM1201     0.0000
      8  C2A       -0.0720   52.3870   24.7660 C.ar  1201  HEM1201     0.0000
      9  C3A        0.1650   52.4870   23.4240 C.ar  1201  HEM1201     0.0000
     10  C4A        1.5630   52.2450   23.2570 C.ar  1201  HEM1201     0.0000
     11  CMA       -0.8320   52.6410   22.2590 C.3   1201  HEM1201     0.0000
     12  CAA       -1.4130   52.5700   25.4250 C.3   1201  HEM1201     0.0000
     13  CBA       -1.5950   53.7650   26.3480 C.3   1201  HEM1201     0.0000
     14  CGA       -2.9040   53.7230   27.0680 C.2   1201  HEM1201     0.0000
     15  O1A       -3.9420   53.6710   26.3830 O.co2 1201  HEM1201     0.0000
     16  O2A       -2.8910   53.7140   28.3140 O.co2 1201  HEM1201     0.0000
     17  NB         4.4930   51.6770   22.7870 N.2   1201  HEM1201     0.0000
     18  C1B        3.5400   51.9030   21.7820 C.2   1201  HEM1201     0.0000
     19  C2B        4.1410   51.8410   20.4690 C.2   1201  HEM1201     0.0000
     20  C3B        5.5040   51.5800   20.6200 C.2   1201  HEM1201     0.0000
     21  C4B        5.6820   51.5200   22.0780 C.2   1201  HEM1201     0.0000
     22  CMB        3.3340   52.1460   19.1960 C.3   1201  HEM1201     0.0000
     23  CAB        6.5490   51.3670   19.6690 C.3   1201  HEM1201     0.0000
     24  CBB        6.5730   51.0010   18.3080 C.3   1201  HEM1201     0.0000
     25  NC         6.1200   51.3830   25.0240 N.ar  1201  HEM1201     0.0000
     26  C1C        7.1030   51.3790   24.1230 C.ar  1201  HEM1201     0.0000
     27  C2C        8.4280   51.3630   24.7270 C.ar  1201  HEM1201     0.0000
     28  C3C        8.2560   51.3390   26.0910 C.ar  1201  HEM1201     0.0000
     29  C4C        6.7990   51.3220   26.2510 C.ar  1201  HEM1201     0.0000
     30  CMC        9.7560   51.3920   23.9100 C.3   1201  HEM1201     0.0000
     31  CAC        9.1900   51.3900   27.1550 C.3   1201  HEM1201     0.0000
     32  CBC       10.4670   50.8670   27.3650 C.3   1201  HEM1201     0.0000
     33  ND         3.8240   51.4810   26.7500 N.2   1201  HEM1201     0.0000
     34  C1D        4.7520   51.2210   27.7220 C.2   1201  HEM1201     0.0000
     35  C2D        4.1450   50.9100   29.0120 C.2   1201  HEM1201     0.0000
     36  C3D        2.7810   51.0310   28.8170 C.2   1201  HEM1201     0.0000
     37  C4D        2.5960   51.4020   27.4170 C.2   1201  HEM1201     0.0000
     38  CMD        4.9060   50.3680   30.2420 C.3   1201  HEM1201     0.0000
     39  CAD        1.6380   50.7090   29.7740 C.3   1201  HEM1201     0.0000
     40  CBD        1.2560   51.8930   30.6610 C.3   1201  HEM1201     0.0000
     41  CGD       -0.0270   51.6900   31.4500 C.2   1201  HEM1201     0.0000
     42  O1D       -0.3940   52.6180   32.1910 O.co2 1201  HEM1201     0.0000
     43  O2D       -0.6810   50.6300   31.3400 O.co2 1201  HEM1201     0.0000
@<TRIPOS>BOND
     1    24    23    1
     2    22    19    1
     3    23    20    1
     4    19    20    2
     5    19    18    1
     6    20    21    1
     7    18     3    1
     8    18    17    2
     9     3    10    2
    10    21     4    2
    11    21    17    1
    12    11     9    1
    13     4    26    1
    14    17     1    1
    15    10     9   ar
    16    10     6   ar
    17     9     8   ar
    18    30    27    1
    19    26    27   ar
    20    26    25   ar
    21     6     1    1
    22     6     7   ar
    23    27    28   ar
    24     1    25    1
    25     1    33    1
    26     8    12    1
    27     8     7   ar
    28    25    29   ar
    29    12    13    1
    30     7     2    2
    31    28    29   ar
    32    28    31    1
    33    29     5    1
    34    13    14    1
    35    15    14   ar
    36    33    37    2
    37    33    34    1
    38     2    37    1
    39    14    16   ar
    40    31    32    1
    41    37    36    1
    42     5    34    2
    43    34    35    1
    44    36    35    2
    45    36    39    1
    46    35    38    1
    47    39    40    1
    48    40    41    1
    49    43    41   ar
    50    41    42   ar
