@<TRIPOS>MOLECULE
2b12_ZNH_A_1.pdb
 43 50 0 0 0
SMALL
GASTEIGER

@<TRIPOS>ATOM
      1 ZN          8.5970   16.5970   78.1020 Zn    295  ZNH295      0.0000
      2  CHA       11.3340   18.1050   76.7580 C.2   295  ZNH295      0.0000
      3  CHB       10.3950   16.2760   81.0090 C.2   295  ZNH295      0.0000
      4  CHC        5.8300   16.1430   80.0200 C.2   295  ZNH295      0.0000
      5  CHD        6.6830   17.9720   75.7360 C.2   295  ZNH295      0.0000
      6  NA        10.4320   17.3030   78.8380 N.2   295  ZNH295      0.0000
      7  C1A       11.4890   17.7120   78.0660 C.2   295  ZNH295      0.0000
      8  C2A       12.7500   17.5380   78.7480 C.2   295  ZNH295      0.0000
      9  C3A       12.4880   16.9710   79.9740 C.2   295  ZNH295      0.0000
     10  C4A       11.0530   16.8580   79.9950 C.2   295  ZNH295      0.0000
     11  CMA       13.4570   16.4480   81.0510 C.3   295  ZNH295      0.0000
     12  CAA       14.1180   17.9220   78.1980 C.3   295  ZNH295      0.0000
     13  CBA       14.5550   19.3450   78.4570 C.3   295  ZNH295      0.0000
     14  CGA       15.8500   19.6960   77.7760 C.2   295  ZNH295      0.0000
     15  O1A       16.8590   19.0110   78.0310 O.co2 295  ZNH295      0.0000
     16  O2A       15.8560   20.6760   77.0050 O.co2 295  ZNH295      0.0000
     17  NB         8.1700   16.3850   80.1560 N.ar  295  ZNH295      0.0000
     18  C1B        9.0820   16.0140   81.1050 C.ar  295  ZNH295      0.0000
     19  C2B        8.5290   15.2710   82.2260 C.ar  295  ZNH295      0.0000
     20  C3B        7.1680   15.2070   81.9620 C.ar  295  ZNH295      0.0000
     21  C4B        6.9880   15.9350   80.6870 C.ar  295  ZNH295      0.0000
     22  CMB        9.3710   14.7680   83.4190 C.3   295  ZNH295      0.0000
     23  CAB        6.1520   14.6260   82.7330 C.3   295  ZNH295      0.0000
     24  CBB        6.0690   13.4160   83.4060 C.3   295  ZNH295      0.0000
     25  NC         6.5640   16.9940   77.9310 N.2   295  ZNH295      0.0000
     26  C1C        5.5610   16.6480   78.7730 C.2   295  ZNH295      0.0000
     27  C2C        4.2680   16.9310   78.2140 C.2   295  ZNH295      0.0000
     28  C3C        4.5050   17.5030   76.9690 C.2   295  ZNH295      0.0000
     29  C4C        5.9560   17.4860   76.8350 C.2   295  ZNH295      0.0000
     30  CMC        2.9670   16.7310   78.9380 C.3   295  ZNH295      0.0000
     31  CAC        3.7130   18.2680   76.0480 C.2   295  ZNH295      0.0000
     32  CBC        2.4110   18.2070   75.6250 C.2   295  ZNH295      0.0000
     33  ND         8.9110   17.8890   76.5860 N.ar  295  ZNH295      0.0000
     34  C1D        8.0370   18.1220   75.5850 C.ar  295  ZNH295      0.0000
     35  C2D        8.7230   18.4780   74.4090 C.ar  295  ZNH295      0.0000
     36  C3D       10.0510   18.5390   74.6180 C.ar  295  ZNH295      0.0000
     37  C4D       10.1430   18.1670   76.0300 C.ar  295  ZNH295      0.0000
     38  CMD        8.1170   18.5720   73.0820 C.3   295  ZNH295      0.0000
     39  CAD       11.1790   18.8090   73.6060 C.3   295  ZNH295      0.0000
     40  CBD       11.8990   20.1390   73.6870 C.3   295  ZNH295      0.0000
     41  CGD       12.9050   20.3300   72.5760 C.2   295  ZNH295      0.0000
     42  O1D       13.1420   21.4950   72.2050 O.co2 295  ZNH295      0.0000
     43  O2D       13.4620   19.3300   72.0750 O.co2 295  ZNH295      0.0000
@<TRIPOS>BOND
     1    43    41   ar
     2    42    41   ar
     3    41    40    1
     4    38    35    1
     5    39    40    1
     6    39    36    1
     7    35    36   ar
     8    35    34   ar
     9    36    37   ar
    10    34     5    2
    11    34    33   ar
    12    32    31    2
    13     5    29    1
    14    37    33   ar
    15    37     2    2
    16    31    28    1
    17    33     1    1
    18     2     7    1
    19    29    28    1
    20    29    25    2
    21    28    27    2
    22    16    14   ar
    23    14    15   ar
    24    14    13    1
    25    25     1    1
    26    25    26    1
    27     7     8    1
    28     7     6    2
    29     1     6    1
    30     1    17    1
    31    12    13    1
    32    12     8    1
    33    27    26    1
    34    27    30    1
    35     8     9    2
    36    26     4    2
    37     6    10    1
    38     9    10    1
    39     9    11    1
    40    10     3    2
    41     4    21    1
    42    17    21   ar
    43    17    18   ar
    44    21    20   ar
    45     3    18    1
    46    18    19   ar
    47    20    19   ar
    48    20    23    1
    49    19    22    1
    50    23    24    1
