@<TRIPOS>MOLECULE
2b12_HEM_B_1.pdb
 43 50 0 0 0
SMALL
GASTEIGER

@<TRIPOS>ATOM
      1  CHA        8.8270   -1.8210   55.4960 C.2   109  HEM109      0.0000
      2  CHB       13.2530   -2.8060   53.7460 C.2   109  HEM109      0.0000
      3  CHC       14.6150   -4.5400   58.0810 C.2   109  HEM109      0.0000
      4  CHD        9.9420   -4.4420   59.4970 C.2   109  HEM109      0.0000
      5  C1A        9.9630   -1.8580   54.6030 C.ar  109  HEM109      0.0000
      6  C2A       10.0180   -1.4330   53.2820 C.ar  109  HEM109      0.0000
      7  C3A       11.2490   -1.7250   52.7990 C.ar  109  HEM109      0.0000
      8  C4A       11.9440   -2.3620   53.8210 C.ar  109  HEM109      0.0000
      9  CMA       11.8870   -1.2870   51.4900 C.3   109  HEM109      0.0000
     10  CAA        8.9220   -0.7260   52.5420 C.3   109  HEM109      0.0000
     11  CBA        7.9140   -1.5950   51.8220 C.3   109  HEM109      0.0000
     12  CGA        7.2310   -0.8500   50.7050 C.2   109  HEM109      0.0000
     13  O1A        6.0360   -1.1040   50.4520 O.co2 109  HEM109      0.0000
     14  O2A        7.8930   -0.0050   50.0710 O.co2 109  HEM109      0.0000
     15  C1B       14.0650   -3.3510   54.7470 C.2   109  HEM109      0.0000
     16  C2B       15.3920   -3.8630   54.5630 C.2   109  HEM109      0.0000
     17  C3B       15.7990   -4.3100   55.7880 C.2   109  HEM109      0.0000
     18  C4B       14.7140   -4.0780   56.7330 C.2   109  HEM109      0.0000
     19  CMB       16.1180   -4.0310   53.2030 C.3   109  HEM109      0.0000
     20  CAB       16.9680   -5.0410   56.0410 C.3   109  HEM109      0.0000
     21  CBB       18.1640   -4.4730   56.4580 C.3   109  HEM109      0.0000
     22  C1C       13.4850   -4.5900   58.9260 C.ar  109  HEM109      0.0000
     23  C2C       13.4380   -5.2730   60.1770 C.ar  109  HEM109      0.0000
     24  C3C       12.1070   -5.3110   60.5610 C.ar  109  HEM109      0.0000
     25  C4C       11.3390   -4.6340   59.5180 C.ar  109  HEM109      0.0000
     26  CMC       14.6270   -5.9390   60.8490 C.3   109  HEM109      0.0000
     27  CAC       11.5830   -6.0030   61.6720 C.3   109  HEM109      0.0000
     28  CBC       11.2780   -5.4270   62.9100 C.3   109  HEM109      0.0000
     29  C1D        9.1470   -3.7440   58.5780 C.2   109  HEM109      0.0000
     30  C2D        7.7970   -3.3650   58.6680 C.2   109  HEM109      0.0000
     31  C3D        7.4790   -2.5190   57.6030 C.2   109  HEM109      0.0000
     32  C4D        8.6570   -2.3890   56.8230 C.2   109  HEM109      0.0000
     33  CMD        6.9820   -3.7040   59.8690 C.3   109  HEM109      0.0000
     34  CAD        6.1600   -1.8110   57.3250 C.3   109  HEM109      0.0000
     35  CBD        6.3070   -0.3370   57.6710 C.3   109  HEM109      0.0000
     36  CGD        5.0040    0.4330   57.7340 C.2   109  HEM109      0.0000
     37  O1D        3.9210   -0.1110   57.4420 O.co2 109  HEM109      0.0000
     38  O2D        5.0780    1.6210   58.0960 O.co2 109  HEM109      0.0000
     39  NA        11.1620   -2.4330   54.9230 N.ar  109  HEM109      0.0000
     40  NB        13.6570   -3.4960   56.0650 N.2   109  HEM109      0.0000
     41  NC        12.2050   -4.1860   58.5450 N.ar  109  HEM109      0.0000
     42  ND         9.6690   -3.1240   57.4530 N.2   109  HEM109      0.0000
     43 FE         11.6370   -3.3850   56.7060 Fe    109  HEM109      0.0000
@<TRIPOS>BOND
     1    14    12   ar
     2    13    12   ar
     3    12    11    1
     4     9     7    1
     5    11    10    1
     6    10     6    1
     7     7     6   ar
     8     7     8   ar
     9    19    16    1
    10     6     5   ar
    11     2     8    2
    12     2    15    1
    13     8    39   ar
    14    16    15    1
    15    16    17    2
    16     5    39   ar
    17     5     1    2
    18    15    40    2
    19    39    43    1
    20     1    32    1
    21    17    20    1
    22    17    18    1
    23    20    21    1
    24    40    43    1
    25    40    18    1
    26    43    42    1
    27    43    41    1
    28    18     3    2
    29    32    42    2
    30    32    31    1
    31    34    31    1
    32    34    35    1
    33    37    36   ar
    34    42    29    1
    35    31    30    2
    36    35    36    1
    37    36    38   ar
    38     3    22    1
    39    41    22   ar
    40    41    25   ar
    41    29    30    1
    42    29     4    2
    43    30    33    1
    44    22    23   ar
    45     4    25    1
    46    25    24   ar
    47    23    24   ar
    48    23    26    1
    49    24    27    1
    50    27    28    1
