@<TRIPOS>MOLECULE
2b14_DNF_A_1.pdb
 13 13 0 0 0
SMALL
GASTEIGER

@<TRIPOS>ATOM
      1  C1        21.3710   42.0650   42.4720 C.ar  128  DNF128      0.2181
      2  O1        21.3570   42.2180   43.8130 O.3   128  DNF128     -0.2848
      3  C2        21.4620   43.1690   41.6110 C.ar  128  DNF128      0.1832
      4  N2        21.5420   44.5430   42.0570 N.pl3 128  DNF128      0.0609
      5  O21       22.1980   44.8460   43.0140 O.2   128  DNF128     -0.1260
      6  O22       20.9630   45.3990   41.4090 O.2   128  DNF128     -0.1260
      7  C3        21.4740   42.9760   40.2280 C.ar  128  DNF128      0.0514
      8  C4        21.4210   41.6810   39.7090 C.ar  128  DNF128      0.1447
      9  N4        21.4210   41.5120   38.2710 N.pl3 128  DNF128      0.0577
     10  O41       22.1700   42.1710   37.5730 O.2   128  DNF128     -0.1261
     11  O42       20.6390   40.7160   37.7800 O.2   128  DNF128     -0.1261
     12  C5        21.3340   40.5730   40.5600 C.ar  128  DNF128      0.0275
     13  C6        21.3070   40.7680   41.9460 C.ar  128  DNF128      0.0455
@<TRIPOS>BOND
     1    10     9    2
     2    11     9    2
     3     9     8    1
     4     8     7   ar
     5     8    12   ar
     6     7     3   ar
     7    12    13   ar
     8     6     4    2
     9     3     4    1
    10     3     1   ar
    11    13     1   ar
    12     4     5    2
    13     1     2    1
