@<TRIPOS>MOLECULE
2b15_DNF_A_1.pdb
 13 13 0 0 0
SMALL
GASTEIGER

@<TRIPOS>ATOM
      1  C1        21.2730   42.8430   42.2000 C.ar  130  DNF130      0.2181
      2  O1        21.2700   42.9090   43.5490 O.3   130  DNF130     -0.2848
      3  C2        21.5150   43.9810   41.4190 C.ar  130  DNF130      0.1832
      4  N2        21.7850   45.2800   42.0000 N.pl3 130  DNF130      0.0609
      5  O21       22.1680   45.3530   43.1540 O.2   130  DNF130     -0.1260
      6  O22       21.6450   46.2660   41.3300 O.2   130  DNF130     -0.1260
      7  C3        21.5110   43.8940   40.0240 C.ar  130  DNF130      0.0514
      8  C4        21.2620   42.6670   39.4010 C.ar  130  DNF130      0.1447
      9  N4        21.2600   42.6140   37.9520 N.pl3 130  DNF130      0.0577
     10  O41       21.5860   43.6100   37.3240 O.2   130  DNF130     -0.1261
     11  O42       20.9380   41.5880   37.3740 O.2   130  DNF130     -0.1261
     12  C5        21.0150   41.5260   40.1740 C.ar  130  DNF130      0.0275
     13  C6        21.0220   41.6170   41.5720 C.ar  130  DNF130      0.0455
@<TRIPOS>BOND
     1    10     9    2
     2    11     9    2
     3     9     8    1
     4     8     7   ar
     5     8    12   ar
     6     7     3   ar
     7    12    13   ar
     8     6     4    2
     9     3     4    1
    10     3     1   ar
    11    13     1   ar
    12     4     5    2
    13     1     2    1
