@<TRIPOS>MOLECULE
2b16_DNF_A_1.pdb
 13 13 0 0 0
SMALL
GASTEIGER

@<TRIPOS>ATOM
      1  C1        21.1850   43.0340   10.2210 C.ar  128  DNF128      0.2181
      2  O1        21.1580   42.9690   11.5710 O.3   128  DNF128     -0.2848
      3  C2        20.9690   41.8720    9.4700 C.ar  128  DNF128      0.1832
      4  N2        20.7280   40.5910   10.1020 N.pl3 128  DNF128      0.0609
      5  O21       20.4270   40.5120   11.2810 O.2   128  DNF128     -0.1260
      6  O22       20.8280   39.5930    9.4450 O.2   128  DNF128     -0.1260
      7  C3        20.9910   41.9170    8.0720 C.ar  128  DNF128      0.0514
      8  C4        21.2290   43.1290    7.4180 C.ar  128  DNF128      0.1447
      9  N4        21.2390   43.1430    5.9700 N.pl3 128  DNF128      0.0577
     10  O41       20.5750   42.3210    5.3590 O.2   128  DNF128     -0.1261
     11  O42       21.8980   43.9810    5.3730 O.2   128  DNF128     -0.1261
     12  C5        21.4390   44.2970    8.1610 C.ar  128  DNF128      0.0275
     13  C6        21.4190   44.2470    9.5610 C.ar  128  DNF128      0.0455
@<TRIPOS>BOND
     1    10     9    2
     2    11     9    2
     3     9     8    1
     4     8     7   ar
     5     8    12   ar
     6     7     3   ar
     7    12    13   ar
     8     6     4    2
     9     3     4    1
    10     3     1   ar
    11    13     1   ar
    12     4     5    2
    13     1     2    1
