@<TRIPOS>MOLECULE
2b17_DIF_A_1.pdb
 19 20 0 0 0
SMALL
GASTEIGER

@<TRIPOS>ATOM
      1  C1        46.0450   30.9760    8.1150 C.ar  701  DIF701      0.0128
      2  C2        47.2610   31.5090    7.6630 C.ar  701  DIF701      0.0737
      3 CL2        48.4390   31.4850    8.9130 Cl    701  DIF701     -0.0809
      4  C3        47.6170   32.0470    6.2880 C.ar  701  DIF701      0.0915
      5  C4        46.4100   31.9200    5.4760 C.ar  701  DIF701      0.0737
      6 CL4        46.7450   32.5270    3.8490 Cl    701  DIF701     -0.0809
      7  C5        45.2040   31.3760    5.9730 C.ar  701  DIF701      0.0128
      8  C6        44.9990   30.9120    7.2720 C.ar  701  DIF701      0.0018
      9  N1        48.7070   32.6310    5.5770 N.pl3 701  DIF701     -0.2111
     10  C7        50.7180   34.1630    5.1120 C.ar  701  DIF701      0.0043
     11  C8        49.6120   33.6010    5.9490 C.ar  701  DIF701      0.0671
     12  C9        49.5030   34.1340    7.2060 C.ar  701  DIF701      0.0162
     13  C10       50.4010   35.1210    7.6220 C.ar  701  DIF701      0.0013
     14  C11       51.4420   35.6340    6.8260 C.ar  701  DIF701     -0.0002
     15  C12       51.5960   35.1450    5.5640 C.ar  701  DIF701     -0.0024
     16  C13       50.9140   33.8470    3.7240 C.3   701  DIF701      0.1416
     17  C14       52.0730   33.7410    2.8890 C.2   701  DIF701      0.3693
     18  O1        52.7050   34.8160    2.7790 O.co2 701  DIF701     -0.2453
     19  O2        52.2530   32.5980    2.4000 O.co2 701  DIF701     -0.2453
@<TRIPOS>BOND
     1    19    17   ar
     2    18    17   ar
     3    17    16    1
     4    16    10    1
     5     6     5    1
     6    10    15   ar
     7    10    11   ar
     8     5     7   ar
     9     5     4   ar
    10    15    14   ar
    11     9    11    1
    12     9     4    1
    13    11    12   ar
    14     7     8   ar
    15     4     2   ar
    16    14    13   ar
    17    12    13   ar
    18     8     1   ar
    19     2     1   ar
    20     2     3    1
