@<TRIPOS>MOLECULE
2b1n_III_B_1.pdb
 32 31 0 0 0
SMALL
GASTEIGER

@<TRIPOS>ATOM
      1  N          0.0540   18.9930   45.8970 N.3     1  LYS1       -0.1231
      2  CA         0.4820   18.4930   44.5600 C.3     1  LYS1        0.1693
      3  C          1.6990   19.2500   44.0380 C.2     1  LYS1        0.2592
      4  O          2.6650   18.6320   43.5980 O.2     1  LYS1       -0.2718
      5  CB        -0.6680   18.6000   43.5520 C.3     1  LYS1        0.0285
      6  CG        -0.2780   18.2230   42.1400 C.3     1  LYS1        0.0035
      7  CD        -1.4170   17.5380   41.4110 C.3     1  LYS1        0.0206
      8  CE        -0.9560   17.0630   40.0410 C.3     1  LYS1        0.1093
      9  NZ         0.3020   16.2620   40.1460 N.3     1  LYS1       -0.1314
     10  N          1.6580   20.5800   44.0880 N.am    2  ALA2       -0.1966
     11  CA         2.7770   21.3990   43.6250 C.3     2  ALA2        0.1728
     12  C          3.9460   21.3640   44.6060 C.2     2  ALA2        0.2617
     13  O          3.7390   21.4260   45.8150 O.2     2  ALA2       -0.2715
     14  CB         2.3250   22.8340   43.4230 C.3     2  ALA2        0.0334
     15  N          5.1690   21.2700   44.0860 N.am    3  SER3       -0.1936
     16  CA         6.3600   21.2340   44.9380 C.3     3  SER3        0.2055
     17  C          6.5710   22.5470   45.6690 C.2     3  SER3        0.2643
     18  O          6.2460   23.6240   45.1550 O.2     3  SER3       -0.2714
     19  CB         7.6200   20.9270   44.1200 C.3     3  SER3        0.2130
     20  OG         7.6920   19.5640   43.7550 O.3     3  SER3       -0.2179
     21  N          7.1300   22.4440   46.8700 N.am    4  VAL4       -0.1963
     22  CA         7.4080   23.6040   47.7010 C.3     4  VAL4        0.1727
     23  C          8.8900   23.5900   48.0810 C.2     4  VAL4        0.2617
     24  O          9.5420   22.5400   48.0380 O.2     4  VAL4       -0.2715
     25  CB         6.5360   23.5900   48.9830 C.3     4  VAL4        0.0290
     26  CG1        5.0700   23.7380   48.6180 C.3     4  VAL4        0.0023
     27  CG2        6.7390   22.2920   49.7450 C.3     4  VAL4        0.0023
     28  N          9.4290   24.7550   48.4380 N.am    5  GLY5       -0.1917
     29  CA        10.8300   24.8120   48.8140 C.3     5  GLY5        0.2285
     30  C         11.1050   23.9300   50.0180 C.2     5  GLY5        0.3865
     31  O         10.1600   23.6790   50.7950 O.co2   5  GLY5       -0.2437
     32  OXT       12.2640   23.4950   50.1910 O.co2   5  GLY5       -0.2437
@<TRIPOS>BOND
     1     8     9    1
     2     8     7    1
     3     7     6    1
     4     6     5    1
     5    14    11    1
     6     5     2    1
     7     4     3    2
     8    11    10    1
     9    11    12    1
    10    20    19    1
    11     3    10   am
    12     3     2    1
    13    15    12   am
    14    15    16    1
    15    19    16    1
    16     2     1    1
    17    12    13    2
    18    16    17    1
    19    18    17    2
    20    17    21   am
    21    21    22    1
    22    22    23    1
    23    22    25    1
    24    24    23    2
    25    23    28   am
    26    28    29    1
    27    26    25    1
    28    29    30    1
    29    25    27    1
    30    30    32   ar
    31    30    31   ar
