@<TRIPOS>MOLECULE
2b1p_AIZ_A_1.pdb
 35 38 0 0 0
SMALL
GASTEIGER

@<TRIPOS>ATOM
      1  C1        45.7220    6.4840   32.0660 C.2   501  AIZ501      0.0899
      2  C2        45.6460    7.9320   32.2730 C.3   501  AIZ501      0.1058
      3  C3        46.8300    5.6890   31.4860 C.ar  501  AIZ501      0.0175
      4  N4        44.6280    5.9480   32.5600 N.2   501  AIZ501     -0.1520
      5  C5        44.3930    8.1450   32.8870 C.2   501  AIZ501      0.0912
      6  C6        46.4620    9.0510   31.9890 C.2   501  AIZ501     -0.0131
      7  C7        46.9660    4.3850   31.9290 C.ar  501  AIZ501      0.0179
      8  C8        47.7210    6.2260   30.5690 C.ar  501  AIZ501      0.0079
      9  N9        43.7890    6.9330   33.0530 N.2   501  AIZ501     -0.1519
     10  C10       44.0000    9.4390   33.2040 C.2   501  AIZ501      0.0337
     11  C11       46.0470   10.3240   32.3210 C.2   501  AIZ501      0.0127
     12  C12       47.9790    3.5700   31.4590 C.ar  501  AIZ501      0.0736
     13  C13       48.7570    5.4230   30.0860 C.ar  501  AIZ501      0.0811
     14  C14       44.7990   10.5270   32.9300 C.2   501  AIZ501      0.0715
     15  C15       48.8740    4.0930   30.5230 C.ar  501  AIZ501      0.0232
     16  N16       47.9960    2.2470   31.9700 N.am  501  AIZ501     -0.1792
     17  C17       49.6970    6.0200   29.1120 C.2   501  AIZ501      0.3878
     18  N18       44.3980   11.8100   33.2990 N.pl3 501  AIZ501     -0.2116
     19  C19       49.0820    1.4400   32.1310 C.2   501  AIZ501      0.2456
     20  O20       49.4940    7.1480   28.7070 O.co2 501  AIZ501     -0.2406
     21  C21       43.6260   12.0370   34.4410 C.ar  501  AIZ501      0.0810
     22  C22       48.8880    0.0440   32.7070 C.3   501  AIZ501      0.0886
     23  O23       50.1890    1.8470   31.8120 O.2   501  AIZ501     -0.2730
     24  C24       42.7140   13.0760   34.3970 C.ar  501  AIZ501      0.0729
     25  C25       43.7280   11.2290   35.5920 C.ar  501  AIZ501      0.0174
     26  C26       49.9380   -0.9740   32.2210 C.3   501  AIZ501      0.0270
     27  C27       41.8940   13.3420   35.4870 C.ar  501  AIZ501      0.0127
     28 CL28       42.6150   14.0580   32.9770 Cl    501  AIZ501     -0.0809
     29  C29       42.9070   11.4940   36.6730 C.ar  501  AIZ501      0.0014
     30  C30       50.0290   -2.1980   33.1690 C.3   501  AIZ501      0.0727
     31  C31       41.9760   12.5380   36.6210 C.ar  501  AIZ501      0.0010
     32  N32       51.2860   -2.9830   33.0080 N.3   501  AIZ501     -0.2703
     33  C33       51.7120   -3.4410   34.3450 C.3   501  AIZ501      0.0897
     34  C34       50.9810   -4.2090   32.2370 C.3   501  AIZ501      0.0897
     35  O35       50.7790    5.3300   28.6630 O.co2 501  AIZ501     -0.2406
@<TRIPOS>BOND
     1    35    17   ar
     2    20    17   ar
     3    17    13    1
     4    13    15   ar
     5    13     8   ar
     6    15    12   ar
     7     8     3   ar
     8    12     7   ar
     9    12    16    1
    10     3     7   ar
    11     3     1    1
    12    23    19    2
    13    16    19   am
    14     6     2    1
    15     6    11    2
    16     1     2    1
    17     1     4    2
    18    19    22    1
    19    26    22    1
    20    26    30    1
    21    34    32    1
    22     2     5    1
    23    11    14    1
    24     4     9    1
    25     5     9    2
    26     5    10    1
    27    14    10    2
    28    14    18    1
    29    28    24    1
    30    32    30    1
    31    32    33    1
    32    18    21    1
    33    24    21   ar
    34    24    27   ar
    35    21    25   ar
    36    27    31   ar
    37    25    29   ar
    38    31    29   ar
