@<TRIPOS>MOLECULE
2b1q_TRE_A_1.pdb
 23 24 0 0 0
SMALL
GASTEIGER

@<TRIPOS>ATOM
      1  C1        45.7210    1.4390   95.4410 C.3   246  TRE246      0.2713
      2  C2        44.8050    1.7230   94.2200 C.3   246  TRE246      0.2406
      3  C3        45.1410    0.6560   93.1350 C.3   246  TRE246      0.2198
      4  C4        46.6210    0.8970   92.7430 C.3   246  TRE246      0.2144
      5  C5        47.5470    0.6710   93.9890 C.3   246  TRE246      0.1835
      6  C6        49.0150    0.9020   93.7600 C.3   246  TRE246      0.2142
      7  O1        45.3590    0.1600   95.8730 O.3   246  TRE246     -0.3016
      8  O2        43.4830    1.5880   94.6420 O.3   246  TRE246     -0.2149
      9  O3        44.3320    0.8730   92.0230 O.3   246  TRE246     -0.2174
     10  O4        47.0540   -0.0010   91.7860 O.3   246  TRE246     -0.2176
     11  O5        47.1670    1.5390   95.0760 O.3   246  TRE246     -0.3256
     12  O6        49.1670    2.1530   93.0900 O.3   246  TRE246     -0.2176
     13  C1P       45.9820   -0.4870   96.9840 C.3   246  TRE246      0.2713
     14  C2P       45.9320   -1.8380   97.7020 C.3   246  TRE246      0.2406
     15  C3P       44.4770   -1.9430   98.3430 C.3   246  TRE246      0.2198
     16  C4P       44.4250   -0.8410   99.4200 C.3   246  TRE246      0.2144
     17  C5P       44.5890    0.5730   98.7230 C.3   246  TRE246      0.1835
     18  C6P       44.5850    1.6960   99.7440 C.3   246  TRE246      0.2142
     19  O2P       46.0470   -2.7960   96.7240 O.3   246  TRE246     -0.2149
     20  O3P       44.3390   -3.1600   98.9980 O.3   246  TRE246     -0.2174
     21  O4P       43.1740   -0.8420  100.0820 O.3   246  TRE246     -0.2176
     22  O5P       45.8560    0.5680   98.0210 O.3   246  TRE246     -0.3256
     23  O6P       45.7530    1.5770  100.5310 O.3   246  TRE246     -0.2176
@<TRIPOS>BOND
     1    10     4    1
     2     9     3    1
     3     4     3    1
     4     4     5    1
     5    12     6    1
     6     3     2    1
     7     6     5    1
     8     5    11    1
     9     2     8    1
    10     2     1    1
    11    11     1    1
    12     1     7    1
    13     7    13    1
    14    19    14    1
    15    13    14    1
    16    13    22    1
    17    14    15    1
    18    22    17    1
    19    15    20    1
    20    15    16    1
    21    17    16    1
    22    17    18    1
    23    16    21    1
    24    18    23    1
