@<TRIPOS>MOLECULE
2b1r_CBI_A_1.pdb
 23 24 0 0 0
SMALL
GASTEIGER

@<TRIPOS>ATOM
      1  C1        45.7290    1.5490   95.4550 C.3   245  CBI245      0.2695
      2  C2        44.8060    1.8090   94.2280 C.3   245  CBI245      0.2406
      3  C3        45.1740    0.7740   93.1490 C.3   245  CBI245      0.2198
      4  C4        46.6390    0.9740   92.7770 C.3   245  CBI245      0.2144
      5  C5        47.5290    0.7800   94.0210 C.3   245  CBI245      0.1835
      6  C6        49.0070    1.0060   93.7360 C.3   245  CBI245      0.2142
      7  O2        43.4360    1.6480   94.6050 O.3   245  CBI245     -0.2149
      8  O3        44.3470    0.9780   92.0030 O.3   245  CBI245     -0.2174
      9  O4        47.0230    0.0310   91.7920 O.3   245  CBI245     -0.2176
     10  O5        47.1380    1.6990   95.0830 O.3   245  CBI245     -0.3256
     11  O6        49.2380    2.2590   93.0900 O.3   245  CBI245     -0.2176
     12  C1'       44.5260    0.6180  100.3880 C.3   245  CBI245      0.3023
     13  C2'       43.3780    1.0620   99.4300 C.3   245  CBI245      0.2433
     14  C3'       43.7270    0.8800   97.9360 C.3   245  CBI245      0.2168
     15  C4'       45.0850    1.5050   97.5720 C.3   245  CBI245      0.1804
     16  C5'       46.1610    0.8650   98.5160 C.3   245  CBI245      0.1804
     17  C6'       47.5980    1.3360   98.3330 C.3   245  CBI245      0.2141
     18  O1'       44.5830   -0.7450  100.3340 O.3   245  CBI245     -0.1869
     19  O2'       42.2120    0.2960   99.7070 O.3   245  CBI245     -0.2148
     20  O3'       42.7170    1.4600   97.1180 O.3   245  CBI245     -0.2175
     21  O4'       45.4480    2.4450   96.4980 O.3   245  CBI245     -0.3257
     22  O5'       45.8190    1.0960   99.9270 O.3   245  CBI245     -0.3237
     23  O6'       47.7470    2.7370   98.5750 O.3   245  CBI245     -0.2176
@<TRIPOS>BOND
     1     9     4    1
     2     8     3    1
     3     4     3    1
     4     4     5    1
     5    11     6    1
     6     3     2    1
     7     6     5    1
     8     5    10    1
     9     2     7    1
    10     2     1    1
    11    10     1    1
    12     1    21    1
    13    21    15    1
    14    20    14    1
    15    15    14    1
    16    15    16    1
    17    14    13    1
    18    17    16    1
    19    17    23    1
    20    16    22    1
    21    13    19    1
    22    13    12    1
    23    22    12    1
    24    18    12    1
