@<TRIPOS>MOLECULE
2b1v_458_A_1.pdb
 19 21 0 0 0
SMALL
GASTEIGER

@<TRIPOS>ATOM
      1  CAK        2.1150    4.0230   -4.2710 C.3   201  458201      0.0121
      2  CAJ        3.5080    3.6610   -4.8110 C.3   201  458201      0.0496
      3  CAO        3.2480    2.6880   -5.9270 C.2   201  458201     -0.0458
      4  CAR        4.0960    1.4270   -6.1080 C.3   201  458201      0.0261
      5  CAQ        2.2020    3.0030   -6.7840 C.2   201  458201     -0.0344
      6  CAP        1.3760    4.1240   -6.6950 C.3   201  458201      0.0303
      7  CAL        1.4580    4.8860   -5.3520 C.3   201  458201      0.0624
      8  CAT        0.0490    5.3320   -4.9360 C.3   201  458201      0.1847
      9  OAU       -0.8400    4.2120   -5.0490 O.3   201  458201     -0.2203
     10  CAM        2.3300    6.1110   -5.5310 C.3   201  458201      0.1452
     11  OAH        3.4740    5.6640   -6.2770 O.3   201  458201     -0.3514
     12  CAI        4.2680    4.8790   -5.4150 C.3   201  458201      0.1410
     13  CAD        5.5890    4.4580   -6.1500 C.ar  201  458201      0.0050
     14  CAC        5.6220    4.2760   -7.5510 C.ar  201  458201      0.0013
     15  CAB        6.8360    3.9030   -8.1690 C.ar  201  458201      0.0418
     16  CAA        7.9890    3.7430   -7.3780 C.ar  201  458201      0.1957
     17  OAG        9.1530    3.3990   -7.9790 O.3   201  458201     -0.2866
     18  CAF        7.9650    3.9430   -5.9810 C.ar  201  458201      0.0418
     19  CAE        6.7490    4.3020   -5.3680 C.ar  201  458201      0.0013
@<TRIPOS>BOND
     1    15    14   ar
     2    15    16   ar
     3    17    16    1
     4    14    13   ar
     5    16    18   ar
     6     5     6    1
     7     5     3    2
     8     6     7    1
     9    11    10    1
    10    11    12    1
    11    13    12    1
    12    13    19   ar
    13     4     3    1
    14    18    19   ar
    15     3     2    1
    16    10     7    1
    17    12     2    1
    18     7     8    1
    19     7     1    1
    20     9     8    1
    21     2     1    1
