@<TRIPOS>MOLECULE
2b1z_17M_A_1.pdb
 21 24 0 0 0
SMALL
GASTEIGER

@<TRIPOS>ATOM
      1  CAR        2.0560    2.2620   -5.4180 C.3   201  17M201      0.0028
      2  CAB        1.9420    3.7380   -5.8200 C.3   201  17M201      0.0299
      3  CAP        2.1170    3.9360   -7.3300 C.3   201  17M201      0.0073
      4  CAJ        3.5500    3.5740   -7.8020 C.3   201  17M201      0.0261
      5  CAF        4.6750    3.9070   -6.7960 C.ar  201  17M201     -0.0261
      6  CAG        6.0170    3.7490   -7.1750 C.ar  201  17M201     -0.0041
      7  CAK        6.3010    3.2900   -8.4550 C.ar  201  17M201      0.0030
      8  CAN        7.6190    3.1200   -8.8720 C.ar  201  17M201      0.0420
      9  CAO        8.6670    3.4030   -8.0040 C.ar  201  17M201      0.1957
     10  OAT        9.9510    3.2350   -8.4210 O.3   201  17M201     -0.2866
     11  CAL        8.3900    3.8640   -6.7130 C.ar  201  17M201      0.0420
     12  CAH        7.0660    4.0380   -6.3040 C.ar  201  17M201      0.0029
     13  CAM        6.7790    4.4960   -5.0250 C.ar  201  17M201     -0.0002
     14  CAI        5.4530    4.6610   -4.6280 C.ar  201  17M201     -0.0046
     15  CAE        4.4140    4.3510   -5.5000 C.ar  201  17M201     -0.0264
     16  CAD        2.9430    4.5980   -5.0880 C.3   201  17M201      0.0244
     17  CAQ        2.5580    4.4350   -3.6200 C.3   201  17M201      0.0069
     18  CAC        1.0090    4.5140   -3.7260 C.3   201  17M201      0.0308
     19  CAA        0.6680    4.3840   -5.2360 C.3   201  17M201      0.1269
     20  CAS       -0.5630    3.5350   -5.4630 C.3   201  17M201      0.0329
     21  OAU        0.4330    5.6830   -5.7920 O.3   201  17M201     -0.2257
@<TRIPOS>BOND
     1     8     7   ar
     2     8     9   ar
     3     7     6   ar
     4    10     9    1
     5     9    11   ar
     6     4     3    1
     7     4     5    1
     8     3     2    1
     9     6     5   ar
    10     6    12   ar
    11     5    15   ar
    12    11    12   ar
    13    12    13   ar
    14     2     1    1
    15     2    19    1
    16     2    16    1
    17    21    19    1
    18    15    16    1
    19    15    14   ar
    20    20    19    1
    21    19    18    1
    22    16    17    1
    23    13    14   ar
    24    18    17    1
