@<TRIPOS>MOLECULE
2b21_ANP_A_1.pdb
 31 33 0 0 0
SMALL
GASTEIGER

@<TRIPOS>ATOM
      1  PG        27.2720   59.0500  -10.3760 P.3   401  ANP401      0.4884
      2  O1G       28.5570   59.6210  -10.1250 O.3   401  ANP401     -0.1240
      3  O2G       26.6640   58.5590   -9.0940 O.3   401  ANP401     -0.1240
      4  O3G       26.4000   60.0630  -10.9430 O.2   401  ANP401     -0.2331
      5  PB        27.9100   56.3550  -11.0510 P.3   401  ANP401      0.4669
      6  O1B       27.1710   55.8770   -9.8440 O.3   401  ANP401     -0.1253
      7  O2B       29.3450   56.3480  -10.7840 O.2   401  ANP401     -0.2351
      8  N3B       27.4270   57.8000  -11.4630 N.3   401  ANP401     -0.0163
      9  PA        26.2720   54.4680  -12.3350 P.3   401  ANP401      0.2220
     10  O1A       26.3780   53.3670  -11.2670 O.3   401  ANP401     -0.4370
     11  O2A       25.0690   55.2990  -12.0930 O.2   401  ANP401     -0.5170
     12  O3A       27.6140   55.3810  -12.2970 O.3   401  ANP401     -0.2360
     13  O5'       26.1690   53.7440  -13.8020 O.3   401  ANP401     -0.3111
     14  C5'       25.7790   54.4990  -15.0520 C.3   401  ANP401      0.1813
     15  C4'       25.9870   53.6910  -16.0850 C.3   401  ANP401      0.1821
     16  O4'       25.4380   52.3480  -15.7940 O.3   401  ANP401     -0.3135
     17  C3'       25.1510   54.1230  -17.3120 C.3   401  ANP401      0.2184
     18  O3'       25.4690   55.3440  -17.8570 O.3   401  ANP401     -0.2174
     19  C2'       24.9780   52.7990  -18.1150 C.3   401  ANP401      0.2570
     20  O2'       26.1600   52.6600  -19.0840 O.3   401  ANP401     -0.2130
     21  C1'       25.1230   51.7050  -17.0480 C.3   401  ANP401      0.3186
     22  N9        23.8950   51.1430  -16.9550 N.pl3 401  ANP401     -0.1439
     23  C8        22.9010   51.4260  -15.9980 C.3   401  ANP401      0.3377
     24  N7        21.8570   50.7080  -16.2390 N.2   401  ANP401     -0.2095
     25  C5        22.0930   49.9400  -17.3270 C.2   401  ANP401      0.2526
     26  C6        21.3440   49.0170  -18.0160 C.2   401  ANP401      0.4393
     27  N6        20.0800   48.7270  -17.6170 N.pl3 401  ANP401      0.2180
     28  N1        21.9040   48.3830  -19.1360 N.2   401  ANP401      0.0021
     29  C2        23.2290   48.6790  -19.5710 C.3   401  ANP401      0.5254
     30  N3        23.9940   49.5890  -18.9150 N.2   401  ANP401     -0.0055
     31  C4        23.3720   50.2010  -17.7830 C.2   401  ANP401      0.3518
@<TRIPOS>BOND
     1    29    28    1
     2    29    30    1
     3    28    26    2
     4    20    19    1
     5    30    31    2
     6    19    17    1
     7    19    21    1
     8    26    27    1
     9    26    25    1
    10    18    17    1
    11    31    25    1
    12    31    22    1
    13    25    24    2
    14    17    15    1
    15    21    22    1
    16    21    16    1
    17    22    23    1
    18    24    23    1
    19    15    16    1
    20    15    14    1
    21    14    13    1
    22    13     9    1
    23     9    12    1
    24     9    11    2
    25     9    10    1
    26    12     5    1
    27     8     5    1
    28     8     1    1
    29     5     7    2
    30     5     6    1
    31     4     1    2
    32     1     2    1
    33     1     3    1
