@<TRIPOS>MOLECULE
2b2k_EIP_A_1.pdb
 15 14 0 0 0
SMALL
GASTEIGER

@<TRIPOS>ATOM
      1  O1        10.6800    1.8180   12.3240 O.3   401  EIP401     -0.1143
      2  O2        11.0160    2.6220   10.1820 O.2   401  EIP401     -0.2221
      3  O3         8.8500    1.9260   10.7850 O.3   401  EIP401     -0.1143
      4  P4        10.1200    2.6400   11.1940 P.3   401  EIP401      0.5373
      5  O5         9.7700    4.0310   11.6930 O.3   401  EIP401     -0.2261
      6  O6        11.3190    5.8930   11.6840 O.2   401  EIP401     -0.5169
      7  O7        11.5150    4.2100   13.3380 O.3   401  EIP401     -0.4370
      8  P8        10.6220    5.0450   12.4570 P.3   401  EIP401      0.2230
      9  O9         9.6580    5.7440   13.4210 O.3   401  EIP401     -0.3138
     10  C10        8.7880    6.6960   12.7940 C.3   401  EIP401      0.1492
     11  C11        7.9500    7.5840   13.7070 C.3   401  EIP401      0.0351
     12  C12        8.4070    9.0800   13.7080 C.3   401  EIP401      0.0355
     13  C13        9.9350    9.0300   13.3730 C.3   401  EIP401      0.1821
     14  C14        8.4680    9.4860   15.2270 C.3   401  EIP401      0.0028
     15  O15       10.1180    9.1090   11.9670 O.3   401  EIP401     -0.2204
@<TRIPOS>BOND
     1     2     4    2
     2     3     4    1
     3     4     5    1
     4     4     1    1
     5     6     8    2
     6     5     8    1
     7    15    13    1
     8     8     7    1
     9     8     9    1
    10    10     9    1
    11    10    11    1
    12    13    12    1
    13    11    12    1
    14    12    14    1
