@<TRIPOS>MOLECULE
2b2o_HEM_A_1.pdb
 43 50 0 0 0
SMALL
GASTEIGER

@<TRIPOS>ATOM
      1 FE        -12.3890  -64.3810  -38.1770 Fe    1500  HEM1500     0.0000
      2  CHA      -10.2730  -61.9810  -39.4240 C.2   1500  HEM1500     0.0000
      3  CHB       -9.7330  -65.8320  -36.5460 C.2   1500  HEM1500     0.0000
      4  CHC      -14.5000  -66.6350  -36.6240 C.2   1500  HEM1500     0.0000
      5  CHD      -15.0930  -62.7290  -39.4220 C.2   1500  HEM1500     0.0000
      6  NA       -10.3980  -63.9740  -37.9970 N.2   1500  HEM1500     0.0000
      7  C1A       -9.7270  -62.9040  -38.5680 C.2   1500  HEM1500     0.0000
      8  C2A       -8.3540  -62.9350  -38.1330 C.2   1500  HEM1500     0.0000
      9  C3A       -8.2010  -64.0040  -37.3470 C.2   1500  HEM1500     0.0000
     10  C4A       -9.4820  -64.6780  -37.2480 C.2   1500  HEM1500     0.0000
     11  CMA       -6.9020  -64.4490  -36.6370 C.3   1500  HEM1500     0.0000
     12  CAA       -7.2850  -61.9000  -38.5550 C.3   1500  HEM1500     0.0000
     13  CBA       -7.2670  -60.5910  -37.7740 C.3   1500  HEM1500     0.0000
     14  CGA       -6.2620  -59.7050  -38.4840 C.2   1500  HEM1500     0.0000
     15  O1A       -5.0450  -60.0560  -38.5090 O.co2 1500  HEM1500     0.0000
     16  O2A       -6.6740  -58.6700  -39.0670 O.co2 1500  HEM1500     0.0000
     17  NB       -12.1570  -65.9290  -36.8240 N.ar  1500  HEM1500     0.0000
     18  C1B      -10.9620  -66.4240  -36.3640 C.ar  1500  HEM1500     0.0000
     19  C2B      -11.2070  -67.6520  -35.6640 C.ar  1500  HEM1500     0.0000
     20  C3B      -12.5360  -67.8860  -35.6760 C.ar  1500  HEM1500     0.0000
     21  C4B      -13.1520  -66.8040  -36.3990 C.ar  1500  HEM1500     0.0000
     22  CMB      -10.0740  -68.4790  -35.0180 C.3   1500  HEM1500     0.0000
     23  CAB      -13.3260  -69.0620  -35.0600 C.2   1500  HEM1500     0.0000
     24  CBB      -12.8100  -70.2870  -34.9670 C.2   1500  HEM1500     0.0000
     25  NC       -14.4210  -64.6460  -38.0530 N.2   1500  HEM1500     0.0000
     26  C1C      -15.0850  -65.5890  -37.3020 C.2   1500  HEM1500     0.0000
     27  C2C      -16.4970  -65.2890  -37.3520 C.2   1500  HEM1500     0.0000
     28  C3C      -16.6670  -64.2070  -38.1300 C.2   1500  HEM1500     0.0000
     29  C4C      -15.3530  -63.7840  -38.5820 C.2   1500  HEM1500     0.0000
     30  CMC      -17.5510  -66.1010  -36.5990 C.3   1500  HEM1500     0.0000
     31  CAC      -17.9780  -63.4760  -38.4960 C.2   1500  HEM1500     0.0000
     32  CBC      -19.0510  -64.1540  -38.9170 C.2   1500  HEM1500     0.0000
     33  ND       -12.6400  -62.5800  -39.2230 N.ar  1500  HEM1500     0.0000
     34  C1D      -13.8600  -62.2470  -39.8020 C.ar  1500  HEM1500     0.0000
     35  C2D      -13.6370  -61.2860  -40.8470 C.ar  1500  HEM1500     0.0000
     36  C3D      -12.1370  -61.0400  -40.8430 C.ar  1500  HEM1500     0.0000
     37  C4D      -11.5990  -61.8910  -39.8020 C.ar  1500  HEM1500     0.0000
     38  CMD      -14.6710  -60.6080  -41.7720 C.3   1500  HEM1500     0.0000
     39  CAD      -11.3870  -60.1090  -41.8020 C.3   1500  HEM1500     0.0000
     40  CBD      -11.0530  -58.7660  -41.1360 C.3   1500  HEM1500     0.0000
     41  CGD      -10.5250  -57.7560  -42.1160 C.2   1500  HEM1500     0.0000
     42  O1D       -9.8160  -56.8190  -41.6390 O.co2 1500  HEM1500     0.0000
     43  O2D      -10.8260  -57.8480  -43.3580 O.co2 1500  HEM1500     0.0000
@<TRIPOS>BOND
     1    43    41   ar
     2    41    42   ar
     3    41    40    1
     4    39    40    1
     5    39    36    1
     6    38    35    1
     7    35    36   ar
     8    35    34   ar
     9    36    37   ar
    10    37     2    2
    11    37    33   ar
    12    34     5    2
    13    34    33   ar
    14     2     7    1
    15     5    29    1
    16    33     1    1
    17    16    14   ar
    18    32    31    2
    19    29    28    1
    20    29    25    2
    21     7     8    1
    22     7     6    2
    23    12     8    1
    24    12    13    1
    25    15    14   ar
    26    31    28    1
    27    14    13    1
    28     1    25    1
    29     1     6    1
    30     1    17    1
    31     8     9    2
    32    28    27    2
    33    25    26    1
    34     6    10    1
    35    27    26    1
    36    27    30    1
    37     9    10    1
    38     9    11    1
    39    26     4    2
    40    10     3    2
    41    17    21   ar
    42    17    18   ar
    43     4    21    1
    44     3    18    1
    45    21    20   ar
    46    18    19   ar
    47    20    19   ar
    48    20    23    1
    49    19    22    1
    50    23    24    2
