@<TRIPOS>MOLECULE
2b2q_HEM_A_1.pdb
 43 50 0 0 0
SMALL
GASTEIGER

@<TRIPOS>ATOM
      1 FE        -12.4120  -63.7260  -38.3110 Fe    1500  HEM1500     0.0000
      2  CHA      -10.3340  -61.3550  -39.5670 C.2   1500  HEM1500     0.0000
      3  CHB       -9.7560  -65.1860  -36.7000 C.2   1500  HEM1500     0.0000
      4  CHC      -14.5080  -66.0190  -36.7310 C.2   1500  HEM1500     0.0000
      5  CHD      -15.1620  -62.0570  -39.4870 C.2   1500  HEM1500     0.0000
      6  NA       -10.3830  -63.3190  -38.1290 N.2   1500  HEM1500     0.0000
      7  C1A       -9.7620  -62.2420  -38.7070 C.2   1500  HEM1500     0.0000
      8  C2A       -8.3780  -62.2880  -38.2820 C.2   1500  HEM1500     0.0000
      9  C3A       -8.2040  -63.3820  -37.5070 C.2   1500  HEM1500     0.0000
     10  C4A       -9.4750  -64.0440  -37.4050 C.2   1500  HEM1500     0.0000
     11  CMA       -6.9270  -63.8540  -36.7860 C.3   1500  HEM1500     0.0000
     12  CAA       -7.3410  -61.2520  -38.7240 C.3   1500  HEM1500     0.0000
     13  CBA       -7.2920  -59.9600  -37.9110 C.3   1500  HEM1500     0.0000
     14  CGA       -6.2900  -59.0670  -38.6150 C.2   1500  HEM1500     0.0000
     15  O1A       -5.0740  -59.4540  -38.6110 O.co2 1500  HEM1500     0.0000
     16  O2A       -6.6990  -58.0160  -39.1690 O.co2 1500  HEM1500     0.0000
     17  NB       -12.1790  -65.2600  -36.9470 N.ar  1500  HEM1500     0.0000
     18  C1B      -10.9710  -65.7730  -36.5340 C.ar  1500  HEM1500     0.0000
     19  C2B      -11.1970  -67.0300  -35.8550 C.ar  1500  HEM1500     0.0000
     20  C3B      -12.5290  -67.2640  -35.8450 C.ar  1500  HEM1500     0.0000
     21  C4B      -13.1610  -66.1680  -36.5370 C.ar  1500  HEM1500     0.0000
     22  CMB      -10.0380  -67.8490  -35.2270 C.3   1500  HEM1500     0.0000
     23  CAB      -13.2990  -68.4570  -35.2460 C.2   1500  HEM1500     0.0000
     24  CBB      -12.7330  -69.6770  -35.1240 C.2   1500  HEM1500     0.0000
     25  NC       -14.4870  -64.0060  -38.1260 N.2   1500  HEM1500     0.0000
     26  C1C      -15.1200  -64.9650  -37.3740 C.2   1500  HEM1500     0.0000
     27  C2C      -16.5270  -64.6760  -37.4300 C.2   1500  HEM1500     0.0000
     28  C3C      -16.7040  -63.5810  -38.2110 C.2   1500  HEM1500     0.0000
     29  C4C      -15.4160  -63.1430  -38.6610 C.2   1500  HEM1500     0.0000
     30  CMC      -17.5870  -65.5040  -36.6820 C.3   1500  HEM1500     0.0000
     31  CAC      -17.9840  -62.8130  -38.5940 C.2   1500  HEM1500     0.0000
     32  CBC      -19.0710  -63.4210  -39.0390 C.2   1500  HEM1500     0.0000
     33  ND       -12.6950  -61.9420  -39.3380 N.ar  1500  HEM1500     0.0000
     34  C1D      -13.9320  -61.5840  -39.8940 C.ar  1500  HEM1500     0.0000
     35  C2D      -13.7110  -60.6230  -40.9290 C.ar  1500  HEM1500     0.0000
     36  C3D      -12.2110  -60.4190  -40.9600 C.ar  1500  HEM1500     0.0000
     37  C4D      -11.6600  -61.2730  -39.9340 C.ar  1500  HEM1500     0.0000
     38  CMD      -14.7180  -59.9260  -41.8590 C.3   1500  HEM1500     0.0000
     39  CAD      -11.4890  -59.4650  -41.9110 C.3   1500  HEM1500     0.0000
     40  CBD      -11.1160  -58.1570  -41.2100 C.3   1500  HEM1500     0.0000
     41  CGD      -10.5640  -57.1160  -42.1430 C.2   1500  HEM1500     0.0000
     42  O1D       -9.8430  -56.2070  -41.6540 O.co2 1500  HEM1500     0.0000
     43  O2D      -10.8620  -57.1620  -43.3730 O.co2 1500  HEM1500     0.0000
@<TRIPOS>BOND
     1    43    41   ar
     2    41    42   ar
     3    41    40    1
     4    39    40    1
     5    39    36    1
     6    38    35    1
     7    36    35   ar
     8    36    37   ar
     9    35    34   ar
    10    37     2    2
    11    37    33   ar
    12    34     5    2
    13    34    33   ar
    14     2     7    1
    15     5    29    1
    16    33     1    1
    17    16    14   ar
    18    32    31    2
    19    12     8    1
    20    12    13    1
    21     7     8    1
    22     7     6    2
    23    29    28    1
    24    29    25    2
    25    14    15   ar
    26    14    13    1
    27    31    28    1
    28     1     6    1
    29     1    25    1
    30     1    17    1
    31     8     9    2
    32    28    27    2
    33     6    10    1
    34    25    26    1
    35     9    10    1
    36     9    11    1
    37    27    26    1
    38    27    30    1
    39    10     3    2
    40    26     4    2
    41    17    21   ar
    42    17    18   ar
    43     4    21    1
    44     3    18    1
    45    21    20   ar
    46    18    19   ar
    47    19    20   ar
    48    19    22    1
    49    20    23    1
    50    23    24    2
