@<TRIPOS>MOLECULE
2b2r_HEM_A_1.pdb
 43 50 0 0 0
SMALL
GASTEIGER

@<TRIPOS>ATOM
      1 FE        -12.3660  -63.7310  -38.0540 Fe    1500  HEM1500     0.0000
      2  CHA      -10.2840  -61.4050  -39.4590 C.2   1500  HEM1500     0.0000
      3  CHB       -9.6660  -65.1470  -36.4920 C.2   1500  HEM1500     0.0000
      4  CHC      -14.4240  -66.0600  -36.5800 C.2   1500  HEM1500     0.0000
      5  CHD      -15.1020  -62.1090  -39.2830 C.2   1500  HEM1500     0.0000
      6  NA       -10.3270  -63.3450  -38.0000 N.2   1500  HEM1500     0.0000
      7  C1A       -9.6950  -62.2790  -38.5890 C.2   1500  HEM1500     0.0000
      8  C2A       -8.3130  -62.2800  -38.1550 C.2   1500  HEM1500     0.0000
      9  C3A       -8.1390  -63.3350  -37.3440 C.2   1500  HEM1500     0.0000
     10  C4A       -9.4080  -64.0170  -37.2310 C.2   1500  HEM1500     0.0000
     11  CMA       -6.8310  -63.7430  -36.6340 C.3   1500  HEM1500     0.0000
     12  CAA       -7.2350  -61.2720  -38.5800 C.3   1500  HEM1500     0.0000
     13  CBA       -7.2390  -59.9670  -37.7950 C.3   1500  HEM1500     0.0000
     14  CGA       -6.2880  -59.0390  -38.5030 C.2   1500  HEM1500     0.0000
     15  O1A       -5.0640  -59.3460  -38.5490 O.co2 1500  HEM1500     0.0000
     16  O2A       -6.7460  -57.9930  -39.0370 O.co2 1500  HEM1500     0.0000
     17  NB       -12.1060  -65.2680  -36.7740 N.ar  1500  HEM1500     0.0000
     18  C1B      -10.8890  -65.7340  -36.3090 C.ar  1500  HEM1500     0.0000
     19  C2B      -11.1110  -66.9690  -35.5940 C.ar  1500  HEM1500     0.0000
     20  C3B      -12.4280  -67.2320  -35.6140 C.ar  1500  HEM1500     0.0000
     21  C4B      -13.0750  -66.1710  -36.3480 C.ar  1500  HEM1500     0.0000
     22  CMB       -9.9720  -67.7810  -34.9260 C.3   1500  HEM1500     0.0000
     23  CAB      -13.1600  -68.4290  -34.9700 C.2   1500  HEM1500     0.0000
     24  CBB      -12.6450  -69.6560  -35.0170 C.2   1500  HEM1500     0.0000
     25  NC       -14.3890  -64.0510  -37.9590 N.2   1500  HEM1500     0.0000
     26  C1C      -15.0380  -65.0160  -37.2250 C.2   1500  HEM1500     0.0000
     27  C2C      -16.4610  -64.7460  -37.2860 C.2   1500  HEM1500     0.0000
     28  C3C      -16.6370  -63.6380  -38.0380 C.2   1500  HEM1500     0.0000
     29  C4C      -15.3360  -63.1940  -38.4770 C.2   1500  HEM1500     0.0000
     30  CMC      -17.5310  -65.5870  -36.5690 C.3   1500  HEM1500     0.0000
     31  CAC      -17.9370  -62.8940  -38.4150 C.2   1500  HEM1500     0.0000
     32  CBC      -19.0580  -63.5460  -38.7250 C.2   1500  HEM1500     0.0000
     33  ND       -12.6560  -61.9970  -39.1400 N.ar  1500  HEM1500     0.0000
     34  C1D      -13.8830  -61.6440  -39.6880 C.ar  1500  HEM1500     0.0000
     35  C2D      -13.6750  -60.6820  -40.7430 C.ar  1500  HEM1500     0.0000
     36  C3D      -12.1760  -60.4650  -40.7840 C.ar  1500  HEM1500     0.0000
     37  C4D      -11.6230  -61.3200  -39.7670 C.ar  1500  HEM1500     0.0000
     38  CMD      -14.7200  -59.9930  -41.6430 C.3   1500  HEM1500     0.0000
     39  CAD      -11.4270  -59.5410  -41.7460 C.3   1500  HEM1500     0.0000
     40  CBD      -11.1860  -58.1900  -41.0740 C.3   1500  HEM1500     0.0000
     41  CGD      -10.6380  -57.2030  -42.0570 C.2   1500  HEM1500     0.0000
     42  O1D       -9.9540  -56.2460  -41.6030 O.co2 1500  HEM1500     0.0000
     43  O2D      -10.9160  -57.3390  -43.2790 O.co2 1500  HEM1500     0.0000
@<TRIPOS>BOND
     1    43    41   ar
     2    41    42   ar
     3    41    40    1
     4    39    40    1
     5    39    36    1
     6    38    35    1
     7    36    35   ar
     8    36    37   ar
     9    35    34   ar
    10    37     2    2
    11    37    33   ar
    12    34     5    2
    13    34    33   ar
    14     2     7    1
    15     5    29    1
    16    33     1    1
    17    16    14   ar
    18    32    31    2
    19     7     8    1
    20     7     6    2
    21    12     8    1
    22    12    13    1
    23    15    14   ar
    24    14    13    1
    25    29    28    1
    26    29    25    2
    27    31    28    1
    28     8     9    2
    29     1     6    1
    30     1    25    1
    31     1    17    1
    32    28    27    2
    33     6    10    1
    34    25    26    1
    35     9    10    1
    36     9    11    1
    37    27    26    1
    38    27    30    1
    39    10     3    2
    40    26     4    2
    41    17    21   ar
    42    17    18   ar
    43     4    21    1
    44     3    18    1
    45    21    20   ar
    46    18    19   ar
    47    20    19   ar
    48    20    23    1
    49    19    22    1
    50    24    23    2
