@<TRIPOS>MOLECULE
2b2s_HEM_A_1.pdb
 43 50 0 0 0
SMALL
GASTEIGER

@<TRIPOS>ATOM
      1 FE        -12.4720  -63.7360  -38.1350 Fe    1500  HEM1500     0.0000
      2  CHA      -10.3580  -61.4130  -39.5660 C.2   1500  HEM1500     0.0000
      3  CHB       -9.7920  -65.2000  -36.6710 C.2   1500  HEM1500     0.0000
      4  CHC      -14.5640  -66.1310  -36.6970 C.2   1500  HEM1500     0.0000
      5  CHD      -15.1870  -62.1770  -39.4180 C.2   1500  HEM1500     0.0000
      6  NA       -10.4230  -63.3840  -38.1520 N.2   1500  HEM1500     0.0000
      7  C1A       -9.7730  -62.3100  -38.7110 C.2   1500  HEM1500     0.0000
      8  C2A       -8.3940  -62.3200  -38.2570 C.2   1500  HEM1500     0.0000
      9  C3A       -8.2380  -63.3880  -37.4660 C.2   1500  HEM1500     0.0000
     10  C4A       -9.5120  -64.0680  -37.3850 C.2   1500  HEM1500     0.0000
     11  CMA       -6.9370  -63.7980  -36.7470 C.3   1500  HEM1500     0.0000
     12  CAA       -7.3030  -61.3090  -38.6540 C.3   1500  HEM1500     0.0000
     13  CBA       -7.3180  -60.0020  -37.8710 C.3   1500  HEM1500     0.0000
     14  CGA       -6.3660  -59.0680  -38.5830 C.2   1500  HEM1500     0.0000
     15  O1A       -5.1370  -59.3410  -38.5490 O.co2 1500  HEM1500     0.0000
     16  O2A       -6.8150  -58.0640  -39.2050 O.co2 1500  HEM1500     0.0000
     17  NB       -12.2570  -65.3170  -36.9420 N.ar  1500  HEM1500     0.0000
     18  C1B      -11.0260  -65.7700  -36.4840 C.ar  1500  HEM1500     0.0000
     19  C2B      -11.2380  -66.9810  -35.7210 C.ar  1500  HEM1500     0.0000
     20  C3B      -12.5480  -67.2540  -35.7070 C.ar  1500  HEM1500     0.0000
     21  C4B      -13.2120  -66.2230  -36.4710 C.ar  1500  HEM1500     0.0000
     22  CMB      -10.0970  -67.7700  -35.0450 C.3   1500  HEM1500     0.0000
     23  CAB      -13.2300  -68.4570  -35.0080 C.2   1500  HEM1500     0.0000
     24  CBB      -12.7590  -69.6900  -35.1990 C.2   1500  HEM1500     0.0000
     25  NC       -14.5130  -64.1360  -38.1050 N.2   1500  HEM1500     0.0000
     26  C1C      -15.1640  -65.0800  -37.3450 C.2   1500  HEM1500     0.0000
     27  C2C      -16.5720  -64.7610  -37.3620 C.2   1500  HEM1500     0.0000
     28  C3C      -16.7420  -63.6510  -38.1130 C.2   1500  HEM1500     0.0000
     29  C4C      -15.4420  -63.2460  -38.5920 C.2   1500  HEM1500     0.0000
     30  CMC      -17.6240  -65.5860  -36.6140 C.3   1500  HEM1500     0.0000
     31  CAC      -18.0510  -62.9070  -38.4400 C.2   1500  HEM1500     0.0000
     32  CBC      -19.1010  -63.5630  -38.9460 C.2   1500  HEM1500     0.0000
     33  ND       -12.7270  -62.0560  -39.2660 N.ar  1500  HEM1500     0.0000
     34  C1D      -13.9650  -61.7020  -39.8080 C.ar  1500  HEM1500     0.0000
     35  C2D      -13.7640  -60.7260  -40.8490 C.ar  1500  HEM1500     0.0000
     36  C3D      -12.2600  -60.4860  -40.8880 C.ar  1500  HEM1500     0.0000
     37  C4D      -11.7000  -61.3430  -39.8740 C.ar  1500  HEM1500     0.0000
     38  CMD      -14.8150  -60.0440  -41.7430 C.3   1500  HEM1500     0.0000
     39  CAD      -11.5190  -59.5370  -41.8360 C.3   1500  HEM1500     0.0000
     40  CBD      -11.2490  -58.2000  -41.1470 C.3   1500  HEM1500     0.0000
     41  CGD      -10.6950  -57.1900  -42.1140 C.2   1500  HEM1500     0.0000
     42  O1D       -9.9560  -56.2770  -41.6630 O.co2 1500  HEM1500     0.0000
     43  O2D      -10.9830  -57.2700  -43.3330 O.co2 1500  HEM1500     0.0000
@<TRIPOS>BOND
     1    43    41   ar
     2    41    42   ar
     3    41    40    1
     4    39    40    1
     5    39    36    1
     6    38    35    1
     7    36    35   ar
     8    36    37   ar
     9    35    34   ar
    10    37     2    2
    11    37    33   ar
    12    34     5    2
    13    34    33   ar
    14     2     7    1
    15     5    29    1
    16    33     1    1
    17    16    14   ar
    18    32    31    2
    19     7     8    1
    20     7     6    2
    21    12     8    1
    22    12    13    1
    23    29    28    1
    24    29    25    2
    25    14    15   ar
    26    14    13    1
    27    31    28    1
    28     8     9    2
    29     6     1    1
    30     6    10    1
    31     1    25    1
    32     1    17    1
    33    28    27    2
    34    25    26    1
    35     9    10    1
    36     9    11    1
    37    10     3    2
    38    27    26    1
    39    27    30    1
    40    26     4    2
    41    17    18   ar
    42    17    21   ar
    43     4    21    1
    44     3    18    1
    45    18    19   ar
    46    21    20   ar
    47    19    20   ar
    48    19    22    1
    49    20    23    1
    50    24    23    2
