@<TRIPOS>MOLECULE
2b2t_III_D_1.pdb
 48 47 0 0 0
SMALL
GASTEIGER

@<TRIPOS>ATOM
      1  N        -36.9840   -3.2660   -9.1940 N.3     1  ALA1       -0.1231
      2  CA       -35.7530   -2.6280   -8.7450 C.3     1  ALA1        0.1694
      3  C        -35.0720   -3.4490   -7.6550 C.2     1  ALA1        0.2592
      4  O        -35.5860   -3.5710   -6.5430 O.2     1  ALA1       -0.2718
      5  CB       -36.0360   -1.2180   -8.2510 C.3     1  ALA1        0.0304
      6  N        -33.9120   -4.0110   -7.9820 N.am    2  ARG2       -0.1966
      7  CA       -33.1430   -4.7940   -7.0230 C.3     2  ARG2        0.1729
      8  C        -31.8490   -4.0830   -6.6410 C.2     2  ARG2        0.2617
      9  O        -31.3870   -3.1900   -7.3520 O.2     2  ARG2       -0.2715
     10  CB       -32.8330   -6.1810   -7.5900 C.3     2  ARG2        0.0348
     11  CG       -33.6520   -6.5480   -8.8160 C.3     2  ARG2        0.0492
     12  CD       -32.9910   -7.5760   -9.7200 C.3     2  ARG2        0.2205
     13  NE       -32.4830   -6.9770  -10.9500 N.pl3   2  ARG2       -0.0865
     14  CZ       -31.7800   -7.6330  -11.8630 C.cat   2  ARG2        0.5346
     15  NH1      -31.4980   -8.9170  -11.6900 N.pl3   2  ARG2        0.1354
     16  NH2      -31.3570   -7.0070  -12.9530 N.pl3   2  ARG2        0.1354
     17  N        -31.2690   -4.4840   -5.5150 N.am    3  THR3       -0.1938
     18  CA       -29.9500   -3.9630   -5.0910 C.3     3  THR3        0.2002
     19  CB       -29.9730   -2.7890   -4.0430 C.3     3  THR3        0.1551
     20  CG2      -30.6380   -1.5910   -4.6620 C.3     3  THR3        0.0350
     21  OG1      -30.5600   -3.1830   -2.8130 O.3     3  THR3       -0.2705
     22  P        -30.3570   -2.0940   -1.5440 P.3     3  THR3        0.5326
     23  O1P      -28.9640   -2.1880   -1.0220 O.3     3  THR3       -0.1145
     24  O2P      -30.6950   -0.6730   -2.1370 O.2     3  THR3       -0.2224
     25  O3P      -31.5000   -2.4420   -0.4450 O.3     3  THR3       -0.1145
     26  C        -29.0360   -5.0840   -4.6220 C.2     3  THR3        0.2641
     27  O        -29.4590   -6.2170   -4.6200 O.2     3  THR3       -0.2714
     28  N        -27.7940   -4.8380   -4.2580 N.am    4  LYS4       -0.1963
     29  CA       -27.0120   -5.9690   -3.8980 C.3     4  LYS4        0.1728
     30  CB       -25.5830   -5.5630   -3.8020 C.3     4  LYS4        0.0310
     31  CG       -25.0010   -5.1140   -5.2810 C.3     4  LYS4        0.0001
     32  CD       -24.5570   -6.2730   -6.3110 C.3     4  LYS4       -0.0222
     33  CE       -25.6480   -7.1680   -6.9460 C.3     4  LYS4       -0.0733
     34  NZ       -25.0630   -8.2540   -7.7580 N.4     4  LYS4        0.3857
     35  C        -27.6280   -6.8780   -2.8520 C.2     4  LYS4        0.2616
     36  O        -27.1590   -7.9700   -2.5180 O.2     4  LYS4       -0.2715
     37  CM1      -26.0450   -9.3730   -7.8900 C.3     4  LYS4       -0.0960
     38  CM2      -24.6610   -7.8770   -9.1450 C.3     4  LYS4       -0.0960
     39  CM3      -23.8240   -8.8440   -7.1390 C.3     4  LYS4       -0.0960
     40  N        -28.7410   -6.4000   -2.3050 N.am    5  GLN5       -0.1977
     41  CA       -29.6730   -7.2620   -1.5880 C.3     5  GLN5        0.1601
     42  C        -29.8970   -6.7670   -0.1630 C.2     5  GLN5        0.2287
     43  O        -30.1080   -7.5610    0.7540 O.2     5  GLN5       -0.2864
     44  CB       -29.1630   -8.7050   -1.5700 C.3     5  GLN5        0.0394
     45  CG       -30.1100   -9.6890   -0.9030 C.3     5  GLN5        0.0908
     46  CD       -30.4770  -10.8490   -1.8090 C.2     5  GLN5        0.2608
     47  OE1      -30.3110  -12.0100   -1.4360 O.2     5  GLN5       -0.2717
     48  NE2      -30.9760  -10.5380   -2.9990 N.am    5  GLN5       -0.0878
@<TRIPOS>BOND
     1    16    14    1
     2    14    15    1
     3    14    13    2
     4    13    12    1
     5    12    11    1
     6     1     2    1
     7    38    34    1
     8    11    10    1
     9     2     5    1
    10     2     3    1
    11     6     3   am
    12     6     7    1
    13    37    34    1
    14    34    39    1
    15    34    33    1
    16     3     4    2
    17    10     7    1
    18     9     8    2
    19     7     8    1
    20    33    32    1
    21     8    17   am
    22    32    31    1
    23    17    18    1
    24    31    30    1
    25    18    26    1
    26    18    19    1
    27    20    19    1
    28    26    27    2
    29    26    28   am
    30    28    29    1
    31    19    21    1
    32    29    30    1
    33    29    35    1
    34    48    46   am
    35    35    36    2
    36    35    40   am
    37    21    22    1
    38    40    41    1
    39    24    22    2
    40    46    47    2
    41    46    45    1
    42    41    44    1
    43    41    42    1
    44    44    45    1
    45    22    23    1
    46    22    25    1
    47    42    43    2
