@<TRIPOS>MOLECULE
2b2u_III_D_1.pdb
 46 45 0 0 0
SMALL
GASTEIGER

@<TRIPOS>ATOM
      1  N        -36.6050   -2.1450   -8.8450 N.3     1  ALA1       -0.1231
      2  CA       -35.9030   -2.4540   -7.6100 C.3     1  ALA1        0.1694
      3  C        -34.9200   -3.5740   -7.8360 C.2     1  ALA1        0.2592
      4  O        -34.7190   -3.9980   -8.9590 O.2     1  ALA1       -0.2718
      5  CB       -36.8850   -2.8200   -6.5110 C.3     1  ALA1        0.0304
      6  C1       -31.7840   -6.6440  -11.6540 C.3     2  DA22        0.2208
      7  C2       -30.3330   -8.1330  -12.9060 C.3     2  DA22        0.2208
      8  N        -34.3050   -4.0400   -6.7620 N.am    2  DA22       -0.1966
      9  CA       -33.1980   -4.9590   -6.8630 C.3     2  DA22        0.1729
     10  CB       -33.1870   -5.5500   -8.2440 C.3     2  DA22        0.0348
     11  CG       -33.0060   -7.0490   -8.2690 C.3     2  DA22        0.0492
     12  CD       -32.9300   -7.3600   -9.7430 C.3     2  DA22        0.2203
     13  NE       -32.3170   -8.6540   -9.9170 N.pl3   2  DA22       -0.0920
     14  CZ       -31.4990   -8.9270  -10.9130 C.cat   2  DA22        0.4635
     15  NH2      -30.9710  -10.1350  -11.0290 N.pl3   2  DA22        0.1283
     16  NH1      -31.2200   -7.9650  -11.7780 N.pl3   2  DA22       -0.2224
     17  C        -31.9160   -4.2310   -6.6540 C.2     2  DA22        0.2617
     18  OA1      -31.4600   -3.5560   -7.5920 O.2     2  DA22       -0.2715
     19  N        -31.3820   -4.3320   -5.4460 N.am    3  THR3       -0.1937
     20  CA       -29.9850   -4.0490   -5.2050 C.3     3  THR3        0.2028
     21  C        -29.2610   -5.2910   -4.7390 C.2     3  THR3        0.2642
     22  O        -29.7640   -6.3950   -4.8660 O.2     3  THR3       -0.2714
     23  CB       -29.8350   -2.9610   -4.1640 C.3     3  THR3        0.1808
     24  OG1      -30.0630   -3.5120   -2.8690 O.3     3  THR3       -0.2208
     25  CG2      -30.9110   -1.9380   -4.3080 C.3     3  THR3        0.0379
     26  N        -28.0660   -5.1050   -4.2070 N.am    4  LYS4       -0.1963
     27  CA       -27.2650   -6.2440   -3.7300 C.3     4  LYS4        0.1728
     28  CB       -25.8060   -6.0180   -4.0680 C.3     4  LYS4        0.0310
     29  CG       -25.6000   -5.9260   -5.5730 C.3     4  LYS4        0.0001
     30  CD       -24.5630   -6.9230   -6.0670 C.3     4  LYS4       -0.0222
     31  CE       -24.9530   -7.5050   -7.4160 C.3     4  LYS4       -0.0733
     32  NZ       -24.7690   -8.9510   -7.3800 N.4     4  LYS4        0.3857
     33  C        -27.4290   -6.3550   -2.2580 C.2     4  LYS4        0.2616
     34  O        -26.7110   -5.6830   -1.5000 O.2     4  LYS4       -0.2715
     35  CM1      -25.8160   -9.5630   -6.5760 C.3     4  LYS4       -0.0960
     36  CM2      -24.8220   -9.5170   -8.7140 C.3     4  LYS4       -0.0960
     37  CM3      -23.4720   -9.2550   -6.7890 C.3     4  LYS4       -0.0960
     38  N        -28.3940   -7.1910   -1.8570 N.am    5  GLN5       -0.1977
     39  CA       -29.4430   -6.7090   -0.9660 C.3     5  GLN5        0.1601
     40  C        -28.8540   -6.0780    0.2900 C.2     5  GLN5        0.2287
     41  O        -27.6370   -6.2770    0.5190 O.2     5  GLN5       -0.2864
     42  CB       -30.3900   -7.8500   -0.5880 C.3     5  GLN5        0.0394
     43  CG       -31.2240   -8.3740   -1.7450 C.3     5  GLN5        0.0908
     44  CD       -32.1060   -9.5400   -1.3480 C.2     5  GLN5        0.2608
     45  OE1      -32.0840   -9.9790   -0.1980 O.2     5  GLN5       -0.2717
     46  NE2      -32.8880  -10.0440   -2.2980 N.am    5  GLN5       -0.0878
@<TRIPOS>BOND
     1     7    16    1
     2    16     6    1
     3    16    14    1
     4    15    14    2
     5    14    13    1
     6    13    12    1
     7    12    11    1
     8     4     3    2
     9     1     2    1
    10    36    32    1
    11    11    10    1
    12    10     9    1
    13     3     2    1
    14     3     8   am
    15     2     5    1
    16    18    17    2
    17    31    32    1
    18    31    30    1
    19    32    37    1
    20    32    35    1
    21     9     8    1
    22     9    17    1
    23    17    19   am
    24    30    29    1
    25    29    28    1
    26    19    20    1
    27    20    21    1
    28    20    23    1
    29    22    21    2
    30    21    26   am
    31    25    23    1
    32    26    27    1
    33    23    24    1
    34    28    27    1
    35    27    33    1
    36    46    44   am
    37    33    38   am
    38    33    34    2
    39    38    39    1
    40    43    44    1
    41    43    42    1
    42    44    45    2
    43    39    42    1
    44    39    40    1
    45    40    41    2
