@<TRIPOS>MOLECULE
2b2v_III_D_1.pdb
 49 48 0 0 0
SMALL
GASTEIGER

@<TRIPOS>ATOM
      1  N        -36.0120   -1.8120   -8.4380 N.3     1  ALA1       -0.1231
      2  CA       -36.0570   -3.0380   -7.6010 C.3     1  ALA1        0.1694
      3  C        -34.7090   -3.6760   -7.7110 C.2     1  ALA1        0.2592
      4  O        -33.8850   -3.2020   -8.4600 O.2     1  ALA1       -0.2718
      5  CB       -37.1500   -3.9930   -8.0890 C.3     1  ALA1        0.0304
      6  N        -34.4820   -4.7480   -6.9700 N.am    2  ARG2       -0.1966
      7  CA       -33.2020   -5.4780   -7.0020 C.3     2  ARG2        0.1729
      8  C        -31.9850   -4.6000   -6.7000 C.2     2  ARG2        0.2617
      9  O        -31.5070   -3.8640   -7.5760 O.2     2  ARG2       -0.2715
     10  CB       -33.0130   -6.1860   -8.3490 C.3     2  ARG2        0.0348
     11  CG       -34.0420   -5.8010   -9.3920 C.3     2  ARG2        0.0492
     12  CD       -33.4540   -5.7490  -10.7710 C.3     2  ARG2        0.2205
     13  NE       -32.6960   -6.9590  -11.1100 N.pl3   2  ARG2       -0.0865
     14  CZ       -31.4480   -6.9750  -11.5900 C.cat   2  ARG2        0.5346
     15  NH1      -30.8680   -8.1310  -11.8700 N.pl3   2  ARG2        0.1354
     16  NH2      -30.7930   -5.8420  -11.7650 N.pl3   2  ARG2        0.1354
     17  N        -31.5180   -4.6400   -5.4410 N.am    3  THR3       -0.1937
     18  CA       -30.2160   -4.0650   -5.1220 C.3     3  THR3        0.2028
     19  C        -29.3710   -5.1960   -4.5650 C.2     3  THR3        0.2642
     20  O        -29.8050   -6.3440   -4.5280 O.2     3  THR3       -0.2714
     21  CB       -30.2940   -2.9690   -4.0610 C.3     3  THR3        0.1808
     22  OG1      -30.6260   -3.5570   -2.8050 O.3     3  THR3       -0.2208
     23  CG2      -31.3310   -1.9570   -4.4000 C.3     3  THR3        0.0379
     24  N        -28.1670   -4.8790   -4.1190 N.am    4  LYS4       -0.1963
     25  CA       -27.3550   -5.8600   -3.4310 C.3     4  LYS4        0.1728
     26  CB       -25.9200   -5.8180   -3.9510 C.3     4  LYS4        0.0311
     27  CG       -25.8870   -6.3590   -5.3770 C.3     4  LYS4        0.0038
     28  CD       -24.6020   -6.0470   -6.1520 C.3     4  LYS4        0.0189
     29  CE       -24.3610   -7.1280   -7.2120 C.3     4  LYS4        0.0888
     30  NZ       -24.5850   -8.4790   -6.6960 N.3     4  LYS4       -0.2165
     31  CM       -24.4510   -9.6480   -7.5440 C.3     4  LYS4        0.1075
     32  C        -27.4680   -5.6160   -1.9530 C.2     4  LYS4        0.2616
     33  O        -26.7340   -6.1870   -1.1600 O.2     4  LYS4       -0.2715
     34  N        -28.4200   -4.7700   -1.5710 N.am    5  GLN5       -0.1963
     35  CA       -28.5580   -4.3360   -0.1800 C.3     5  GLN5        0.1733
     36  C        -28.8180   -5.5400    0.7380 C.2     5  GLN5        0.2617
     37  O        -29.8950   -5.7110    1.3160 O.2     5  GLN5       -0.2715
     38  CB       -29.6360   -3.2410   -0.0450 C.3     5  GLN5        0.0408
     39  CG       -29.6230   -2.4750    1.2870 C.3     5  GLN5        0.0908
     40  CD       -28.3810   -1.5950    1.4900 C.2     5  GLN5        0.2608
     41  OE1      -28.1650   -0.6130    0.7630 O.2     5  GLN5       -0.2717
     42  NE2      -27.5780   -1.9350    2.5060 N.am    5  GLN5       -0.0878
     43  N        -27.7990   -6.3870    0.8180 N.am    6  THR6       -0.1951
     44  CA       -27.6450   -7.3870    1.8710 C.3     6  THR6        0.1897
     45  C        -28.0270   -6.7900    3.2510 C.2     6  THR6        0.2313
     46  O        -28.4400   -7.4890    4.1890 O.2     6  THR6       -0.2863
     47  CB       -26.1510   -7.8600    1.8860 C.3     6  THR6        0.1794
     48  OG1      -26.0480   -9.2270    2.2850 O.3     6  THR6       -0.2208
     49  CG2      -25.3050   -6.9900    2.8170 C.3     6  THR6        0.0378
@<TRIPOS>BOND
     1    15    14    1
     2    16    14    1
     3    14    13    2
     4    13    12    1
     5    12    11    1
     6    11    10    1
     7     4     3    2
     8     1     2    1
     9    10     7    1
    10     5     2    1
    11     3     2    1
    12     3     6   am
    13     9     8    2
    14    31    30    1
    15    29    30    1
    16    29    28    1
    17     7     6    1
    18     7     8    1
    19     8    17   am
    20    28    27    1
    21    17    18    1
    22    27    26    1
    23    18    19    1
    24    18    21    1
    25    19    20    2
    26    19    24   am
    27    23    21    1
    28    24    25    1
    29    21    22    1
    30    26    25    1
    31    25    32    1
    32    32    34   am
    33    32    33    2
    34    34    35    1
    35    35    38    1
    36    35    36    1
    37    38    39    1
    38    36    43   am
    39    36    37    2
    40    41    40    2
    41    43    44    1
    42    39    40    1
    43    40    42   am
    44    44    47    1
    45    44    45    1
    46    47    48    1
    47    47    49    1
    48    45    46    2
