@<TRIPOS>MOLECULE
2b2w_III_D_1.pdb
 44 43 0 0 0
SMALL
GASTEIGER

@<TRIPOS>ATOM
      1  N        -37.1830   -2.6490   -7.4100 N.3     1  ALA1       -0.1231
      2  CA       -36.0160   -3.0070   -8.1920 C.3     1  ALA1        0.1694
      3  C        -34.9320   -3.6180   -7.3420 C.2     1  ALA1        0.2592
      4  O        -34.8610   -3.4050   -6.1470 O.2     1  ALA1       -0.2718
      5  CB       -35.4900   -1.8200   -8.9430 C.3     1  ALA1        0.0304
      6  N        -34.0890   -4.3910   -7.9840 N.am    2  ARG2       -0.1966
      7  CA       -33.0900   -5.2320   -7.2980 C.3     2  ARG2        0.1729
      8  C        -31.8620   -4.4170   -6.8700 C.2     2  ARG2        0.2617
      9  O        -31.4530   -3.4740   -7.5480 O.2     2  ARG2       -0.2715
     10  CB       -32.5400   -6.3350   -8.1900 C.3     2  ARG2        0.0348
     11  CG       -33.3930   -7.5530   -8.4440 C.3     2  ARG2        0.0492
     12  CD       -32.6740   -8.2720   -9.5800 C.3     2  ARG2        0.2205
     13  NE       -32.1950   -7.2430  -10.5140 N.pl3   2  ARG2       -0.0865
     14  CZ       -31.3100   -7.4140  -11.4970 C.cat   2  ARG2        0.5346
     15  NH1      -30.9670   -6.3710  -12.2650 N.pl3   2  ARG2        0.1354
     16  NH2      -30.7680   -8.6090  -11.7150 N.pl3   2  ARG2        0.1354
     17  N        -31.2800   -4.8140   -5.7450 N.am    3  THR3       -0.1937
     18  CA       -30.0610   -4.2060   -5.2240 C.3     3  THR3        0.2028
     19  C        -29.2140   -5.3790   -4.7620 C.2     3  THR3        0.2642
     20  O        -29.6970   -6.5150   -4.6900 O.2     3  THR3       -0.2714
     21  CB       -30.2850   -3.3520   -3.9780 C.3     3  THR3        0.1808
     22  OG1      -30.8110   -4.1860   -2.9440 O.3     3  THR3       -0.2208
     23  CG2      -31.2060   -2.1990   -4.2630 C.3     3  THR3        0.0379
     24  N        -27.9500   -5.1020   -4.4610 N.am    4  LYS4       -0.1963
     25  CA       -27.0530   -6.1230   -3.9390 C.3     4  LYS4        0.1728
     26  CB       -25.5880   -5.7480   -4.1850 C.3     4  LYS4        0.0310
     27  CG       -25.1450   -5.9420   -5.6170 C.3     4  LYS4        0.0001
     28  CD       -24.9910   -7.4160   -5.9050 C.3     4  LYS4       -0.0222
     29  CE       -24.8380   -7.6890   -7.3860 C.3     4  LYS4       -0.0733
     30  NZ       -24.6090   -9.1090   -7.6530 N.4     4  LYS4        0.3857
     31  C        -27.3540   -6.0790   -2.4590 C.2     4  LYS4        0.2616
     32  O        -26.6410   -5.4420   -1.6970 O.2     4  LYS4       -0.2715
     33  CM1      -25.7320   -9.9580   -7.1560 C.3     4  LYS4       -0.0960
     34  CM2      -24.5510   -9.2300   -9.1290 C.3     4  LYS4       -0.0960
     35  CM3      -23.3030   -9.5500   -7.0870 C.3     4  LYS4       -0.0960
     36  N        -28.4360   -6.7360   -2.0600 N.am    5  GLN5       -0.1977
     37  CA       -28.8520   -6.7510   -0.6620 C.3     5  GLN5        0.1601
     38  C        -27.6910   -7.0310    0.2800 C.2     5  GLN5        0.2287
     39  O        -27.0850   -8.1090    0.2480 O.2     5  GLN5       -0.2864
     40  CB       -29.9760   -7.7740   -0.4590 C.3     5  GLN5        0.0394
     41  CG       -31.2260   -7.4240   -1.2600 C.3     5  GLN5        0.0908
     42  CD       -32.4250   -8.2850   -0.9190 C.2     5  GLN5        0.2608
     43  OE1      -32.8510   -8.3390    0.2330 O.2     5  GLN5       -0.2717
     44  NE2      -32.9820   -8.9540   -1.9210 N.am    5  GLN5       -0.0878
@<TRIPOS>BOND
     1    15    14    1
     2    16    14    1
     3    14    13    2
     4    13    12    1
     5    12    11    1
     6    34    30    1
     7     5     2    1
     8    11    10    1
     9     2     1    1
    10     2     3    1
    11    10     7    1
    12     6     3   am
    13     6     7    1
    14    30    29    1
    15    30    33    1
    16    30    35    1
    17     9     8    2
    18    29    28    1
    19     3     4    2
    20     7     8    1
    21     8    17   am
    22    28    27    1
    23    17    18    1
    24    27    26    1
    25    18    19    1
    26    18    21    1
    27    19    20    2
    28    19    24   am
    29    24    25    1
    30    23    21    1
    31    26    25    1
    32    21    22    1
    33    25    31    1
    34    31    36   am
    35    31    32    2
    36    36    37    1
    37    44    42   am
    38    41    42    1
    39    41    40    1
    40    42    43    2
    41    37    40    1
    42    37    38    1
    43    39    38    2
