@<TRIPOS>MOLECULE
2b35_TCL_A_1.pdb
 17 18 0 0 0
SMALL
GASTEIGER

@<TRIPOS>ATOM
      1  C1        13.3290   11.6280    9.2830 C.ar  300  TCL300      0.0566
      2  C2        13.2250   12.9840    9.5680 C.ar  300  TCL300      0.0611
      3  C6        14.4510   10.8960    9.6730 C.ar  300  TCL300      0.2307
      4  C5        15.5570   11.5970   10.3930 C.ar  300  TCL300      0.1840
      5  C4        15.4120   12.9690   10.6610 C.ar  300  TCL300      0.0417
      6  C3        14.2570   13.6540   10.2550 C.ar  300  TCL300      0.0147
      7  C11       20.6310   11.3070    9.3800 C.ar  300  TCL300      0.0587
      8  C10       20.4200   10.8700   10.6790 C.ar  300  TCL300      0.0259
      9  C9        19.1320   10.7230   11.1560 C.ar  300  TCL300      0.0929
     10  C8        17.9570   11.0410   10.2950 C.ar  300  TCL300      0.1559
     11  C12       19.5540   11.6070    8.5530 C.ar  300  TCL300      0.0146
     12  C13       18.2260   11.4780    8.9940 C.ar  300  TCL300      0.0392
     13  O7        16.6720   10.8840   10.7760 O.3   300  TCL300     -0.4494
     14 CL14       11.7430   13.8540    9.0380 Cl    300  TCL300     -0.0821
     15 CL15       22.3200   11.4720    8.8050 Cl    300  TCL300     -0.0822
     16 CL16       18.9880   10.1470   12.8340 Cl    300  TCL300     -0.0790
     17  O17       14.5370    9.5990    9.3950 O.3   300  TCL300     -0.2833
@<TRIPOS>BOND
     1    11    12   ar
     2    11     7   ar
     3    15     7    1
     4    12    10   ar
     5    14     2    1
     6     1     2   ar
     7     1     3   ar
     8     7     8   ar
     9    17     3    1
    10     2     6   ar
    11     3     4   ar
    12     6     5   ar
    13    10    13    1
    14    10     9   ar
    15     4     5   ar
    16     4    13    1
    17     8     9   ar
    18     9    16    1
