@<TRIPOS>MOLECULE
2b35_NAD_A_1.pdb
 44 48 0 0 0
SMALL
GASTEIGER

@<TRIPOS>ATOM
      1  PA        19.4880   11.3240   16.3040 P.3   301  NAD301      0.2189
      2  O1A       20.4840   12.0300   15.4640 O.2   301  NAD301     -0.5170
      3  O2A       19.2060   12.0870   17.5390 O.3   301  NAD301     -0.4371
      4  O5B       19.9720    9.8040   16.5710 O.3   301  NAD301     -0.3112
      5  C5B       20.5260    8.9770   15.5610 C.3   301  NAD301      0.1813
      6  C4B       21.5030    7.9820   16.1980 C.3   301  NAD301      0.1821
      7  O4B       22.1850    7.1630   15.2520 O.3   301  NAD301     -0.3135
      8  C3B       22.5940    8.7240   16.9540 C.3   301  NAD301      0.2184
      9  O3B       22.4250    8.5010   18.3300 O.3   301  NAD301     -0.2174
     10  C2B       23.8880    8.1850   16.3760 C.3   301  NAD301      0.2570
     11  O2B       24.9380    8.0720   17.3090 O.3   301  NAD301     -0.2130
     12  C1B       23.4240    6.8480   15.8450 C.3   301  NAD301      0.3186
     13  N9A       24.4160    6.2840   14.9310 N.pl3 301  NAD301     -0.1439
     14  C8A       24.8460    6.8460   13.7590 C.3   301  NAD301      0.3377
     15  N7A       25.7830    6.0400   13.2110 N.2   301  NAD301     -0.2095
     16  C5A       25.9460    4.9710   14.0250 C.2   301  NAD301      0.2526
     17  C6A       26.7630    3.8600   13.9500 C.2   301  NAD301      0.4393
     18  N6A       27.6060    3.7510   12.9350 N.pl3 301  NAD301      0.2180
     19  N1A       26.7160    2.9070   14.9470 N.2   301  NAD301      0.0021
     20  C2A       25.8750    3.0370   16.0290 C.3   301  NAD301      0.5254
     21  N3A       25.0730    4.1600   16.0950 N.2   301  NAD301     -0.0055
     22  C4A       25.0950    5.1090   15.1160 C.2   301  NAD301      0.3518
     23  O3        18.2030   11.0420   15.3530 O.3   301  NAD301     -0.2703
     24  PN        16.6550   10.8110   15.7560 P.3   301  NAD301      0.2189
     25  O1N       15.9440   11.9230   15.0840 O.2   301  NAD301     -0.5170
     26  O2N       16.4950   10.4660   17.1640 O.3   301  NAD301     -0.4371
     27  O5D       16.3530    9.4800   14.9310 O.3   301  NAD301     -0.3112
     28  C5D       16.6950    8.1900   15.3840 C.3   301  NAD301      0.1813
     29  C4D       16.0120    7.2330   14.4320 C.3   301  NAD301      0.1799
     30  O4D       14.6530    7.6000   14.2120 O.3   301  NAD301     -0.3327
     31  C3D       16.6700    7.2770   13.0770 C.3   301  NAD301      0.2158
     32  O3D       16.6960    5.9860   12.5660 O.3   301  NAD301     -0.2175
     33  C2D       15.7570    8.1310   12.2410 C.3   301  NAD301      0.2309
     34  O2D       15.9380    7.8860   10.8730 O.3   301  NAD301     -0.2158
     35  C1D       14.3930    7.7420   12.8160 C.3   301  NAD301      0.2263
     36  N1N       13.3210    8.7350   12.5660 N.pl3 301  NAD301     -0.2787
     37  C2N       13.4110    9.9940   13.0750 C.3   301  NAD301      0.1244
     38  C3N       12.4100   10.9370   12.8650 C.2   301  NAD301      0.0544
     39  C7N       12.7990   12.3800   12.9640 C.2   301  NAD301      0.2818
     40  O7N       11.9870   13.3920   12.4490 O.2   301  NAD301     -0.2670
     41  N7N       13.9450   12.7090   13.5400 N.am  301  NAD301     -0.0839
     42  C4N       11.2810   10.5820   12.1350 C.2   301  NAD301      0.0033
     43  C5N       11.1830    9.2880   11.6200 C.2   301  NAD301      0.0157
     44  C6N       12.2180    8.3780   11.8520 C.2   301  NAD301      0.0633
@<TRIPOS>BOND
     1    34    33    1
     2    43    44    2
     3    43    42    1
     4    44    36    1
     5    42    38    2
     6    33    35    1
     7    33    31    1
     8    40    39    2
     9    32    31    1
    10    36    35    1
    11    36    37    1
    12    35    30    1
    13    38    39    1
    14    38    37    1
    15    18    17    1
    16    39    41   am
    17    31    29    1
    18    15    14    1
    19    15    16    2
    20    14    13    1
    21    17    16    1
    22    17    19    2
    23    16    22    1
    24    30    29    1
    25    29    28    1
    26    13    22    1
    27    13    12    1
    28    27    28    1
    29    27    24    1
    30    19    20    1
    31    25    24    2
    32    22    21    2
    33     7    12    1
    34     7     6    1
    35    23    24    1
    36    23     1    1
    37     2     1    2
    38     5     6    1
    39     5     4    1
    40    24    26    1
    41    12    10    1
    42    20    21    1
    43     6     8    1
    44     1     4    1
    45     1     3    1
    46    10     8    1
    47    10    11    1
    48     8     9    1
