@<TRIPOS>MOLECULE
2b36_NAD_A_1.pdb
 44 48 0 0 0
SMALL
GASTEIGER

@<TRIPOS>ATOM
      1  PA        19.4400   11.4530   16.1210 P.3   301  NAD301      0.2189
      2  O1A       20.1950   12.2770   15.1140 O.2   301  NAD301     -0.5170
      3  O2A       18.8990   12.1070   17.3260 O.3   301  NAD301     -0.4371
      4  O5B       20.1360   10.0250   16.3410 O.3   301  NAD301     -0.3112
      5  C5B       20.5660    9.2220   15.2450 C.3   301  NAD301      0.1813
      6  C4B       21.4290    8.1620   15.9050 C.3   301  NAD301      0.1821
      7  O4B       22.1960    7.3450   15.0470 O.3   301  NAD301     -0.3135
      8  C3B       22.4640    8.8420   16.7780 C.3   301  NAD301      0.2184
      9  O3B       22.0870    8.5180   18.0910 O.3   301  NAD301     -0.2174
     10  C2B       23.8000    8.2960   16.3250 C.3   301  NAD301      0.2570
     11  O2B       24.7550    8.2080   17.3470 O.3   301  NAD301     -0.2130
     12  C1B       23.3450    6.9690   15.8020 C.3   301  NAD301      0.3186
     13  N9A       24.3400    6.3220   14.9440 N.pl3 301  NAD301     -0.1439
     14  C8A       24.7700    6.8300   13.7480 C.3   301  NAD301      0.3377
     15  N7A       25.6740    5.9630   13.2420 N.2   301  NAD301     -0.2095
     16  C5A       25.8190    4.9100   14.0670 C.2   301  NAD301      0.2526
     17  C6A       26.6250    3.7690   13.9990 C.2   301  NAD301      0.4393
     18  N6A       27.6200    3.8190   13.1720 N.pl3 301  NAD301      0.2180
     19  N1A       26.6030    2.8270   15.0160 N.2   301  NAD301      0.0021
     20  C2A       25.7610    3.0460   16.0950 C.3   301  NAD301      0.5254
     21  N3A       24.9640    4.1950   16.1520 N.2   301  NAD301     -0.0055
     22  C4A       24.9800    5.1190   15.1630 C.2   301  NAD301      0.3518
     23  O3        18.1770   10.9690   15.2640 O.3   301  NAD301     -0.2703
     24  PN        16.6650   10.7010   15.7810 P.3   301  NAD301      0.2189
     25  O1N       15.8630   11.7580   15.1030 O.2   301  NAD301     -0.5170
     26  O2N       16.6360   10.3270   17.2510 O.3   301  NAD301     -0.4371
     27  O5D       16.3470    9.4030   14.8990 O.3   301  NAD301     -0.3112
     28  C5D       16.8430    8.1330   15.1910 C.3   301  NAD301      0.1813
     29  C4D       16.0630    7.1520   14.3220 C.3   301  NAD301      0.1799
     30  O4D       14.6690    7.4920   14.2230 O.3   301  NAD301     -0.3327
     31  C3D       16.5720    7.1270   12.8840 C.3   301  NAD301      0.2158
     32  O3D       16.3590    5.8370   12.3780 O.3   301  NAD301     -0.2175
     33  C2D       15.6360    8.0540   12.1720 C.3   301  NAD301      0.2309
     34  O2D       15.6420    7.8960   10.7620 O.3   301  NAD301     -0.2158
     35  C1D       14.3320    7.6560   12.8580 C.3   301  NAD301      0.2263
     36  N1N       13.2710    8.6420   12.6570 N.pl3 301  NAD301     -0.2787
     37  C2N       13.3720    9.8830   13.1830 C.3   301  NAD301      0.1244
     38  C3N       12.3600   10.8150   12.9660 C.2   301  NAD301      0.0544
     39  C7N       12.6940   12.2260   13.2170 C.2   301  NAD301      0.2818
     40  O7N       12.0050   13.2240   12.5570 O.2   301  NAD301     -0.2670
     41  N7N       13.6570   12.5160   14.0650 N.am  301  NAD301     -0.0839
     42  C4N       11.2420   10.5050   12.2160 C.2   301  NAD301      0.0033
     43  C5N       11.1690    9.2420   11.6190 C.2   301  NAD301      0.0157
     44  C6N       12.1900    8.3230   11.8620 C.2   301  NAD301      0.0633
@<TRIPOS>BOND
     1    34    33    1
     2    43    44    2
     3    43    42    1
     4    44    36    1
     5    33    35    1
     6    33    31    1
     7    42    38    2
     8    32    31    1
     9    40    39    2
    10    36    35    1
    11    36    37    1
    12    35    30    1
    13    31    29    1
    14    38    37    1
    15    38    39    1
    16    18    17    1
    17    39    41   am
    18    15    14    1
    19    15    16    2
    20    14    13    1
    21    17    16    1
    22    17    19    2
    23    16    22    1
    24    30    29    1
    25    29    28    1
    26    27    28    1
    27    27    24    1
    28    13    22    1
    29    13    12    1
    30    19    20    1
    31     7    12    1
    32     7     6    1
    33    25    24    2
    34     2     1    2
    35    22    21    2
    36     5     6    1
    37     5     4    1
    38    23    24    1
    39    23     1    1
    40    24    26    1
    41    12    10    1
    42     6     8    1
    43    20    21    1
    44     1     4    1
    45     1     3    1
    46    10     8    1
    47    10    11    1
    48     8     9    1
