@<TRIPOS>MOLECULE
2b36_5PP_A_1.pdb
 19 20 0 0 0
SMALL
GASTEIGER

@<TRIPOS>ATOM
      1  O17       14.1830    9.6720    9.7680 O.3   290  5PP290     -0.2833
      2  C6        14.1990   10.9750    9.6000 C.ar  290  5PP290      0.2295
      3  C5        15.2420   11.6490   10.3420 C.ar  290  5PP290      0.1839
      4  O7        16.1890   10.8180   10.8950 O.3   290  5PP290     -0.4503
      5  C8        17.5280   10.9510   10.5850 C.ar  290  5PP290      0.1454
      6  C13       17.9310   10.8460    9.2440 C.ar  290  5PP290      0.0375
      7  C12       19.2780   10.6920    8.9370 C.ar  290  5PP290      0.0031
      8  C11       20.2190   10.6000    9.9640 C.ar  290  5PP290      0.0002
      9  C10       19.8200   10.6650   11.2930 C.ar  290  5PP290      0.0031
     10  C9        18.4720   10.8040   11.6020 C.ar  290  5PP290      0.0375
     11  C4        15.0950   13.0010   10.6580 C.ar  290  5PP290      0.0405
     12  C3        14.0010   13.7190   10.1610 C.ar  290  5PP290     -0.0009
     13  C2        13.0620   13.0760    9.3530 C.ar  290  5PP290     -0.0188
     14  C1        13.0890   11.7030    9.1670 C.ar  290  5PP290      0.0410
     15  C14       11.8620   13.8730    8.8690 C.3   290  5PP290      0.0265
     16  C15       11.9990   14.1100    7.3450 C.3   290  5PP290      0.0047
     17  C16       12.2480   15.5420    6.8870 C.3   290  5PP290      0.0003
     18  C17       13.1850   15.5910    5.6600 C.3   290  5PP290      0.0000
     19  C18       14.6920   15.8900    5.8940 C.3   290  5PP290      0.0000
@<TRIPOS>BOND
     1    18    19    1
     2    18    17    1
     3    17    16    1
     4    16    15    1
     5    15    13    1
     6     7     6   ar
     7     7     8   ar
     8    14    13   ar
     9    14     2   ar
    10     6     5   ar
    11    13    12   ar
    12     2     1    1
    13     2     3   ar
    14     8     9   ar
    15    12    11   ar
    16     3    11   ar
    17     3     4    1
    18     5     4    1
    19     5    10   ar
    20     9    10   ar
