@<TRIPOS>MOLECULE
2b37_8PS_C_1.pdb
 22 23 0 0 0
SMALL
GASTEIGER

@<TRIPOS>ATOM
      1  C1        28.8270   21.8850  103.8440 C.ar  300  8PS300      0.0410
      2  C2        27.4720   21.7100  104.0950 C.ar  300  8PS300     -0.0188
      3  C3        26.7060   22.6890  104.7430 C.ar  300  8PS300     -0.0009
      4  C4        27.3380   23.7400  105.3870 C.ar  300  8PS300      0.0405
      5  C5        28.6960   23.9680  105.1400 C.ar  300  8PS300      0.1839
      6  C6        29.4900   23.0070  104.3410 C.ar  300  8PS300      0.2295
      7  C8        29.5890   26.1990  105.1720 C.ar  300  8PS300      0.1454
      8  C9        30.1700   27.1480  105.9900 C.ar  300  8PS300      0.0375
      9  C10       30.4540   28.4120  105.4840 C.ar  300  8PS300      0.0031
     10  C11       30.3110   28.6620  104.1160 C.ar  300  8PS300      0.0002
     11  C12       29.8070   27.6800  103.2600 C.ar  300  8PS300      0.0031
     12  C13       29.5280   26.4140  103.7700 C.ar  300  8PS300      0.0375
     13  C14       26.7350   20.6200  103.3840 C.3   300  8PS300      0.0265
     14  C15       26.3550   21.2010  102.0160 C.3   300  8PS300      0.0047
     15  C16       25.6440   20.2320  101.1220 C.3   300  8PS300      0.0003
     16  C17       25.4550   20.8600   99.7320 C.3   300  8PS300      0.0000
     17  C18       25.0250   19.9140   98.5990 C.3   300  8PS300      0.0000
     18  C19       23.4450   19.9430   98.4470 C.3   300  8PS300      0.0000
     19  C20       22.9230   19.0430   97.2910 C.3   300  8PS300      0.0000
     20  C21       23.3190   17.5860   97.4980 C.3   300  8PS300      0.0000
     21  O17       30.8240   23.1580  104.2920 O.3   300  8PS300     -0.2833
     22  O7        29.4020   24.9700  105.7430 O.3   300  8PS300     -0.4503
@<TRIPOS>BOND
     1    19    20    1
     2    19    18    1
     3    18    17    1
     4    17    16    1
     5    16    15    1
     6    15    14    1
     7    14    13    1
     8    11    12   ar
     9    11    10   ar
    10    13     2    1
    11    12     7   ar
    12     1     2   ar
    13     1     6   ar
    14     2     3   ar
    15    10     9   ar
    16    21     6    1
    17     6     5   ar
    18     3     4   ar
    19     5     4   ar
    20     5    22    1
    21     7    22    1
    22     7     8   ar
    23     9     8   ar
