@<TRIPOS>MOLECULE
2b37_NAD_A_1.pdb
 44 48 0 0 0
SMALL
GASTEIGER

@<TRIPOS>ATOM
      1  PA        32.0350   64.9580  142.7690 P.3   401  NAD401      0.2189
      2  O1A       30.7290   65.5480  143.1570 O.3   401  NAD401     -0.4371
      3  O2A       32.9750   65.9760  142.2040 O.2   401  NAD401     -0.5170
      4  O5B       31.7480   63.7590  141.7080 O.3   401  NAD401     -0.3112
      5  C5B       30.6710   62.8580  141.8950 C.3   401  NAD401      0.1813
      6  C4B       30.0730   62.5700  140.5300 C.3   401  NAD401      0.1821
      7  O4B       28.9560   61.6690  140.5700 O.3   401  NAD401     -0.3135
      8  C3B       29.5640   63.8530  139.8600 C.3   401  NAD401      0.2184
      9  O3B       30.3290   64.1100  138.7040 O.3   401  NAD401     -0.2174
     10  C2B       28.1010   63.5530  139.5780 C.3   401  NAD401      0.2570
     11  O2B       27.5850   64.0870  138.3880 O.3   401  NAD401     -0.2130
     12  C1B       28.1460   62.0730  139.4860 C.3   401  NAD401      0.3186
     13  N9A       26.8030   61.5230  139.4620 N.pl3 401  NAD401     -0.1439
     14  C8A       25.8060   61.6100  140.3930 C.3   401  NAD401      0.3377
     15  N7A       24.7420   60.9260  139.9100 N.2   401  NAD401     -0.2095
     16  C5A       25.0600   60.4200  138.6930 C.2   401  NAD401      0.2526
     17  C6A       24.3660   59.6620  137.7620 C.2   401  NAD401      0.4393
     18  N6A       23.0980   59.2940  137.9640 N.pl3 401  NAD401      0.2180
     19  N1A       25.0010   59.3090  136.5930 N.2   401  NAD401      0.0021
     20  C2A       26.3080   59.6850  136.3420 C.3   401  NAD401      0.5254
     21  N3A       26.9770   60.4380  137.2620 N.2   401  NAD401     -0.0055
     22  C4A       26.3540   60.7980  138.4100 C.2   401  NAD401      0.3518
     23  O3        32.7170   64.2640  144.0470 O.3   401  NAD401     -0.2703
     24  PN        34.0610   63.3770  143.9470 P.3   401  NAD401      0.2189
     25  O1N       34.6380   63.3210  145.3230 O.3   401  NAD401     -0.4371
     26  O2N       34.8890   63.8460  142.8070 O.2   401  NAD401     -0.5170
     27  O5D       33.4440   61.9240  143.6060 O.3   401  NAD401     -0.3112
     28  C5D       34.1380   60.9450  142.9060 C.3   401  NAD401      0.1813
     29  C4D       34.0530   59.5950  143.6270 C.3   401  NAD401      0.1799
     30  O4D       35.0330   59.5190  144.6410 O.3   401  NAD401     -0.3327
     31  C3D       32.7320   59.2980  144.3230 C.3   401  NAD401      0.2158
     32  O3D       32.3760   57.9700  143.9890 O.3   401  NAD401     -0.2175
     33  C2D       33.0100   59.4610  145.8200 C.3   401  NAD401      0.2309
     34  O2D       32.1720   58.6470  146.6410 O.3   401  NAD401     -0.2158
     35  C1D       34.4780   59.0630  145.8740 C.3   401  NAD401      0.2263
     36  N1N       35.3180   59.6020  146.9760 N.pl3 401  NAD401     -0.2787
     37  C2N       35.3950   60.9500  147.2100 C.3   401  NAD401      0.1244
     38  C3N       36.2310   61.4300  148.2250 C.2   401  NAD401      0.0544
     39  C7N       36.3310   62.9120  148.4620 C.2   401  NAD401      0.2818
     40  O7N       36.6760   63.4100  149.7140 O.2   401  NAD401     -0.2670
     41  N7N       36.1450   63.7370  147.4390 N.am  401  NAD401     -0.0839
     42  C4N       36.9910   60.5400  148.9880 C.2   401  NAD401      0.0033
     43  C5N       36.9170   59.1830  148.7230 C.2   401  NAD401      0.0157
     44  C6N       36.0720   58.7200  147.7080 C.2   401  NAD401      0.0633
@<TRIPOS>BOND
     1    20    19    1
     2    20    21    1
     3    19    17    2
     4    21    22    2
     5    17    18    1
     6    17    16    1
     7    11    10    1
     8    22    16    1
     9    22    13    1
    10    16    15    2
    11     9     8    1
    12    13    12    1
    13    13    14    1
    14    12    10    1
    15    12     7    1
    16    10     8    1
    17     8     6    1
    18    15    14    1
    19     6     7    1
    20     6     5    1
    21     4     5    1
    22     4     1    1
    23     3     1    2
    24     1     2    1
    25     1    23    1
    26    26    24    2
    27    28    27    1
    28    28    29    1
    29    27    24    1
    30    29    31    1
    31    29    30    1
    32    24    23    1
    33    24    25    1
    34    32    31    1
    35    31    33    1
    36    30    35    1
    37    33    35    1
    38    33    34    1
    39    35    36    1
    40    36    37    1
    41    36    44    1
    42    37    38    1
    43    41    39   am
    44    44    43    2
    45    38    39    1
    46    38    42    2
    47    39    40    2
    48    43    42    1
