@<TRIPOS>MOLECULE
2b39_BMA_B_1.pdb
 11 11 0 0 0
SMALL
GASTEIGER

@<TRIPOS>ATOM
      1  C1        61.6340    2.5660   -2.4100 C.3   2003  BMA2003     0.1777
      2  C2        63.0810    2.6720   -2.9050 C.3   2003  BMA2003     0.2141
      3  C3        63.5290    1.3560   -3.5510 C.3   2003  BMA2003     0.2173
      4  C4        63.2990    0.1880   -2.5880 C.3   2003  BMA2003     0.2142
      5  C5        61.8470    0.1980   -2.0970 C.3   2003  BMA2003     0.1810
      6  C6        61.6360   -0.9220   -1.0750 C.3   2003  BMA2003     0.2141
      7  O2        63.9270    2.9640   -1.7870 O.3   2003  BMA2003    -0.2176
      8  O3        64.9200    1.4310   -3.8820 O.3   2003  BMA2003    -0.2175
      9  O4        63.5800   -1.0420   -3.2650 O.3   2003  BMA2003    -0.2176
     10  O5        61.5350    1.4640   -1.4870 O.3   2003  BMA2003    -0.3481
     11  O6        60.2740   -0.9260   -0.6410 O.3   2003  BMA2003    -0.2176
@<TRIPOS>BOND
     1     8     3    1
     2     3     2    1
     3     3     4    1
     4     9     4    1
     5     2     1    1
     6     2     7    1
     7     4     5    1
     8     1    10    1
     9     5    10    1
    10     5     6    1
    11     6    11    1
