@<TRIPOS>MOLECULE
2b3b_BGC_C_1.pdb
 12 12 0 0 0
SMALL
GASTEIGER

@<TRIPOS>ATOM
      1  C2         9.5590  106.4720   13.7420 C.3   2607  BGC2607     0.2434
      2  C3         8.0990  106.9190   13.6560 C.3   2607  BGC2607     0.2199
      3  C4         7.2750  105.9470   12.8200 C.3   2607  BGC2607     0.2144
      4  C5         7.5190  104.4870   13.2710 C.3   2607  BGC2607     0.1836
      5  C6         6.7560  103.4420   12.4160 C.3   2607  BGC2607     0.2142
      6  C1         9.6550  105.0120   14.1410 C.3   2607  BGC2607     0.3024
      7  O1        10.9760  104.5350   14.0900 O.3   2607  BGC2607    -0.1869
      8  O2        10.2830  107.3050   14.6640 O.3   2607  BGC2607    -0.2148
      9  O3         7.9960  108.2290   13.1360 O.3   2607  BGC2607    -0.2174
     10  O4         5.9100  106.2870   12.9220 O.3   2607  BGC2607    -0.2176
     11  O5         8.9010  104.1870   13.2830 O.3   2607  BGC2607    -0.3236
     12  O6         7.1490  103.4440   11.0590 O.3   2607  BGC2607    -0.2176
@<TRIPOS>BOND
     1    12     5    1
     2     5     4    1
     3     3    10    1
     4     3     4    1
     5     3     2    1
     6     9     2    1
     7     4    11    1
     8    11     6    1
     9     2     1    1
    10     1     6    1
    11     1     8    1
    12     7     6    1
