@<TRIPOS>MOLECULE
2b3b_GLC_A_1.pdb
 12 12 0 0 0
SMALL
GASTEIGER

@<TRIPOS>ATOM
      1  C1        10.2830   65.7760   23.2040 C.2   2605  GLC2605     0.3505
      2  C2         8.9950   64.9250   22.9260 C.3   2605  GLC2605     0.2823
      3  C3         8.5310   64.8560   21.4640 C.3   2605  GLC2605     0.2270
      4  C4         8.9220   66.1230   20.6980 C.3   2605  GLC2605     0.2276
      5  C5        10.4380   66.3740   20.8030 C.3   2605  GLC2605     0.2344
      6  C6        10.9440   67.6490   20.1090 C.3   2605  GLC2605     0.2281
      7  O1        11.2490   65.1830   23.9890 O.2   2605  GLC2605    -0.2472
      8  O2         8.9410   63.6650   23.6160 O.3   2605  GLC2605    -0.2082
      9  O3         7.1160   64.7460   21.4570 O.3   2605  GLC2605    -0.2169
     10  O4         8.5650   65.9950   19.3320 O.3   2605  GLC2605    -0.2163
     11  O5        10.9080   66.4720   22.1370 O.3   2605  GLC2605    -0.4450
     12  O6        10.3410   68.7860   20.6520 O.3   2605  GLC2605    -0.2163
@<TRIPOS>BOND
     1    10     4    1
     2     6    12    1
     3     6     5    1
     4     4     5    1
     5     4     3    1
     6     5    11    1
     7     9     3    1
     8     3     2    1
     9    11     1    1
    10     2     1    1
    11     2     8    1
    12     1     7    2
