@<TRIPOS>MOLECULE
2b3f_GAL_A_1.pdb
 12 12 0 0 0
SMALL
GASTEIGER

@<TRIPOS>ATOM
      1  C1        10.5520   65.4380   22.9320 C.3   3310  GAL3310     0.3024
      2  C2         9.0700   65.0470   22.8580 C.3   3310  GAL3310     0.2434
      3  C3         8.5860   64.9200   21.4200 C.3   3310  GAL3310     0.2199
      4  C4         8.9340   66.1690   20.6080 C.3   3310  GAL3310     0.2144
      5  C5        10.4230   66.5170   20.8490 C.3   3310  GAL3310     0.1836
      6  C6        10.9160   67.7700   20.1070 C.3   3310  GAL3310     0.2142
      7  O1        10.9640   65.6180   24.2530 O.3   3310  GAL3310    -0.1869
      8  O2         8.8700   63.8300   23.5950 O.3   3310  GAL3310    -0.2148
      9  O3         7.1810   64.7150   21.3950 O.3   3310  GAL3310    -0.2174
     10  O4         8.0650   67.1920   21.0160 O.3   3310  GAL3310    -0.2176
     11  O5        10.7110   66.6690   22.2180 O.3   3310  GAL3310    -0.3236
     12  O6        10.3860   68.9250   20.6850 O.3   3310  GAL3310    -0.2176
@<TRIPOS>BOND
     1     6    12    1
     2     6     5    1
     3     4     5    1
     4     4    10    1
     5     4     3    1
     6     5    11    1
     7     9     3    1
     8     3     2    1
     9    11     1    1
    10     2     1    1
    11     2     8    1
    12     1     7    1
