@<TRIPOS>MOLECULE
2b3t_SAH_A_1.pdb
 26 28 0 0 0
SMALL
GASTEIGER

@<TRIPOS>ATOM
      1  N         37.3380   20.9630   69.5370 N.3   300  SAH300     -0.1208
      2  CA        36.7020   20.0050   68.5510 C.3   300  SAH300      0.1952
      3  CB        35.6600   20.5420   67.6660 C.3   300  SAH300      0.0422
      4  CG        34.4490   21.1980   68.2310 C.3   300  SAH300      0.0597
      5  SD        33.6350   22.0290   66.8010 S.3   300  SAH300     -0.1375
      6  C         37.8490   19.4090   67.6510 C.2   300  SAH300      0.3819
      7  O         39.0280   19.7860   67.8430 O.co2 300  SAH300     -0.2441
      8  OXT       37.4700   18.5480   66.7450 O.co2 300  SAH300     -0.2441
      9  C5'       32.1170   22.4780   67.5290 C.3   300  SAH300      0.0899
     10  C4'       31.3020   21.1950   68.0270 C.3   300  SAH300      0.1630
     11  O4'       30.1220   21.7610   68.5750 O.3   300  SAH300     -0.3153
     12  C3'       30.8020   20.2510   66.9610 C.3   300  SAH300      0.2168
     13  O3'       31.3860   18.9690   67.1110 O.3   300  SAH300     -0.2175
     14  C2'       29.2450   20.2900   67.1690 C.3   300  SAH300      0.2569
     15  O2'       28.6270   19.0620   66.8150 O.3   300  SAH300     -0.2130
     16  C1'       29.1410   20.6920   68.6440 C.3   300  SAH300      0.3185
     17  N9        27.9690   21.1970   69.0790 N.pl3 300  SAH300     -0.1439
     18  C8        27.1130   22.1910   68.6320 C.3   300  SAH300      0.3377
     19  N7        26.0520   22.3780   69.3560 N.2   300  SAH300     -0.2095
     20  C5        26.1780   21.4340   70.4000 C.2   300  SAH300      0.2526
     21  C6        25.3250   21.1330   71.5250 C.2   300  SAH300      0.4393
     22  N6        24.1770   21.7510   71.7800 N.pl3 300  SAH300      0.2180
     23  N1        25.7810   20.1380   72.3470 N.2   300  SAH300      0.0021
     24  C2        26.9480   19.4680   72.1300 C.3   300  SAH300      0.5254
     25  N3        27.7880   19.7180   71.0640 N.2   300  SAH300     -0.0055
     26  C4        27.3400   20.7100   70.2470 C.2   300  SAH300      0.3518
@<TRIPOS>BOND
     1     8     6   ar
     2     5     9    1
     3     5     4    1
     4    15    14    1
     5    12    13    1
     6    12    14    1
     7    12    10    1
     8    14    16    1
     9     9    10    1
    10     6     7   ar
    11     6     2    1
    12     3     4    1
    13     3     2    1
    14    10    11    1
    15     2     1    1
    16    11    16    1
    17    18    17    1
    18    18    19    1
    19    16    17    1
    20    17    26    1
    21    19    20    2
    22    26    20    1
    23    26    25    2
    24    20    21    1
    25    25    24    1
    26    21    22    1
    27    21    23    2
    28    24    23    1
