@<TRIPOS>MOLECULE
2b46_XYP_X_1.pdb
 10 10 0 0 0
SMALL
GASTEIGER

@<TRIPOS>ATOM
      1  O4A       -2.9850   28.5070   -4.9840 O.3   502  XYP502     -0.1869
      2  C1B       -3.3360   29.7120   -4.3730 C.3   502  XYP502      0.3024
      3  C2B       -2.0330   30.3730   -4.0510 C.3   502  XYP502      0.2434
      4  C3B       -2.2520   31.8270   -3.6360 C.3   502  XYP502      0.2199
      5  C4B       -3.3670   32.5770   -4.3620 C.3   502  XYP502      0.2143
      6  C5B       -4.4810   31.6350   -4.7790 C.3   502  XYP502      0.1804
      7  O2B       -1.3120   29.6920   -3.0330 O.3   502  XYP502     -0.2148
      8  O3B       -1.0140   32.4610   -3.8790 O.3   502  XYP502     -0.2174
      9  O4B       -3.8750   33.5030   -3.4220 O.3   502  XYP502     -0.2176
     10  O5B       -3.8900   30.4810   -5.3280 O.3   502  XYP502     -0.3237
@<TRIPOS>BOND
     1    10     6    1
     2    10     2    1
     3     1     2    1
     4     6     5    1
     5     2     3    1
     6     5     4    1
     7     5     9    1
     8     3     4    1
     9     3     7    1
    10     8     4    1
