@<TRIPOS>MOLECULE
2b4b_B33_B_1.pdb
 14 13 0 0 0
SMALL
GASTEIGER

@<TRIPOS>ATOM
      1  C10       22.0530   31.7740   -5.9440 C.3   173  B33173      0.0902
      2  C12       24.1890   31.3090   -6.8200 C.3   173  B33173      0.0887
      3  C13       25.5980   31.5700   -7.2250 C.3   173  B33173      0.0188
      4  C1        13.4250   26.7830   -1.9700 C.3   173  B33173      0.0542
      5  C2        14.7800   27.2320   -2.1520 C.2   173  B33173      0.0833
      6  N3        14.9980   28.6720   -2.1300 N.2   173  B33173     -0.1988
      7  C4        16.2380   29.3840   -2.5480 C.1   173  B33173      0.0369
      8  C5        17.4710   29.6400   -3.3300 C.1   173  B33173     -0.0477
      9  C6        18.4740   30.3130   -4.1450 C.3   173  B33173      0.1660
     10  N7        18.0150   31.3040   -5.2120 N.3   173  B33173     -0.2040
     11  C8        19.5060   31.5830   -5.8900 C.3   173  B33173      0.0914
     12  C9        20.9020   30.9720   -6.0800 C.3   173  B33173      0.0376
     13  N11       23.4930   32.4420   -6.2340 N.3   173  B33173     -0.2180
     14  C14       25.8890   32.9390   -7.7960 C.3   173  B33173      0.0015
@<TRIPOS>BOND
     1    14     3    1
     2     3     2    1
     3     2    13    1
     4    13     1    1
     5    12     1    1
     6    12    11    1
     7    11    10    1
     8    10     9    1
     9     9     8    1
    10     8     7    3
    11     7     6    1
    12     5     6    2
    13     5     4    1
