@<TRIPOS>MOLECULE
2b4b_COA_A_1.pdb
 48 50 0 0 0
SMALL
GASTEIGER

@<TRIPOS>ATOM
      1  N1A       -0.6360    8.1600    3.1060 N.2   200  COA200      0.0021
      2  C2A       -0.6900    8.1840    1.7650 C.3   200  COA200      0.5254
      3  N3A        0.0200    9.0860    1.0680 N.2   200  COA200     -0.0055
      4  C4A        0.8050    9.9890    1.7020 C.2   200  COA200      0.3518
      5  C5A        0.8870    9.9900    3.0900 C.2   200  COA200      0.2526
      6  C6A        0.1320    9.0450    3.7940 C.2   200  COA200      0.4393
      7  N6A        0.1130    9.0470    5.1300 N.pl3 200  COA200      0.2180
      8  N7A        1.7180   10.9700    3.4490 N.2   200  COA200     -0.2095
      9  C8A        2.1490   11.5700    2.3280 C.3   200  COA200      0.3377
     10  N9A        1.5790   10.9680    1.2590 N.pl3 200  COA200     -0.1439
     11  C1B        1.7200   11.3530   -0.1720 C.3   200  COA200      0.3185
     12  C2B        1.3640   12.8360   -0.3400 C.3   200  COA200      0.2543
     13  O2B        0.0720   12.9720   -0.9230 O.3   200  COA200     -0.2131
     14  C3B        2.4110   13.3170   -1.2910 C.3   200  COA200      0.1928
     15  O3B        2.0860   12.8050   -2.5850 O.3   200  COA200     -0.2673
     16  P3B        1.7670   13.7750   -3.8320 P.3   200  COA200      0.5327
     17  O7A        3.1330   14.5850   -4.0560 O.3   200  COA200     -0.1145
     18  O8A        1.5190   12.9300   -5.0240 O.2   200  COA200     -0.2224
     19  O9A        0.7170   14.7260   -3.4100 O.3   200  COA200     -0.1145
     20  C4B        3.5920   12.5290   -0.7250 C.3   200  COA200      0.1795
     21  O4B        3.1160   11.2480   -0.6600 O.3   200  COA200     -0.3136
     22  C5B        4.6080   13.0580    0.2620 C.3   200  COA200      0.1812
     23  O5B        4.0010   14.0930    1.0030 O.3   200  COA200     -0.3112
     24  P1A        4.8350   14.3890    2.3190 P.3   200  COA200      0.2189
     25  O1A        5.2520   13.0930    3.0500 O.2   200  COA200     -0.5170
     26  O2A        3.6670   15.0780    3.0660 O.3   200  COA200     -0.4371
     27  O3A        6.0520   15.3340    2.0580 O.3   200  COA200     -0.2703
     28  P2A        7.5220   15.1110    2.4180 P.3   200  COA200      0.2188
     29  O4A        7.8950   14.0650    1.3930 O.2   200  COA200     -0.5170
     30  O5A        7.8250   14.6310    3.8720 O.3   200  COA200     -0.4371
     31  O6A        8.1610   16.5370    2.3770 O.3   200  COA200     -0.3138
     32  CBP        9.5900   17.9540    0.6010 C.3   200  COA200      0.0646
     33  CCP        8.2680   17.3870    1.1940 C.3   200  COA200      0.1519
     34  CDP       10.2070   18.8550    1.6910 C.3   200  COA200      0.0056
     35  CEP        9.1810   18.7840   -0.5870 C.3   200  COA200      0.0056
     36  CAP       10.6120   16.8240    0.3080 C.3   200  COA200      0.2315
     37  OAP        9.9450   15.6310   -0.2280 O.3   200  COA200     -0.2131
     38  C9P       12.1320   16.6530    0.2640 C.2   200  COA200      0.2758
     39  O9P       12.6500   17.2150    1.3180 O.2   200  COA200     -0.2702
     40  N8P       12.5900   16.6500   -0.9690 N.am  200  COA200     -0.1800
     41  C7P       13.4240   17.4110   -1.7310 C.2   200  COA200      0.0720
     42  C6P       14.0080   18.6970   -1.4380 C.3   200  COA200      0.1309
     43  C5P       13.0620   19.7040   -1.9830 C.2   200  COA200      0.2473
     44  O5P       12.6240   19.6770   -3.2250 O.2   200  COA200     -0.2729
     45  N4P       12.7340   20.5840   -1.0840 N.am  200  COA200     -0.2041
     46  C3P       11.9000   21.6180   -1.2660 C.3   200  COA200      0.1276
     47  C2P       11.6840   22.9880   -1.7980 C.3   200  COA200      0.0920
     48  S1P       12.0100   23.8470   -3.3550 S.3   200  COA200     -0.0802
@<TRIPOS>BOND
     1    18    16    2
     2    17    16    1
     3    16    19    1
     4    16    15    1
     5    48    47    1
     6    44    43    2
     7    15    14    1
     8    43    42    1
     9    43    45   am
    10    47    46    1
    11    41    42    1
    12    41    40    2
    13    14    20    1
    14    14    12    1
    15    46    45    1
    16    40    38    1
    17    13    12    1
    18    20    21    1
    19    20    22    1
    20    21    11    1
    21    35    32    1
    22    12    11    1
    23    37    36    1
    24    11    10    1
    25    22    23    1
    26    38    36    1
    27    38    39    2
    28    36    32    1
    29    32    33    1
    30    32    34    1
    31    23    24    1
    32     3     4    2
    33     3     2    1
    34    33    31    1
    35    10     4    1
    36    10     9    1
    37    29    28    2
    38     4     5    1
    39     2     1    1
    40    27    24    1
    41    27    28    1
    42    24    25    2
    43    24    26    1
    44     9     8    1
    45    31    28    1
    46    28    30    1
    47     5     8    2
    48     5     6    1
    49     1     6    2
    50     6     7    1
