@<TRIPOS>MOLECULE
2b4c_FUC_G_1.pdb
 10 10 0 0 0
SMALL
GASTEIGER

@<TRIPOS>ATOM
      1  C1       107.7210 -122.5080  107.2050 C.3   777  FUC777      0.1776
      2  C2       109.0750 -121.8430  107.4490 C.3   777  FUC777      0.2141
      3  C3       108.9900 -120.3200  107.2420 C.3   777  FUC777      0.2172
      4  C4       108.3610 -119.9670  105.8880 C.3   777  FUC777      0.2116
      5  C5       107.0580 -120.7450  105.6460 C.3   777  FUC777      0.1483
      6  C6       105.8830 -120.2710  106.4850 C.3   777  FUC777      0.0349
      7  O2       110.0320 -122.3870  106.5570 O.3   777  FUC777     -0.2176
      8  O3       108.2430 -119.7150  108.2880 O.3   777  FUC777     -0.2175
      9  O4       108.0900 -118.5760  105.8450 O.3   777  FUC777     -0.2177
     10  O5       107.2450 -122.1700  105.8980 O.3   777  FUC777     -0.3508
@<TRIPOS>BOND
     1     5     4    1
     2     5    10    1
     3     5     6    1
     4     9     4    1
     5     4     3    1
     6    10     1    1
     7     7     2    1
     8     1     2    1
     9     3     2    1
    10     3     8    1
