@<TRIPOS>MOLECULE
2b4c_XYL_H_1.pdb
 10 9 0 0 0
SMALL
GASTEIGER

@<TRIPOS>ATOM
      1  C1        64.3880 -111.4240  165.5930 C.3   217  XYL217      0.2175
      2  C2        64.2570 -111.4150  164.0450 C.3   217  XYL217      0.2175
      3  C3        64.1610 -109.9750  163.4400 C.3   217  XYL217      0.2175
      4  C4        63.9330 -109.9900  161.8860 C.3   217  XYL217      0.2175
      5  C5        63.6670 -108.5630  161.3190 C.3   217  XYL217      0.2175
      6  O1        64.4460 -112.7910  166.0370 O.3   217  XYL217     -0.2175
      7  O2        65.3870 -112.0910  163.4550 O.3   217  XYL217     -0.2175
      8  O3        65.3570 -109.1910  163.6580 O.3   217  XYL217     -0.2175
      9  O4        65.0950 -110.5040  161.1980 O.3   217  XYL217     -0.2175
     10  O5        62.5000 -107.9850  161.9380 O.3   217  XYL217     -0.2175
@<TRIPOS>BOND
     1     9     4    1
     2     5     4    1
     3     5    10    1
     4     4     3    1
     5     3     8    1
     6     3     2    1
     7     7     2    1
     8     2     1    1
     9     1     6    1
