@<TRIPOS>MOLECULE
2b4d_COA_A_1.pdb
 48 50 0 0 0
SMALL
GASTEIGER

@<TRIPOS>ATOM
      1  N1A       17.5950   12.6490   18.9110 N.2   201  COA201      0.0021
      2  C2A       18.0980   13.5980   19.7120 C.3   201  COA201      0.5254
      3  N3A       17.9510   14.8940   19.4090 N.2   201  COA201     -0.0055
      4  C4A       17.2940   15.2760   18.2870 C.2   201  COA201      0.3518
      5  C5A       16.7650   14.3170   17.4420 C.2   201  COA201      0.2526
      6  C6A       16.9280   12.9750   17.7770 C.2   201  COA201      0.4393
      7  N6A       16.4340   12.0220   16.9920 N.pl3 201  COA201      0.2180
      8  N7A       16.1820   14.9440   16.4300 N.2   201  COA201     -0.2095
      9  C8A       16.3330   16.2590   16.6200 C.3   201  COA201      0.3377
     10  N9A       17.0150   16.4670   17.7590 N.pl3 201  COA201     -0.1439
     11  C1B       17.4030   17.8020   18.3270 C.3   201  COA201      0.3185
     12  C2B       16.2180   18.7190   18.5030 C.3   201  COA201      0.2543
     13  O2B       15.9010   19.3480   17.2540 O.3   201  COA201     -0.2131
     14  C3B       16.7530   19.7300   19.4840 C.3   201  COA201      0.1928
     15  O3B       17.5590   20.7230   18.7440 O.3   201  COA201     -0.2673
     16  P3B       19.1150   21.1870   19.1050 P.3   201  COA201      0.5327
     17  O7A       18.8970   22.2580   20.2820 O.3   201  COA201     -0.1145
     18  O8A       19.8680   20.0170   19.6210 O.3   201  COA201     -0.1145
     19  O9A       19.6700   21.9100   17.9340 O.2   201  COA201     -0.2224
     20  C4B       17.6010   18.8480   20.4410 C.3   201  COA201      0.1795
     21  O4B       17.9400   17.7090   19.6870 O.3   201  COA201     -0.3136
     22  C5B       17.0720   18.5250   21.8530 C.3   201  COA201      0.1812
     23  O5B       15.6350   18.4050   21.8440 O.3   201  COA201     -0.3112
     24  P1A       15.0680   17.8650   23.2560 P.3   201  COA201      0.2189
     25  O1A       13.7930   17.1570   23.0160 O.2   201  COA201     -0.5170
     26  O2A       15.1030   18.9370   24.2830 O.3   201  COA201     -0.4371
     27  O3A       16.1530   16.7760   23.6750 O.3   201  COA201     -0.2703
     28  P2A       15.8710   15.2040   23.7220 P.3   201  COA201      0.2188
     29  O4A       15.4690   14.7270   22.3810 O.2   201  COA201     -0.5170
     30  O5A       14.9980   14.8800   24.8640 O.3   201  COA201     -0.4371
     31  O6A       17.3690   14.6760   24.0040 O.3   201  COA201     -0.3138
     32  CBP       19.7040   14.1540   23.3710 C.3   201  COA201      0.0646
     33  CCP       18.3700   14.8230   22.9760 C.3   201  COA201      0.1519
     34  CDP       20.5940   14.7780   22.3140 C.3   201  COA201      0.0056
     35  CEP       19.8500   14.6290   24.8340 C.3   201  COA201      0.0056
     36  CAP       19.3220   12.6520   23.2420 C.3   201  COA201      0.2315
     37  OAP       18.3290   12.3120   24.2200 O.3   201  COA201     -0.2131
     38  C9P       20.5600   11.7680   23.4600 C.2   201  COA201      0.2758
     39  O9P       20.7340   11.1790   24.5270 O.2   201  COA201     -0.2702
     40  N8P       21.3960   11.7080   22.4060 N.am  201  COA201     -0.1800
     41  C7P       22.5340   10.9980   22.3830 C.2   201  COA201      0.0720
     42  C6P       22.9860   10.2300   23.4620 C.3   201  COA201      0.1309
     43  C5P       23.9760   11.0500   24.2960 C.2   201  COA201      0.2473
     44  O5P       23.5820   11.7800   25.2060 O.2   201  COA201     -0.2729
     45  N4P       25.2560   10.9010   23.9550 N.am  201  COA201     -0.2041
     46  C3P       26.3440   11.6100   24.6470 C.3   201  COA201      0.1276
     47  C2P       27.5990   11.6010   23.7730 C.3   201  COA201      0.0920
     48  S1P       28.7930   12.7120   24.7070 S.3   201  COA201     -0.0802
@<TRIPOS>BOND
     1     8     9    1
     2     8     5    2
     3     9    10    1
     4     7     6    1
     5    13    12    1
     6     5     6    1
     7     5     4    1
     8    10     4    1
     9    10    11    1
    10     6     1    2
    11    19    16    2
    12     4     3    2
    13    11    12    1
    14    11    21    1
    15    12    14    1
    16    15    16    1
    17    15    14    1
    18     1     2    1
    19    16    18    1
    20    16    17    1
    21     3     2    1
    22    14    20    1
    23    21    20    1
    24    20    22    1
    25    23    22    1
    26    23    24    1
    27    34    32    1
    28    29    28    2
    29    41    40    2
    30    41    42    1
    31    40    38    1
    32    33    32    1
    33    33    31    1
    34    25    24    2
    35    36    32    1
    36    36    38    1
    37    36    37    1
    38    24    27    1
    39    24    26    1
    40    32    35    1
    41    38    39    2
    42    42    43    1
    43    27    28    1
    44    28    31    1
    45    28    30    1
    46    47    46    1
    47    47    48    1
    48    45    43   am
    49    45    46    1
    50    43    44    2
