@<TRIPOS>MOLECULE
2b4f_XYP_A_4.pdb
 10 10 0 0 0
SMALL
GASTEIGER

@<TRIPOS>ATOM
      1  O4A       18.3110    7.2030   -1.1570 O.3   411  XYP411     -0.1869
      2  C1B       17.6410    6.0020   -1.5050 C.3   411  XYP411      0.3024
      3  C2B       18.1980    4.8430   -0.7250 C.3   411  XYP411      0.2434
      4  C3B       17.5460    3.5620   -1.2380 C.3   411  XYP411      0.2199
      5  C4B       16.0120    3.6520   -1.2470 C.3   411  XYP411      0.2143
      6  C5B       15.5300    5.0430   -1.6530 C.3   411  XYP411      0.1804
      7  O2B       19.6030    4.7730   -0.8420 O.3   411  XYP411     -0.2148
      8  O3B       17.9680    2.5020   -0.4120 O.3   411  XYP411     -0.2174
      9  O4B       15.4650    2.7520   -2.1980 O.3   411  XYP411     -0.2176
     10  O5B       16.3300    6.1080   -1.1750 O.3   411  XYP411     -0.3237
@<TRIPOS>BOND
     1     9     5    1
     2     6     5    1
     3     6    10    1
     4     2    10    1
     5     2     1    1
     6     2     3    1
     7     5     4    1
     8     4     3    1
     9     4     8    1
    10     7     3    1
