@<TRIPOS>MOLECULE
2b4g_FMN_A_1.pdb
 31 33 0 0 0
SMALL
GASTEIGER

@<TRIPOS>ATOM
      1  N1        36.1020   28.9690   22.1230 N.2   1400  FMN1400    -0.2887
      2  C2        35.1490   28.1540   22.6400 C.1   1400  FMN1400     0.3669
      3  O2        35.1410   26.9510   22.3400 O.2   1400  FMN1400    -0.1744
      4  N3        34.2090   28.6680   23.5050 N.2   1400  FMN1400    -0.2300
      5  C4        34.1780   29.9970   23.8500 C.1   1400  FMN1400     0.2513
      6  O4        33.1400   30.4370   24.3420 O.2   1400  FMN1400    -0.2057
      7  C4A       35.1430   30.8400   23.3150 C.2   1400  FMN1400     0.2706
      8  N5        35.1880   32.1700   23.6450 N.2   1400  FMN1400    -0.3841
      9  C5A       36.1290   32.9900   23.0670 C.2   1400  FMN1400     0.1452
     10  C6        36.1490   34.3590   23.3570 C.2   1400  FMN1400     0.0252
     11  C7        37.1230   35.1890   22.7950 C.2   1400  FMN1400    -0.0375
     12  C7M       36.9060   36.6860   22.8520 C.3   1400  FMN1400     0.0268
     13  C8        38.0700   34.6430   21.9170 C.3   1400  FMN1400     0.0417
     14  C8M       38.7830   35.4980   20.8970 C.3   1400  FMN1400     0.0091
     15  C9        38.0260   33.2800   21.6290 C.2   1400  FMN1400    -0.0049
     16  C9A       37.0680   32.4500   22.1720 C.2   1400  FMN1400     0.0795
     17  N10       37.0660   31.0910   21.8920 N.pl3 1400  FMN1400    -0.2545
     18  C10       36.1060   30.3000   22.4490 C.2   1400  FMN1400     0.2449
     19  C1'       38.1550   30.4280   21.0910 C.3   1400  FMN1400     0.1336
     20  C2'       37.7690   30.5590   19.6190 C.3   1400  FMN1400     0.2048
     21  O2'       36.5170   29.9160   19.4270 O.3   1400  FMN1400    -0.2185
     22  C3'       38.8390   30.0020   18.6870 C.3   1400  FMN1400     0.2165
     23  O3'       39.0070   28.6250   18.9340 O.3   1400  FMN1400    -0.2175
     24  C4'       40.2020   30.7020   18.8450 C.3   1400  FMN1400     0.2147
     25  O4'       39.9990   32.0650   19.1430 O.3   1400  FMN1400    -0.2176
     26  C5'       41.1010   30.5980   17.6140 C.3   1400  FMN1400     0.1892
     27  O5'       40.4880   31.0210   16.4100 O.3   1400  FMN1400    -0.2674
     28  P         40.8840   32.4330   15.7610 P.3   1400  FMN1400     0.5327
     29  O1P       42.3520   32.4510   15.4220 O.3   1400  FMN1400    -0.1145
     30  O2P       40.6340   33.4820   16.8080 O.3   1400  FMN1400    -0.1145
     31  O3P       40.0350   32.6370   14.5390 O.2   1400  FMN1400    -0.2224
@<TRIPOS>BOND
     1    31    28    2
     2    29    28    1
     3    28    27    1
     4    28    30    1
     5    27    26    1
     6    26    24    1
     7    22    24    1
     8    22    23    1
     9    22    20    1
    10    24    25    1
    11    21    20    1
    12    20    19    1
    13    14    13    1
    14    19    17    1
    15    15    13    1
    16    15    16    2
    17    17    16    1
    18    17    18    1
    19    13    11    1
    20     1    18    2
    21     1     2    2
    22    16     9    1
    23     3     2    2
    24    18     7    1
    25     2     4    2
    26    11    12    1
    27    11    10    2
    28     9    10    1
    29     9     8    2
    30     7     8    2
    31     7     5    1
    32     4     5    2
    33     5     6    2
