@<TRIPOS>MOLECULE
2b4k_PG9_A_1.pdb
 11 11 0 0 0
SMALL
GASTEIGER

@<TRIPOS>ATOM
      1  N         29.0740   45.1000  189.8790 N.3   3600  PG93600    -0.1159
      2  CA        28.8030   46.4600  190.4500 C.3   3600  PG93600     0.2165
      3  CB        29.4710   46.5610  191.7650 C.ar  3600  PG93600     0.0059
      4  CG1       30.5910   47.3900  191.9010 C.ar  3600  PG93600    -0.0023
      5  CD1       31.2390   47.4870  193.1310 C.ar  3600  PG93600    -0.0003
      6  CE        30.7650   46.7490  194.2160 C.ar  3600  PG93600    -0.0000
      7  CD2       29.6460   45.9220  194.0760 C.ar  3600  PG93600    -0.0003
      8  CG2       28.9990   45.8270  192.8510 C.ar  3600  PG93600    -0.0023
      9  C         27.3150   46.7000  190.5530 C.2   3600  PG93600     0.3860
     10  O         26.8500   47.8040  190.2500 O.co2 3600  PG93600    -0.2437
     11  OXT       26.5470   45.8010  190.9290 O.co2 3600  PG93600    -0.2437
@<TRIPOS>BOND
     1     1     2    1
     2    10     9   ar
     3     2     9    1
     4     2     3    1
     5     9    11   ar
     6     3     4   ar
     7     3     8   ar
     8     4     5   ar
     9     8     7   ar
    10     5     6   ar
    11     7     6   ar
