@<TRIPOS>MOLECULE
2b4m_PBE_A_1.pdb
 10 10 0 0 0
SMALL
GASTEIGER

@<TRIPOS>ATOM
      1  N         27.3760    2.2320   11.2260 N.4   311  PBE311      0.3955
      2  CD        27.0400    1.9110    9.8180 C.3   311  PBE311     -0.0724
      3  CA        26.0840    2.7050   11.7840 C.3   311  PBE311      0.0515
      4  CB        25.0810    1.6940   11.2330 C.3   311  PBE311     -0.0114
      5  CG        25.5410    1.5640    9.7800 C.3   311  PBE311     -0.0238
      6  CE        27.9780    1.0350   11.8400 C.3   311  PBE311     -0.0950
      7  CF        28.3500    3.3390   11.2790 C.3   311  PBE311     -0.0950
      8  C         26.0200    2.8290   13.3270 C.2   311  PBE311      0.3464
      9  O         27.0030    2.6260   14.0330 O.co2 311  PBE311     -0.2479
     10  OXT       24.9760    3.1630   13.8860 O.co2 311  PBE311     -0.2479
@<TRIPOS>BOND
     1     5     2    1
     2     5     4    1
     3     2     1    1
     4     1     7    1
     5     1     3    1
     6     1     6    1
     7     4     3    1
     8     3     8    1
     9     8    10   ar
    10     8     9   ar
