@<TRIPOS>MOLECULE
2b4q_NAP_A_1.pdb
 48 52 0 0 0
SMALL
GASTEIGER

@<TRIPOS>ATOM
      1  PA       -13.4450   85.9390    5.6860 P.3   1901  NAP1901     0.2189
      2  O1A      -13.7420   87.2820    5.1470 O.3   1901  NAP1901    -0.4371
      3  O2A      -13.0830   85.0300    4.5730 O.2   1901  NAP1901    -0.5170
      4  O5B      -14.7290   85.3820    6.5160 O.3   1901  NAP1901    -0.3112
      5  C5B      -15.2670   86.0870    7.6310 C.3   1901  NAP1901     0.1813
      6  C4B      -16.4780   85.4110    8.3100 C.3   1901  NAP1901     0.1820
      7  O4B      -17.4130   86.4240    8.6900 O.3   1901  NAP1901    -0.3136
      8  C3B      -17.2640   84.4400    7.4370 C.3   1901  NAP1901     0.2157
      9  O3B      -17.4430   83.1920    8.0900 O.3   1901  NAP1901    -0.2175
     10  C2B      -18.5860   85.1620    7.1440 C.3   1901  NAP1901     0.2314
     11  O2B      -19.6960   84.3280    6.8420 O.3   1901  NAP1901    -0.2630
     12  C1B      -18.7550   85.9940    8.3980 C.3   1901  NAP1901     0.3158
     13  N9A      -19.7490   87.1050    8.2970 N.pl3 1901  NAP1901    -0.1439
     14  C8A      -19.7150   88.2290    7.4850 C.3   1901  NAP1901     0.3377
     15  N7A      -20.8150   88.9840    7.7240 N.2   1901  NAP1901    -0.2095
     16  C5A      -21.5540   88.3730    8.6770 C.2   1901  NAP1901     0.2526
     17  C6A      -22.7780   88.7030    9.3100 C.2   1901  NAP1901     0.4393
     18  N6A      -23.4350   89.8190    8.9760 N.pl3 1901  NAP1901     0.2180
     19  N1A      -23.3160   87.8450   10.3000 N.2   1901  NAP1901     0.0021
     20  C2A      -22.6440   86.6630   10.6620 C.3   1901  NAP1901     0.5254
     21  N3A      -21.4260   86.3430   10.0230 N.2   1901  NAP1901    -0.0055
     22  C4A      -20.8920   87.1820    9.0550 C.2   1901  NAP1901     0.3518
     23  O3       -12.2710   85.9010    6.8030 O.3   1901  NAP1901    -0.2703
     24  PN       -11.4190   87.1450    7.3720 P.3   1901  NAP1901     0.2189
     25  O1N      -11.4230   88.2640    6.4030 O.2   1901  NAP1901    -0.5170
     26  O2N      -10.0930   86.5710    7.7310 O.3   1901  NAP1901    -0.4371
     27  O5D      -12.2200   87.6460    8.6860 O.3   1901  NAP1901    -0.3112
     28  C5D      -11.6420   87.5250    9.9630 C.3   1901  NAP1901     0.1813
     29  C4D      -11.8000   88.7580   10.8690 C.3   1901  NAP1901     0.1799
     30  O4D      -10.4960   89.2510   11.1320 O.3   1901  NAP1901    -0.3327
     31  C3D      -12.5940   89.9320   10.2680 C.3   1901  NAP1901     0.2158
     32  O3D      -13.3590   90.5140   11.3100 O.3   1901  NAP1901    -0.2175
     33  C2D      -11.5380   90.8970    9.7960 C.3   1901  NAP1901     0.2309
     34  O2D      -11.9630   92.2410    9.7930 O.3   1901  NAP1901    -0.2158
     35  C1D      -10.3640   90.6120   10.7500 C.3   1901  NAP1901     0.2263
     36  N1N       -8.9920   90.8910   10.2020 N.pl3 1901  NAP1901    -0.2787
     37  C2N       -8.4630   90.1600    9.1200 C.3   1901  NAP1901     0.1244
     38  C3N       -7.1170   90.3120    8.6880 C.2   1901  NAP1901     0.0544
     39  C7N       -6.6710   89.5150    7.5200 C.2   1901  NAP1901     0.2818
     40  O7N       -5.5140   89.7230    7.2230 O.2   1901  NAP1901    -0.2670
     41  N7N       -7.4080   88.6610    6.8690 N.am  1901  NAP1901    -0.0839
     42  C4N       -6.3560   91.2740    9.4490 C.2   1901  NAP1901     0.0033
     43  C5N       -6.8740   92.0090   10.5320 C.2   1901  NAP1901     0.0157
     44  C6N       -8.2060   91.8030   10.8960 C.2   1901  NAP1901     0.0633
     45  P2B      -20.3310   84.2560    5.3550 P.3   1901  NAP1901     0.5328
     46  O1X      -19.4010   83.4030    4.4810 O.2   1901  NAP1901    -0.2224
     47  O2X      -21.6840   83.5910    5.4260 O.3   1901  NAP1901    -0.1145
     48  O3X      -20.4920   85.6540    4.7510 O.3   1901  NAP1901    -0.1145
@<TRIPOS>BOND
     1    46    45    2
     2     3     1    2
     3    48    45    1
     4     2     1    1
     5    45    47    1
     6    45    11    1
     7     1     4    1
     8     1    23    1
     9    25    24    2
    10     4     5    1
    11    23    24    1
    12    11    10    1
    13    41    39   am
    14    10     8    1
    15    10    12    1
    16    40    39    2
    17    24    26    1
    18    24    27    1
    19     8     9    1
    20     8     6    1
    21    14    15    1
    22    14    13    1
    23    39    38    1
    24     5     6    1
    25    15    16    2
    26    13    12    1
    27    13    22    1
    28     6     7    1
    29    12     7    1
    30    16    22    1
    31    16    17    1
    32    27    28    1
    33    38    37    1
    34    38    42    2
    35    18    17    1
    36    22    21    2
    37    37    36    1
    38    17    19    2
    39    42    43    1
    40    34    33    1
    41    33    31    1
    42    33    35    1
    43    28    29    1
    44    21    20    1
    45    36    35    1
    46    36    44    1
    47    31    29    1
    48    31    32    1
    49    19    20    1
    50    43    44    2
    51    35    30    1
    52    29    30    1
