@<TRIPOS>MOLECULE
2b4r_AES_O_1.pdb
 13 13 0 0 0
SMALL
GASTEIGER

@<TRIPOS>ATOM
      1  C3        14.4800   17.2870   13.0790 C.ar  601  AES601     -0.0028
      2  C2        14.7070   16.2360   12.1950 C.ar  601  AES601      0.0208
      3  C1        14.0770   16.2320   10.9500 C.ar  601  AES601      0.1382
      4  S         14.3560   14.9170    9.8160 S.O2  601  AES601      0.1484
      5  F         13.8240   15.3380    8.4210 F     601  AES601     -0.0562
      6  O1S       13.5480   13.8620   10.2520 O.2   601  AES601     -0.1378
      7  O2S       15.7570   14.7780    9.7400 O.2   601  AES601     -0.1378
      8  C6        13.2250   17.2750   10.5890 C.ar  601  AES601      0.0208
      9  C5        13.0020   18.3240   11.4740 C.ar  601  AES601     -0.0028
     10  C4        13.6260   18.3270   12.7190 C.ar  601  AES601     -0.0206
     11  C7        13.3790   19.4920   13.6770 C.3   601  AES601      0.0468
     12  C8        12.4690   19.1150   14.8390 C.3   601  AES601      0.1140
     13  N8        12.8040   19.9790   15.9770 N.3   601  AES601     -0.1310
@<TRIPOS>BOND
     1     5     4    1
     2     7     4    2
     3     4     6    2
     4     4     3    1
     5     8     3   ar
     6     8     9   ar
     7     3     2   ar
     8     9    10   ar
     9     2     1   ar
    10    10     1   ar
    11    10    11    1
    12    11    12    1
    13    12    13    1
