@<TRIPOS>MOLECULE
2b4r_NAD_O_1.pdb
 44 48 0 0 0
SMALL
GASTEIGER

@<TRIPOS>ATOM
      1  PA        16.4670   19.2350   16.6680 P.3   801  NAD801      0.2189
      2  O1A       15.0640   19.3770   17.1170 O.2   801  NAD801     -0.5170
      3  O2A       17.2630   18.4260   17.6220 O.3   801  NAD801     -0.4371
      4  O5B       17.1100   20.6900   16.4780 O.3   801  NAD801     -0.3112
      5  C5B       16.3510   21.8390   16.1970 C.3   801  NAD801      0.1813
      6  C4B       16.8510   22.9130   17.1380 C.3   801  NAD801      0.1821
      7  O4B       16.5500   24.1660   16.5750 O.3   801  NAD801     -0.3135
      8  C3B       16.2050   22.8630   18.5120 C.3   801  NAD801      0.2184
      9  O3B       17.2000   22.8870   19.5040 O.3   801  NAD801     -0.2174
     10  C2B       15.3510   24.1110   18.5970 C.3   801  NAD801      0.2570
     11  O2B       15.3500   24.6520   19.9020 O.3   801  NAD801     -0.2130
     12  C1B       16.0140   25.0200   17.5680 C.3   801  NAD801      0.3186
     13  N9A       15.1360   26.0270   16.9370 N.pl3 801  NAD801     -0.1439
     14  C8A       13.8420   25.8910   16.5240 C.3   801  NAD801      0.3377
     15  N7A       13.4450   27.0690   15.9900 N.2   801  NAD801     -0.2095
     16  C5A       14.4680   27.9550   16.0510 C.2   801  NAD801      0.2526
     17  C6A       14.6000   29.2930   15.6530 C.2   801  NAD801      0.4393
     18  N6A       13.5080   30.0330   15.4790 N.pl3 801  NAD801      0.2180
     19  N1A       15.8120   29.9340   15.8470 N.2   801  NAD801      0.0021
     20  C2A       16.8720   29.2610   16.4370 C.3   801  NAD801      0.5254
     21  N3A       16.7280   27.9430   16.8300 N.2   801  NAD801     -0.0055
     22  C4A       15.5430   27.3000   16.6420 C.2   801  NAD801      0.3518
     23  O3        16.5170   18.6250   15.1810 O.3   801  NAD801     -0.2703
     24  PN        17.8610   18.1590   14.4140 P.3   801  NAD801      0.2189
     25  O1N       17.8580   16.6810   14.3180 O.2   801  NAD801     -0.5170
     26  O2N       19.0390   18.8680   14.9690 O.3   801  NAD801     -0.4371
     27  O5D       17.5150   18.7220   12.9530 O.3   801  NAD801     -0.3112
     28  C5D       17.8430   20.0260   12.5230 C.3   801  NAD801      0.1813
     29  C4D       17.9370   19.9880   11.0100 C.3   801  NAD801      0.1799
     30  O4D       18.9780   19.0950   10.6240 O.3   801  NAD801     -0.3327
     31  C3D       16.6420   19.4600   10.3910 C.3   801  NAD801      0.2158
     32  O3D       16.3340   20.1820    9.2230 O.3   801  NAD801     -0.2175
     33  C2D       16.9610   18.0140   10.0790 C.3   801  NAD801      0.2309
     34  O2D       16.1880   17.4780    9.0300 O.3   801  NAD801     -0.2158
     35  C1D       18.4500   18.1220    9.7420 C.3   801  NAD801      0.2263
     36  N1N       19.1850   16.8440    9.8270 N.pl3 801  NAD801     -0.2787
     37  C2N       18.9040   15.9300   10.8030 C.3   801  NAD801      0.1244
     38  C3N       19.6040   14.7300   10.8400 C.2   801  NAD801      0.0544
     39  C7N       19.4640   13.8120   12.0080 C.2   801  NAD801      0.2818
     40  O7N       19.7840   12.4560   11.8570 O.2   801  NAD801     -0.2670
     41  N7N       19.0450   14.2850   13.1690 N.am  801  NAD801     -0.0839
     42  C4N       20.5970   14.4690    9.9010 C.2   801  NAD801      0.0033
     43  C5N       20.8770   15.4150    8.9270 C.2   801  NAD801      0.0157
     44  C6N       20.1580   16.6020    8.8920 C.2   801  NAD801      0.0633
@<TRIPOS>BOND
     1    44    43    2
     2    44    36    1
     3    43    42    1
     4    34    33    1
     5    32    31    1
     6    35    36    1
     7    35    33    1
     8    35    30    1
     9    36    37    1
    10    42    38    2
    11    33    31    1
    12    31    29    1
    13    30    29    1
    14    37    38    1
    15    38    39    1
    16    29    28    1
    17    40    39    2
    18    39    41   am
    19    28    27    1
    20    27    24    1
    21    25    24    2
    22    24    26    1
    23    24    23    1
    24    23     1    1
    25    18    17    1
    26    17    19    2
    27    17    16    1
    28    19    20    1
    29    15    16    2
    30    15    14    1
    31    16    22    1
    32     5     4    1
    33     5     6    1
    34    20    21    1
    35     4     1    1
    36    14    13    1
    37     7     6    1
    38     7    12    1
    39    22    21    2
    40    22    13    1
    41     1     2    2
    42     1     3    1
    43    13    12    1
    44     6     8    1
    45    12    10    1
    46     8    10    1
    47     8     9    1
    48    10    11    1
