@<TRIPOS>MOLECULE
2b4t_AES_O_1.pdb
 13 13 0 0 0
SMALL
GASTEIGER

@<TRIPOS>ATOM
      1  C3        14.5310   17.7370   13.5890 C.ar  601  AES601     -0.0028
      2  C2        14.8460   16.6840   12.7300 C.ar  601  AES601      0.0208
      3  C1        14.2610   16.6210   11.4640 C.ar  601  AES601      0.1382
      4  S         14.6400   15.3100   10.3580 S.O2  601  AES601      0.1484
      5  F         14.1590   15.7070    8.9320 F     601  AES601     -0.0562
      6  O1S       13.8460   14.2240   10.7700 O.2   601  AES601     -0.1378
      7  O2S       16.0510   15.1940   10.3440 O.2   601  AES601     -0.1378
      8  C6        13.3620   17.6030   11.0590 C.ar  601  AES601      0.0208
      9  C5        13.0490   18.6510   11.9170 C.ar  601  AES601     -0.0028
     10  C4        13.6280   18.7170   13.1820 C.ar  601  AES601     -0.0206
     11  C7        13.2740   19.8880   14.0950 C.3   601  AES601      0.0468
     12  C8        12.7400   19.4680   15.4590 C.3   601  AES601      0.1140
     13  N8        13.2790   20.3980   16.4610 N.3   601  AES601     -0.1310
@<TRIPOS>BOND
     1     5     4    1
     2     7     4    2
     3     4     6    2
     4     4     3    1
     5     8     3   ar
     6     8     9   ar
     7     3     2   ar
     8     9    10   ar
     9     2     1   ar
    10    10     1   ar
    11    10    11    1
    12    11    12    1
    13    12    13    1
