@<TRIPOS>MOLECULE
2b4t_NAD_O_1.pdb
 44 48 0 0 0
SMALL
GASTEIGER

@<TRIPOS>ATOM
      1  PA        16.7990   19.3580   17.1300 P.3   501  NAD501      0.2189
      2  O1A       15.4110   19.4560   17.6400 O.2   501  NAD501     -0.5170
      3  O2A       17.6520   18.4640   17.9470 O.3   501  NAD501     -0.4371
      4  O5B       17.4220   20.8370   17.1260 O.3   501  NAD501     -0.3112
      5  C5B       16.7280   21.9890   16.7100 C.3   501  NAD501      0.1813
      6  C4B       17.1860   23.0910   17.6530 C.3   501  NAD501      0.1821
      7  O4B       16.8110   24.3430   17.1440 O.3   501  NAD501     -0.3135
      8  C3B       16.5730   22.9650   19.0400 C.3   501  NAD501      0.2184
      9  O3B       17.5860   22.8060   20.0130 O.3   501  NAD501     -0.2174
     10  C2B       15.7690   24.2400   19.2310 C.3   501  NAD501      0.2570
     11  O2B       15.8730   24.7450   20.5430 O.3   501  NAD501     -0.2130
     12  C1B       16.3660   25.1740   18.1950 C.3   501  NAD501      0.3186
     13  N9A       15.4490   26.1740   17.6120 N.pl3 501  NAD501     -0.1439
     14  C8A       14.1370   26.0160   17.2540 C.3   501  NAD501      0.3377
     15  N7A       13.6960   27.1820   16.7250 N.2   501  NAD501     -0.2095
     16  C5A       14.7010   28.0870   16.7300 C.2   501  NAD501      0.2526
     17  C6A       14.7860   29.4230   16.3120 C.2   501  NAD501      0.4393
     18  N6A       13.6860   30.1230   16.0340 N.pl3 501  NAD501      0.2180
     19  N1A       15.9880   30.0890   16.4490 N.2   501  NAD501      0.0021
     20  C2A       17.0840   29.4410   16.9900 C.3   501  NAD501      0.5254
     21  N3A       16.9880   28.1240   17.4040 N.2   501  NAD501     -0.0055
     22  C4A       15.8160   27.4570   17.2790 C.2   501  NAD501      0.3518
     23  O3        16.8270   18.9580   15.5730 O.3   501  NAD501     -0.2703
     24  PN        18.1030   18.2100   14.9420 P.3   501  NAD501      0.2189
     25  O1N       17.8310   16.7560   14.9350 O.2   501  NAD501     -0.5170
     26  O2N       19.3520   18.7250   15.5570 O.3   501  NAD501     -0.4371
     27  O5D       18.0500   18.6730   13.4130 O.3   501  NAD501     -0.3112
     28  C5D       18.1940   20.0200   13.0290 C.3   501  NAD501      0.1813
     29  C4D       18.2590   20.0470   11.5090 C.3   501  NAD501      0.1799
     30  O4D       19.3170   19.2050   11.0770 O.3   501  NAD501     -0.3327
     31  C3D       16.9760   19.5040   10.8810 C.3   501  NAD501      0.2158
     32  O3D       16.6140   20.3040    9.7780 O.3   501  NAD501     -0.2175
     33  C2D       17.3300   18.0830   10.4750 C.3   501  NAD501      0.2309
     34  O2D       16.6620   17.5830    9.3360 O.3   501  NAD501     -0.2158
     35  C1D       18.8220   18.2060   10.2020 C.3   501  NAD501      0.2263
     36  N1N       19.5380   16.9160   10.3300 N.pl3 501  NAD501     -0.2787
     37  C2N       19.3160   16.0480   11.3740 C.3   501  NAD501      0.1244
     38  C3N       20.0150   14.8460   11.4280 C.2   501  NAD501      0.0544
     39  C7N       19.8260   13.8670   12.5440 C.2   501  NAD501      0.2818
     40  O7N       19.7610   12.4940   12.2470 O.2   501  NAD501     -0.2670
     41  N7N       19.7500   14.2990   13.7900 N.am  501  NAD501     -0.0839
     42  C4N       20.9270   14.5230   10.4300 C.2   501  NAD501      0.0033
     43  C5N       21.1370   15.4040    9.3840 C.2   501  NAD501      0.0157
     44  C6N       20.4340   16.5950    9.3420 C.2   501  NAD501      0.0633
@<TRIPOS>BOND
     1    34    33    1
     2    44    43    2
     3    44    36    1
     4    43    42    1
     5    32    31    1
     6    35    36    1
     7    35    33    1
     8    35    30    1
     9    36    37    1
    10    42    38    2
    11    33    31    1
    12    31    29    1
    13    30    29    1
    14    37    38    1
    15    38    39    1
    16    29    28    1
    17    40    39    2
    18    39    41   am
    19    28    27    1
    20    27    24    1
    21    25    24    2
    22    24    26    1
    23    24    23    1
    24    23     1    1
    25    18    17    1
    26    17    19    2
    27    17    16    1
    28    19    20    1
    29     5     4    1
    30     5     6    1
    31    15    16    2
    32    15    14    1
    33    16    22    1
    34    20    21    1
    35     4     1    1
    36     1     2    2
    37     1     3    1
    38     7     6    1
    39     7    12    1
    40    14    13    1
    41    22    21    2
    42    22    13    1
    43    13    12    1
    44     6     8    1
    45    12    10    1
    46     8    10    1
    47     8     9    1
    48    10    11    1
