@<TRIPOS>MOLECULE
2b4y_APR_A_1.pdb
 36 39 0 0 0
SMALL
GASTEIGER

@<TRIPOS>ATOM
      1  N1        40.6460    3.6170   46.6740 N.2   1002  APR1002     0.0021
      2  C2        41.1280    2.3610   46.7500 C.3   1002  APR1002     0.5254
      3  N3        40.3520    1.2710   46.5750 N.2   1002  APR1002    -0.0055
      4  C4        39.0060    1.3990   46.3240 C.2   1002  APR1002     0.3518
      5  C5        38.4180    2.7320   46.1960 C.2   1002  APR1002     0.2526
      6  C6        39.3380    3.8720   46.4110 C.2   1002  APR1002     0.4393
      7  N6        38.9150    5.1460   46.3470 N.pl3 1002  APR1002     0.2180
      8  N7        37.1010    2.5650   45.9180 N.2   1002  APR1002    -0.2095
      9  C8        36.8570    1.2260   45.8550 C.3   1002  APR1002     0.3377
     10  N9        38.0050    0.5340   46.0810 N.pl3 1002  APR1002    -0.1439
     11  C1'       38.1960   -0.9130   46.0750 C.3   1002  APR1002     0.3186
     12  C2'       37.0300   -1.7460   46.6210 C.3   1002  APR1002     0.2570
     13  O2'       37.2510   -1.7610   48.0230 O.3   1002  APR1002    -0.2130
     14  C3'       37.2940   -3.0710   45.9260 C.3   1002  APR1002     0.2184
     15  O3'       38.2280   -3.8960   46.6460 O.3   1002  APR1002    -0.2174
     16  O4'       38.4180   -1.3250   44.7270 O.3   1002  APR1002    -0.3135
     17  C4'       38.0060   -2.6780   44.6200 C.3   1002  APR1002     0.1821
     18  C5'       37.0900   -2.7150   43.4240 C.3   1002  APR1002     0.1813
     19  O5'       36.9130   -4.0910   43.1260 O.3   1002  APR1002    -0.3112
     20  PA        36.1620   -4.5590   41.7950 P.3   1002  APR1002     0.2189
     21  O1A       35.0270   -3.6160   41.4960 O.2   1002  APR1002    -0.5170
     22  O2A       36.0340   -6.0730   41.9910 O.3   1002  APR1002    -0.4371
     23  O3A       37.2460   -4.1760   40.6380 O.3   1002  APR1002    -0.2703
     24  PB        38.5340   -4.9720   40.0780 P.3   1002  APR1002     0.2189
     25  O1B       39.2460   -5.7290   41.1620 O.3   1002  APR1002    -0.4371
     26  O2B       39.3210   -4.1400   39.0930 O.2   1002  APR1002    -0.5170
     27  O5D       37.7500   -6.1040   39.2380 O.3   1002  APR1002    -0.3112
     28  C5D       38.4690   -7.0800   38.5050 C.3   1002  APR1002     0.1813
     29  O4D       36.4350   -7.7680   37.3740 O.3   1002  APR1002    -0.3237
     30  O1D       34.3640   -6.9390   36.8420 O.3   1002  APR1002    -0.1869
     31  C1D       35.6150   -7.4020   36.2780 C.3   1002  APR1002     0.3023
     32  O2D       36.7630   -6.6960   34.2770 O.3   1002  APR1002    -0.2148
     33  C2D       36.3420   -6.2620   35.5690 C.3   1002  APR1002     0.2433
     34  O3D       38.7100   -5.8020   35.4900 O.3   1002  APR1002    -0.2175
     35  C3D       37.6000   -6.0400   36.3600 C.3   1002  APR1002     0.2168
     36  C4D       37.7690   -7.3210   37.1640 C.3   1002  APR1002     0.1807
@<TRIPOS>BOND
     1    32    33    1
     2    34    35    1
     3    33    31    1
     4    33    35    1
     5    31    30    1
     6    31    29    1
     7    35    36    1
     8    36    29    1
     9    36    28    1
    10    28    27    1
    11    26    24    2
    12    27    24    1
    13    24    23    1
    14    24    25    1
    15    23    20    1
    16    21    20    2
    17    20    22    1
    18    20    19    1
    19    19    18    1
    20    18    17    1
    21    17    16    1
    22    17    14    1
    23    16    11    1
    24     9     8    1
    25     9    10    1
    26     8     5    2
    27    14    12    1
    28    14    15    1
    29    11    10    1
    30    11    12    1
    31    10     4    1
    32     5     4    1
    33     5     6    1
    34     4     3    2
    35     7     6    1
    36     6     1    2
    37     3     2    1
    38    12    13    1
    39     1     2    1
