@<TRIPOS>MOLECULE
2b4z_HEM_A_1.pdb
 43 50 0 0 0
SMALL
GASTEIGER

@<TRIPOS>ATOM
      1 FE         -2.9840   10.5000  -12.4940 Fe    500  HEM500      0.0000
      2  CHA       -5.0820    8.5500  -10.6680 C.2   500  HEM500      0.0000
      3  CHB       -0.6900    8.0500  -12.4220 C.2   500  HEM500      0.0000
      4  CHC       -0.9860   12.3790  -14.5120 C.2   500  HEM500      0.0000
      5  CHD       -5.2970   12.9440  -12.5920 C.2   500  HEM500      0.0000
      6  NA        -2.8550    8.6770  -11.7020 N.2   500  HEM500      0.0000
      7  C1A       -3.8450    8.0050  -10.9690 C.2   500  HEM500      0.0000
      8  C2A       -3.4350    6.7150  -10.5810 C.2   500  HEM500      0.0000
      9  C3A       -2.1900    6.5780  -11.0650 C.2   500  HEM500      0.0000
     10  C4A       -1.8180    7.7900  -11.7690 C.2   500  HEM500      0.0000
     11  CMA       -1.2730    5.3510  -10.9390 C.3   500  HEM500      0.0000
     12  CAA       -4.2130    5.6800   -9.7970 C.3   500  HEM500      0.0000
     13  CBA       -4.0130    5.8300   -8.3210 C.3   500  HEM500      0.0000
     14  CGA       -4.7560    4.8360   -7.4330 C.2   500  HEM500      0.0000
     15  O1A       -5.5190    3.9640   -7.9420 O.co2 500  HEM500      0.0000
     16  O2A       -4.5860    4.9310   -6.2580 O.co2 500  HEM500      0.0000
     17  NB        -1.1860   10.2380  -13.2840 N.ar  500  HEM500      0.0000
     18  C1B       -0.3580    9.1930  -13.1690 C.ar  500  HEM500      0.0000
     19  C2B        0.8720    9.3540  -13.8950 C.ar  500  HEM500      0.0000
     20  C3B        0.7170   10.6410  -14.5350 C.ar  500  HEM500      0.0000
     21  C4B       -0.5020   11.1400  -14.1200 C.ar  500  HEM500      0.0000
     22  CMB        2.0000    8.3810  -13.9740 C.3   500  HEM500      0.0000
     23  CAB        1.6500   11.2340  -15.4200 C.2   500  HEM500      0.0000
     24  CBB        2.0060   10.6820  -16.5850 C.2   500  HEM500      0.0000
     25  NC        -3.1340   12.3070  -13.3430 N.2   500  HEM500      0.0000
     26  C1C       -2.1880   12.9050  -14.1450 C.2   500  HEM500      0.0000
     27  C2C       -2.6380   14.2250  -14.5990 C.2   500  HEM500      0.0000
     28  C3C       -3.9220   14.4280  -14.0490 C.2   500  HEM500      0.0000
     29  C4C       -4.1610   13.1630  -13.2640 C.2   500  HEM500      0.0000
     30  CMC       -1.8440   15.1710  -15.5090 C.3   500  HEM500      0.0000
     31  CAC       -4.7600   15.5020  -14.1970 C.2   500  HEM500      0.0000
     32  CBC       -5.1300   16.3720  -15.0880 C.2   500  HEM500      0.0000
     33  ND        -4.8270   10.7140  -11.7490 N.ar  500  HEM500      0.0000
     34  C1D       -5.6120   11.7980  -11.8930 C.ar  500  HEM500      0.0000
     35  C2D       -6.9220   11.6140  -11.2150 C.ar  500  HEM500      0.0000
     36  C3D       -6.8680   10.3490  -10.6880 C.ar  500  HEM500      0.0000
     37  C4D       -5.5350    9.7980  -11.0190 C.ar  500  HEM500      0.0000
     38  CMD       -8.0340   12.6610  -11.1980 C.3   500  HEM500      0.0000
     39  CAD       -7.9890    9.6700   -9.9420 C.3   500  HEM500      0.0000
     40  CBD       -8.9090    9.1480  -11.0480 C.3   500  HEM500      0.0000
     41  CGD      -10.1560    8.4390  -10.7060 C.2   500  HEM500      0.0000
     42  O1D      -10.8270    7.9200  -11.6540 O.co2 500  HEM500      0.0000
     43  O2D      -10.5560    8.3770   -9.5400 O.co2 500  HEM500      0.0000
@<TRIPOS>BOND
     1    24    23    2
     2    30    27    1
     3    23    20    1
     4    32    31    2
     5    27    26    1
     6    27    28    2
     7    20    21   ar
     8    20    19   ar
     9     4    26    2
    10     4    21    1
    11    31    28    1
    12    26    25    1
    13    21    17   ar
    14    28    29    1
    15    22    19    1
    16    19    18   ar
    17    25    29    2
    18    25     1    1
    19    17    18   ar
    20    17     1    1
    21    29     5    1
    22    18     3    1
    23     5    34    2
    24     1    33    1
    25     1     6    1
    26     3    10    2
    27    34    33   ar
    28    34    35   ar
    29    10     6    1
    30    10     9    1
    31    33    37   ar
    32     6     7    2
    33    42    41   ar
    34    35    38    1
    35    35    36   ar
    36     9    11    1
    37     9     8    2
    38    40    41    1
    39    40    39    1
    40    37    36   ar
    41    37     2    2
    42     7     2    1
    43     7     8    1
    44    41    43   ar
    45    36    39    1
    46     8    12    1
    47    12    13    1
    48    13    14    1
    49    15    14   ar
    50    14    16   ar
