@<TRIPOS>MOLECULE
2b50_B7G_A_1.pdb
 19 19 0 0 0
SMALL
GASTEIGER

@<TRIPOS>ATOM
      1  C5        22.3430  -18.5500   22.1460 C.3   920  B7G920      0.1835
      2  O5        21.9880  -19.5460   21.1700 O.3   920  B7G920     -0.3256
      3  C1        22.7780  -20.7480   21.1140 C.3   920  B7G920      0.2695
      4  C2        24.2580  -20.4010   20.9390 C.3   920  B7G920      0.2406
      5  C3        24.7240  -19.4810   22.0710 C.3   920  B7G920      0.2198
      6  C4        23.8360  -18.2520   22.2240 C.3   920  B7G920      0.2144
      7  C6        21.6720  -17.2400   21.7720 C.3   920  B7G920      0.2142
      8  O1        22.3550  -21.5310   19.9960 O.3   920  B7G920     -0.3286
      9  C7        21.7870  -22.7790   20.3750 C.3   920  B7G920      0.1449
     10  C8        20.8580  -23.2770   19.2750 C.3   920  B7G920      0.0322
     11  C9        19.5260  -23.6550   19.9010 C.3   920  B7G920      0.0026
     12  C10       18.4750  -24.0070   18.8630 C.3   920  B7G920      0.0001
     13  C11       17.1450  -23.3670   19.2230 C.3   920  B7G920      0.0000
     14  C12       16.0090  -24.0250   18.4590 C.3   920  B7G920      0.0000
     15  O2        25.0460  -21.6020   20.9280 O.3   920  B7G920     -0.2149
     16  O3        26.0580  -19.0170   21.8190 O.3   920  B7G920     -0.2174
     17  O4        24.1170  -17.6300   23.4870 O.3   920  B7G920     -0.2176
     18  O6        20.2950  -17.3460   22.0930 O.3   920  B7G920     -0.2176
     19  C13       15.0360  -23.0040   17.9050 C.3   920  B7G920      0.0000
@<TRIPOS>BOND
     1    19    14    1
     2    14    13    1
     3    12    13    1
     4    12    11    1
     5    10    11    1
     6    10     9    1
     7     8     9    1
     8     8     3    1
     9    15     4    1
    10     4     3    1
    11     4     5    1
    12     3     2    1
    13     2     1    1
    14     7    18    1
    15     7     1    1
    16    16     5    1
    17     5     6    1
    18     1     6    1
    19     6    17    1
