@<TRIPOS>MOLECULE
2b50_VCA_A_1.pdb
 20 19 0 0 0
SMALL
GASTEIGER

@<TRIPOS>ATOM
      1  O2        18.3680   -5.0100   35.6600 O.co2 1001  VCA1001    -0.2457
      2  C1        19.2120   -4.2890   36.2250 C.2   1001  VCA1001     0.3649
      3  O1        20.2180   -3.8300   35.6740 O.co2 1001  VCA1001    -0.2457
      4  C2        18.9960   -3.9540   37.7190 C.3   1001  VCA1001     0.1141
      5  C3        19.5240   -2.5660   38.1190 C.3   1001  VCA1001     0.0118
      6  C4        18.6490   -1.4670   37.5260 C.3   1001  VCA1001     0.0006
      7  C5        18.9130   -0.1120   38.1740 C.3   1001  VCA1001     0.0000
      8  C6        18.2100    0.9720   37.3660 C.3   1001  VCA1001     0.0000
      9  C7        16.7220    0.9960   37.6950 C.3   1001  VCA1001     0.0000
     10  C8        15.8630    0.9450   36.4280 C.3   1001  VCA1001     0.0003
     11  C9        14.4090    0.5470   36.7380 C.3   1001  VCA1001     0.0047
     12  C10       13.7110    1.5580   37.6570 C.3   1001  VCA1001     0.0257
     13  C11       12.6680    0.9550   38.3630 C.2   1001  VCA1001    -0.0307
     14  C12       12.6050    0.9060   39.7600 C.2   1001  VCA1001    -0.0307
     15  C13       13.5890    1.4520   40.5850 C.3   1001  VCA1001     0.0257
     16  C14       13.0430    1.8280   41.9640 C.3   1001  VCA1001     0.0047
     17  C15       12.8280    0.5820   42.8260 C.3   1001  VCA1001     0.0003
     18  C16       11.9980    0.9010   44.0710 C.3   1001  VCA1001     0.0000
     19  C17       12.8650    1.1350   45.3090 C.3   1001  VCA1001     0.0000
     20  C18       12.0030    1.1770   46.5670 C.3   1001  VCA1001     0.0000
@<TRIPOS>BOND
     1     1     2   ar
     2     3     2   ar
     3     2     4    1
     4    10    11    1
     5    10     9    1
     6    11    12    1
     7     8     9    1
     8     8     7    1
     9     6     5    1
    10     6     7    1
    11    12    13    1
    12     4     5    1
    13    13    14    2
    14    14    15    1
    15    15    16    1
    16    16    17    1
    17    17    18    1
    18    18    19    1
    19    19    20    1
