@<TRIPOS>MOLECULE
2b52_D42_A_1.pdb
 31 35 0 0 0
SMALL
GASTEIGER

@<TRIPOS>ATOM
      1  C1        75.6190   64.7320   14.8060 C.3   299  D42299      0.0915
      2  C2        76.3040   63.4150   15.1330 C.3   299  D42299      0.1113
      3  N3        77.7720   63.5740   15.2490 N.3   299  D42299     -0.1802
      4  C4        78.3910   64.1570   14.0390 C.3   299  D42299      0.1113
      5  C5        77.7060   65.4640   13.6240 C.3   299  D42299      0.0915
      6  N6        76.2200   65.3620   13.6070 N.3   299  D42299     -0.2690
      7  C15       75.4370   66.5040   13.1310 C.3   299  D42299      0.0897
      8  N19       78.4260   62.6350   16.2350 N.am  299  D42299     -0.1087
      9  C20       78.6650   61.3390   16.0070 C.2   299  D42299      0.3588
     10  N21       79.4940   60.9990   15.0190 N.am  299  D42299     -0.1598
     11  C22       80.0790   59.7270   14.7950 C.ar  299  D42299      0.0778
     12  C23       79.8030   58.5000   15.5770 C.ar  299  D42299      0.0167
     13  C24       80.5270   57.2710   15.2030 C.ar  299  D42299      0.0014
     14  C25       81.4990   57.2740   14.0910 C.ar  299  D42299      0.0014
     15  C26       81.7490   58.5080   13.3400 C.ar  299  D42299      0.0201
     16  C27       81.0380   59.7460   13.6750 C.ar  299  D42299      0.0520
     17  C31       82.5440   58.8350   12.1750 C.2   299  D42299      0.0930
     18  C32       82.3160   60.2160   11.8070 C.3   299  D42299      0.1425
     19  C33       81.3720   60.8130   12.7420 C.2   299  D42299      0.1850
     20  N34       83.4000   58.1540   11.2830 N.2   299  D42299     -0.1521
     21  N35       83.7040   59.2640   10.2960 N.2   299  D42299     -0.1550
     22  C36       83.0550   60.4840   10.5850 C.2   299  D42299      0.0874
     23  C37       83.0830   61.5800    9.6250 C.3   299  D42299      0.1400
     24  S38       81.6960   62.7390    9.4520 S.3   299  D42299     -0.0750
     25  C39       82.5480   63.5920    8.0860 C.2   299  D42299      0.1347
     26  N40       83.8100   63.0100    7.7980 N.2   299  D42299     -0.4074
     27  C41       84.1070   61.9050    8.6340 C.2   299  D42299      0.1027
     28  C42       85.4030   61.1880    8.3990 C.3   299  D42299      0.0628
     29  C46       81.9750   64.7820    7.3280 C.3   299  D42299      0.0735
     30  O47       78.1330   60.4710   16.7090 O.2   299  D42299     -0.2474
     31  O50       80.8540   61.9310   12.7390 O.2   299  D42299     -0.2905
@<TRIPOS>BOND
     1    29    25    1
     2    26    25    2
     3    26    27    2
     4    25    24    1
     5    28    27    1
     6    27    23    1
     7    24    23    1
     8    23    22    1
     9    21    22    2
    10    21    20    1
    11    22    18    1
    12    20    17    2
    13    18    17    1
    14    18    19    1
    15    17    15    1
    16    31    19    2
    17    19    16    1
    18     7     6    1
    19    15    16   ar
    20    15    14   ar
    21     6     5    1
    22     6     1    1
    23     5     4    1
    24    16    11   ar
    25     4     3    1
    26    14    13   ar
    27    11    10    1
    28    11    12   ar
    29     1     2    1
    30    10     9   am
    31     2     3    1
    32    13    12   ar
    33     3     8    1
    34     9     8   am
    35     9    30    2
