@<TRIPOS>MOLECULE
2b53_D23_A_1.pdb
 26 28 0 0 0
SMALL
GASTEIGER

@<TRIPOS>ATOM
      1  C1        82.4300   65.0130   59.3270 C.ar  299  D23299      0.0144
      2  C2        83.3220   65.2760   60.4460 C.ar  299  D23299      0.0888
      3  C3        83.5370   66.5950   61.0380 C.ar  299  D23299      0.0180
      4  C4        82.8550   67.7220   60.4330 C.ar  299  D23299      0.0011
      5  C5        81.9850   67.4520   59.2960 C.ar  299  D23299     -0.0035
      6  C6        81.7040   66.1150   58.7130 C.ar  299  D23299     -0.0130
      7  N7        84.0230   64.1860   60.9370 N.pl3 299  D23299     -0.1281
      8  C8        80.7080   65.8880   57.5900 C.3   299  D23299      0.0664
      9  C9        79.4870   66.7300   57.5590 C.2   299  D23299     -0.0150
     10  C10       78.5350   66.6590   56.4760 C.2   299  D23299      0.0292
     11  C11       78.7520   65.7190   55.3740 C.2   299  D23299      0.1469
     12  C12       79.9610   64.8020   55.3300 C.2   299  D23299      0.0731
     13  C13       80.9060   64.9230   56.4510 C.2   299  D23299     -0.0111
     14  N14       77.8500   65.6320   54.3280 N.2   299  D23299     -0.3370
     15  C15       77.9960   64.7770   53.2800 C.1   299  D23299      0.2125
     16  N16       79.0650   63.9280   53.1600 N.2   299  D23299     -0.3202
     17  C17       80.0260   63.9220   54.1480 C.2   299  D23299      0.2136
     18  N18       80.9900   62.9060   53.8270 N.pl3 299  D23299     -0.2124
     19  C19       81.2110   61.7530   52.9140 C.3   299  D23299      0.0785
     20  C20       80.0050   60.7700   53.0640 C.3   299  D23299      0.0217
     21  C21       81.2260   62.2460   51.4510 C.3   299  D23299      0.0217
     22  C22       82.5690   61.1050   53.2740 C.3   299  D23299      0.0217
     23  C23       76.8960   64.7290   52.2720 C.3   299  D23299      0.5000
     24  F24       76.6800   63.4730   51.9710 F     299  D23299     -0.1558
     25  F25       75.8050   65.3020   52.7650 F     299  D23299     -0.1558
     26  F26       77.3410   65.3750   51.2510 F     299  D23299     -0.1558
@<TRIPOS>BOND
     1    26    23    1
     2    21    19    1
     3    24    23    1
     4    23    25    1
     5    23    15    1
     6    19    20    1
     7    19    22    1
     8    19    18    1
     9    16    15    2
    10    16    17    2
    11    15    14    2
    12    18    17    1
    13    17    12    1
    14    14    11    2
    15    12    11    1
    16    12    13    2
    17    11    10    1
    18    13     8    1
    19    10     9    2
    20     9     8    1
    21     8     6    1
    22     6     5   ar
    23     6     1   ar
    24     5     4   ar
    25     1     2   ar
    26     4     3   ar
    27     2     7    1
    28     2     3   ar
