@<TRIPOS>MOLECULE
2b54_D05_A_1.pdb
 30 33 0 0 0
SMALL
GASTEIGER

@<TRIPOS>ATOM
      1  N8       120.4880  -84.9370   91.8640 N.2   300  D05300     -0.2737
      2  C7       119.8170  -83.7510   91.7590 C.1   300  D05300      0.1312
      3  N6       119.0250  -83.2370   92.7230 N.2   300  D05300     -0.3285
      4  C5       118.9100  -83.9470   93.8720 C.2   300  D05300      0.2168
      5  C4       119.5950  -85.1780   94.0530 C.3   300  D05300      0.2252
      6  C9       120.3910  -85.6520   93.0220 C.1   300  D05300      0.2028
      7  N1       118.1280  -83.6850   94.9940 N.pl3 300  D05300     -0.1630
      8  N2       118.3150  -84.6860   95.9240 N.2   300  D05300     -0.1790
      9  C3       119.1800  -85.5810   95.3970 C.2   300  D05300      0.0791
     10  O9       120.9500  -86.7440   93.1570 O.2   300  D05300     -0.2126
     11  C11      117.1590  -82.6290   95.1030 C.ar  300  D05300      0.0973
     12  C16      115.8170  -82.9780   95.0730 C.ar  300  D05300      0.0748
     13  C12      117.4390  -81.2680   95.3240 C.ar  300  D05300      0.0748
     14  C15      114.7870  -82.0250   95.2710 C.ar  300  D05300      0.0242
     15  C13      116.4300  -80.3100   95.5160 C.ar  300  D05300      0.0242
     16  C14      115.0850  -80.6670   95.5030 C.ar  300  D05300      0.0594
     17 CL14      113.8350  -79.4270   95.8390 Cl    300  D05300     -0.0822
     18  C1       119.4830  -86.8030   96.2130 C.3   300  D05300      0.0446
     19  C2       118.5470  -87.9520   95.8440 C.3   300  D05300      0.0064
     20  C20      119.8960  -82.9560   90.4600 C.3   300  D05300      0.1521
     21 CL16      115.4420  -84.6380   94.6820 Cl    300  D05300     -0.0808
     22 CL12      119.0390  -80.6500   95.3620 Cl    300  D05300     -0.0808
     23  C21      121.1780  -82.1590   90.2770 C.ar  300  D05300     -0.0018
     24  C22      121.2510  -80.7890   90.6320 C.ar  300  D05300      0.0422
     25  C23      122.4970  -80.1090   90.5020 C.ar  300  D05300      0.2340
     26  C24      123.6280  -80.7940   90.0260 C.ar  300  D05300      0.2342
     27  C25      123.5380  -82.1500   89.6390 C.ar  300  D05300      0.0451
     28  C26      122.3090  -82.8190   89.7670 C.ar  300  D05300      0.0003
     29  O23      122.6550  -78.7760   90.8720 O.3   300  D05300     -0.2832
     30  O24      124.8550  -80.1440   89.9950 O.3   300  D05300     -0.2831
@<TRIPOS>BOND
     1    27    28   ar
     2    27    26   ar
     3    28    23   ar
     4    30    26    1
     5    26    25   ar
     6    23    20    1
     7    23    24   ar
     8    20     2    1
     9    25    24   ar
    10    25    29    1
    11     2     1    2
    12     2     3    2
    13     1     6    2
    14     3     4    2
    15     6    10    2
    16     6     5    1
    17     4     5    1
    18     4     7    1
    19     5     9    1
    20    21    12    1
    21     7    11    1
    22     7     8    1
    23    12    11   ar
    24    12    14   ar
    25    11    13   ar
    26    14    16   ar
    27    13    22    1
    28    13    15   ar
    29     9     8    2
    30     9    18    1
    31    16    15   ar
    32    16    17    1
    33    19    18    1
