@<TRIPOS>MOLECULE
2b55_D31_A_1.pdb
 31 35 0 0 0
SMALL
GASTEIGER

@<TRIPOS>ATOM
      1  N1        29.0940    7.5150   10.4310 N.3   299  D31299     -0.1314
      2  C2        28.5320    7.1900   11.7590 C.3   299  D31299      0.1094
      3  C3        29.5590    6.5260   12.6850 C.3   299  D31299      0.0218
      4  C6        28.9150    6.1700   14.0290 C.3   299  D31299      0.0189
      5  C7        28.5540    7.3900   14.8760 C.3   299  D31299      0.0726
      6  N8        29.7120    8.2970   15.0290 N.3   299  D31299     -0.2650
      7  C9        30.3730    8.7020   13.7720 C.3   299  D31299      0.0726
      8  C10       30.7340    7.4800   12.9320 C.3   299  D31299      0.0189
      9  C20       29.9930    8.9990   16.2910 C.3   299  D31299      0.1606
     10  C21       29.5990   10.4670   16.2590 C.2   299  D31299      0.2619
     11  N24       28.7400   10.8700   15.3220 N.am  299  D31299     -0.1779
     12  C25       28.1710   12.1580   15.1560 C.ar  299  D31299      0.0762
     13  C26       28.4790   13.3430   15.9850 C.ar  299  D31299      0.0167
     14  C27       27.8610   14.6350   15.6430 C.ar  299  D31299      0.0014
     15  C28       26.9420   14.7280   14.4930 C.ar  299  D31299      0.0014
     16  C29       26.6440   13.5430   13.6800 C.ar  299  D31299      0.0201
     17  C30       27.2550   12.2490   14.0050 C.ar  299  D31299      0.0520
     18  C31       25.8850   13.3310   12.4660 C.2   299  D31299      0.0929
     19  C32       26.0540   11.9570   12.0580 C.3   299  D31299      0.1412
     20  C33       26.8850   11.2530   13.0140 C.2   299  D31299      0.1849
     21  N34       24.7720   13.0240   10.4910 N.2   299  D31299     -0.1562
     22  C35       25.3550   11.7750   10.8020 C.2   299  D31299      0.0706
     23  C36       25.2020   10.5260    9.9530 C.3   299  D31299      0.0387
     24  C37       24.1450   10.5800    8.8460 C.3   299  D31299      0.0057
     25  C38       23.9080    9.2260    8.1800 C.3   299  D31299      0.0004
     26  C39       25.2220    8.6290    7.6830 C.3   299  D31299      0.0000
     27  C40       26.2400    8.4840    8.8260 C.3   299  D31299      0.0004
     28  C41       26.4920    9.8370    9.5020 C.3   299  D31299      0.0057
     29  O53       30.0260   11.2660   17.0910 O.2   299  D31299     -0.2715
     30  O54       27.1960   10.0670   13.0090 O.2   299  D31299     -0.2905
     31  N55       25.1060   14.0640   11.5440 N.2   299  D31299     -0.1522
@<TRIPOS>BOND
     1    26    25    1
     2    26    27    1
     3    25    24    1
     4    27    28    1
     5    24    23    1
     6    28    23    1
     7    23    22    1
     8     1     2    1
     9    21    22    2
    10    21    31    1
    11    22    19    1
    12    31    18    2
    13     2     3    1
    14    19    18    1
    15    19    20    1
    16    18    16    1
    17     3     8    1
    18     3     4    1
    19     8     7    1
    20    30    20    2
    21    20    17    1
    22    16    17   ar
    23    16    15   ar
    24     7     6    1
    25    17    12   ar
    26     4     5    1
    27    15    14   ar
    28     5     6    1
    29     6     9    1
    30    12    11    1
    31    12    13   ar
    32    11    10   am
    33    14    13   ar
    34    10     9    1
    35    10    29    2
