@<TRIPOS>MOLECULE
2b58_COA_A_1.pdb
 48 50 0 0 0
SMALL
GASTEIGER

@<TRIPOS>ATOM
      1  N1A       32.5880   56.9950   49.1760 N.2   172  COA172      0.0021
      2  C2A       32.3050   57.0530   47.8640 C.3   172  COA172      0.5254
      3  N3A       31.1160   56.6870   47.2710 N.2   172  COA172     -0.0055
      4  C4A       30.1630   56.2240   48.1900 C.2   172  COA172      0.3518
      5  C5A       30.3850   56.1370   49.5500 C.2   172  COA172      0.2526
      6  C6A       31.6900   56.5530   50.0720 C.2   172  COA172      0.4393
      7  N6A       31.9810   56.4940   51.3860 N.pl3 172  COA172      0.2180
      8  N7A       29.2550   55.6400   50.1800 N.2   172  COA172     -0.2095
      9  C8A       28.4110   55.4550   49.2260 C.3   172  COA172      0.3377
     10  N9A       28.8560   55.7820   47.9720 N.pl3 172  COA172     -0.1439
     11  C1B       28.1250   55.7770   46.5170 C.3   172  COA172      0.3185
     12  C2B       27.6020   54.4330   45.9510 C.3   172  COA172      0.2543
     13  O2B       27.8740   54.4350   44.5670 O.3   172  COA172     -0.2131
     14  C3B       25.9890   54.3620   46.3180 C.3   172  COA172      0.1928
     15  O3B       25.6620   54.4930   44.8720 O.3   172  COA172     -0.2673
     16  P3B       24.8930   53.2370   44.3260 P.3   172  COA172      0.5327
     17  O7A       24.6160   51.9410   45.0200 O.3   172  COA172     -0.1145
     18  O8A       25.1400   53.0810   42.8740 O.2   172  COA172     -0.2224
     19  O9A       23.6100   54.1470   44.4470 O.3   172  COA172     -0.1145
     20  C4B       26.0170   55.6520   47.0330 C.3   172  COA172      0.1795
     21  O4B       27.2300   56.4130   47.1950 O.3   172  COA172     -0.3136
     22  C5B       24.7840   55.7520   47.8170 C.3   172  COA172      0.1812
     23  O5B       25.4880   56.6690   48.6080 O.3   172  COA172     -0.3112
     24  P1A       24.9170   57.1980   49.9790 P.3   172  COA172      0.2189
     25  O1A       26.0470   58.0860   50.1320 O.2   172  COA172     -0.5170
     26  O2A       24.6850   56.1060   51.0340 O.3   172  COA172     -0.4371
     27  O3A       23.7710   58.2100   49.4790 O.3   172  COA172     -0.2703
     28  P2A       23.1440   59.4670   50.0730 P.3   172  COA172      0.2188
     29  O4A       23.5540   60.2910   48.9330 O.2   172  COA172     -0.5170
     30  O5A       23.7010   59.8500   51.3760 O.3   172  COA172     -0.4371
     31  O6A       21.5980   59.2750   50.1550 O.3   172  COA172     -0.3138
     32  CBP       20.0490   59.6040   48.4690 C.3   172  COA172      0.0645
     33  CCP       20.4290   59.9560   49.9480 C.3   172  COA172      0.1519
     34  CDP       21.0760   58.5200   47.8750 C.3   172  COA172      0.0056
     35  CEP       18.6030   59.0690   48.5410 C.3   172  COA172      0.0056
     36  CAP       20.3350   61.0390   47.7470 C.3   172  COA172      0.2312
     37  OAP       20.1910   60.8790   46.2790 O.3   172  COA172     -0.2131
     38  C9P       19.3190   62.2610   47.9790 C.2   172  COA172      0.2719
     39  O9P       18.8280   62.9690   48.8400 O.2   172  COA172     -0.2706
     40  N8P       19.0030   62.3900   46.6340 N.am  172  COA172     -0.2028
     41  C7P       18.0430   63.3820   46.0930 C.3   172  COA172      0.1248
     42  C6P       16.5870   63.1810   46.6160 C.3   172  COA172      0.1102
     43  C5P       16.0420   61.8250   46.2750 C.2   172  COA172      0.2432
     44  O5P       16.2300   61.3180   45.1360 O.2   172  COA172     -0.2733
     45  N4P       15.3550   61.1390   47.1800 N.am  172  COA172     -0.2044
     46  C3P       14.7170   59.8130   47.1220 C.3   172  COA172      0.1276
     47  C2P       13.3520   60.0160   46.4000 C.3   172  COA172      0.0920
     48  S1P       12.3270   61.5700   46.0390 S.3   172  COA172     -0.0802
@<TRIPOS>BOND
     1    18    16    2
     2    16    19    1
     3    16    15    1
     4    16    17    1
     5    13    12    1
     6    15    14    1
     7    44    43    2
     8    12    14    1
     9    12    11    1
    10    48    47    1
    11    41    42    1
    12    41    40    1
    13    43    42    1
    14    43    45   am
    15    37    36    1
    16    14    20    1
    17    47    46    1
    18    11    21    1
    19    11    10    1
    20    40    38   am
    21    20    21    1
    22    20    22    1
    23    46    45    1
    24     3     2    1
    25     3     4    2
    26    36    38    1
    27    36    32    1
    28    22    23    1
    29     2     1    1
    30    34    32    1
    31    10     4    1
    32    10     9    1
    33    38    39    2
    34     4     5    1
    35    32    35    1
    36    32    33    1
    37    23    24    1
    38    29    28    2
    39     1     6    2
    40     9     8    1
    41    27    24    1
    42    27    28    1
    43     5     6    1
    44     5     8    2
    45    33    31    1
    46    24    25    2
    47    24    26    1
    48     6     7    1
    49    28    31    1
    50    28    30    1
