@<TRIPOS>MOLECULE
2b5j_3AC_A_1.pdb
 22 23 0 0 0
SMALL
GASTEIGER

@<TRIPOS>ATOM
      1  O11      143.9380  -26.8740   74.2660 O.3   562  3AC562     -0.4562
      2  C11      142.9420  -26.9140   73.2820 C.2   562  3AC562      0.1459
      3  C12      143.1970  -26.3650   72.0000 C.2   562  3AC562      0.1546
      4  I12      144.9900  -25.5300   71.5430 I     562  3AC562     -0.0258
      5  C13      142.2060  -26.4060   71.0180 C.1   562  3AC562      0.2123
      6  O13      142.4540  -25.8640   69.7600 O.2   562  3AC562     -0.2088
      7  N14      141.0010  -26.9680   71.2860 N.2   562  3AC562     -0.3409
      8  C15      140.6990  -27.5170   72.5000 C.2   562  3AC562      0.1068
      9  C51      139.3210  -28.1240   72.6840 C.3   562  3AC562      0.0629
     10  C16      141.6590  -27.5070   73.5590 C.3   562  3AC562      0.1075
     11  C61      141.3260  -28.1240   74.9490 C.3   562  3AC562      0.0143
     12  C62      142.1940  -29.3710   75.2500 C.3   562  3AC562      0.0009
     13  C21      143.9300  -25.9070   75.3140 C.ar  562  3AC562      0.1446
     14  C22      142.9310  -24.8830   75.4700 C.ar  562  3AC562      0.0375
     15  C23      143.0000  -23.9680   76.5600 C.ar  562  3AC562      0.0028
     16  C24      144.0660  -24.0720   77.5080 C.ar  562  3AC562     -0.0040
     17  C25      145.0610  -25.0890   77.3550 C.ar  562  3AC562     -0.0181
     18  C26      144.9820  -25.9880   76.2660 C.ar  562  3AC562      0.0332
     19  C27      146.2160  -25.2190   78.3500 C.3   562  3AC562      0.0426
     20  C28      145.8820  -26.1070   79.5040 C.3   562  3AC562      0.1101
     21  N29      147.1000  -25.7440   81.7860 N.1   562  3AC562     -0.1959
     22  C29      146.5620  -25.9040   80.7650 C.1   562  3AC562      0.0735
@<TRIPOS>BOND
     1     6     5    2
     2     5     7    2
     3     5     3    1
     4     7     8    2
     5     4     3    1
     6     3     2    2
     7     8     9    1
     8     8    10    1
     9     2    10    1
    10     2     1    1
    11    10    11    1
    12     1    13    1
    13    11    12    1
    14    13    14   ar
    15    13    18   ar
    16    14    15   ar
    17    18    17   ar
    18    15    16   ar
    19    17    16   ar
    20    17    19    1
    21    19    20    1
    22    20    22    1
    23    22    21    3
