@<TRIPOS>MOLECULE
2b5t_GU2_I_1.pdb
 14 14 0 0 0
SMALL
GASTEIGER

@<TRIPOS>ATOM
      1  O1         9.3430    1.7930   39.0840 O.3   447  GU2447     -0.1871
      2  C1        10.1970    2.4860   38.1610 C.3   447  GU2447      0.2992
      3  C2        10.7750    1.5080   37.1460 C.3   447  GU2447      0.2012
      4  O2        11.8690    0.7640   37.7040 O.3   447  GU2447     -0.3458
      5  C7        11.3910   -0.4100   38.3690 C.3   447  GU2447      0.1743
      6  C3        11.2640    2.3000   35.9410 C.3   447  GU2447      0.1505
      7  O3        11.9800    1.4640   35.0130 O.3   447  GU2447     -0.3508
      8  C8        11.1880    0.4210   34.4320 C.3   447  GU2447      0.1741
      9  O5         9.4980    3.5670   37.5190 O.3   447  GU2447     -0.3174
     10  C5         8.9610    3.1970   36.2390 C.3   447  GU2447      0.2227
     11  C6         8.0370    4.3210   35.7700 C.2   447  GU2447      0.3915
     12  O49        8.1480    5.4400   36.2680 O.co2 447  GU2447     -0.2430
     13  O48        7.1970    4.1080   34.8960 O.co2 447  GU2447     -0.2430
     14  C4        10.1140    3.0310   35.2580 C.3   447  GU2447      0.0736
@<TRIPOS>BOND
     1     8     7    1
     2    13    11   ar
     3     7     6    1
     4    14     6    1
     5    14    10    1
     6    11    10    1
     7    11    12   ar
     8     6     3    1
     9    10     9    1
    10     3     4    1
    11     3     2    1
    12     9     2    1
    13     4     5    1
    14     2     1    1
