@<TRIPOS>MOLECULE
2b5t_GU1_I_1.pdb
 14 14 0 0 0
SMALL
GASTEIGER

@<TRIPOS>ATOM
      1  O1         8.6240    6.7440   31.7560 O.3   445  GU1445     -0.1871
      2  C1         8.4500    7.1480   30.3880 C.3   445  GU1445      0.2992
      3  C2         6.9630    7.2270   30.0660 C.3   445  GU1445      0.2012
      4  O2         6.3330    5.9400   30.1740 O.3   445  GU1445     -0.3458
      5  C7         6.0480    5.6080   31.5370 C.3   445  GU1445      0.1743
      6  C3         6.7680    7.7330   28.6450 C.3   445  GU1445      0.1505
      7  O3         5.3720    7.9270   28.3740 O.3   445  GU1445     -0.3508
      8  C8         4.7380    6.6960   28.0160 C.3   445  GU1445      0.1741
      9  O5         9.0700    8.4320   30.1990 O.3   445  GU1445     -0.3174
     10  C5         8.9390    8.9400   28.8600 C.3   445  GU1445      0.2227
     11  C6         9.5600   10.3380   28.8160 C.2   445  GU1445      0.3915
     12  O38       10.5090   10.5740   28.0710 O.co2 445  GU1445     -0.2430
     13  O37        9.1030   11.2340   29.5250 O.co2 445  GU1445     -0.2430
     14  C4         7.4780    9.0650   28.4500 C.3   445  GU1445      0.0736
@<TRIPOS>BOND
     1     8     7    1
     2    12    11   ar
     3     7     6    1
     4    14     6    1
     5    14    10    1
     6     6     3    1
     7    11    10    1
     8    11    13   ar
     9    10     9    1
    10     3     4    1
    11     3     2    1
    12     4     5    1
    13     9     2    1
    14     2     1    1
