@<TRIPOS>MOLECULE
2b5t_GU3_I_1.pdb
 21 21 0 0 0
SMALL
GASTEIGER

@<TRIPOS>ATOM
      1  O50       13.3840    3.8050   42.4280 O.3   448  GU3448     -0.2682
      2  S6        12.7010    4.1770   41.1450 S.3   448  GU3448     -0.0001
      3  O51       12.7810    5.6620   40.9560 O.2   448  GU3448     -0.3452
      4  O52       13.3810    3.4960   39.9940 O.2   448  GU3448     -0.3452
      5  O6        11.3280    3.7820   41.2050 O.3   448  GU3448     -0.2385
      6  C6        10.9660    2.4160   41.4190 C.3   448  GU3448      0.2020
      7  C5         9.4440    2.2720   41.4580 C.3   448  GU3448      0.1523
      8  O5         8.9410    3.1360   42.4920 O.3   448  GU3448     -0.3283
      9  C1         7.5110    3.0760   42.6270 C.3   448  GU3448      0.2684
     10  O1         7.1180    1.7290   42.9310 O.3   448  GU3448     -0.3259
     11  C8         5.8050    1.6920   43.5010 C.3   448  GU3448      0.1769
     12  C2         6.8730    3.5500   41.3170 C.3   448  GU3448      0.2260
     13  O2         5.4480    3.4910   41.4330 O.3   448  GU3448     -0.2360
     14  S2         4.8970    4.7520   41.8310 S.3   448  GU3448      0.0000
     15  O54        5.0540    5.7340   40.7070 O.2   448  GU3448     -0.3452
     16  O55        5.6050    5.2810   43.0430 O.3   448  GU3448     -0.2682
     17  O53        3.4410    4.5830   42.1460 O.2   448  GU3448     -0.3452
     18  C3         7.3520    2.6610   40.1650 C.3   448  GU3448      0.1523
     19  O3         6.8370    3.1240   38.9070 O.3   448  GU3448     -0.3507
     20  C7         5.5240    2.6050   38.6760 C.3   448  GU3448      0.1741
     21  C4         8.8730    2.6830   40.1080 C.3   448  GU3448      0.0646
@<TRIPOS>BOND
     1    20    19    1
     2    19    18    1
     3     4     2    2
     4    21    18    1
     5    21     7    1
     6    18    12    1
     7    15    14    2
     8     3     2    2
     9     2     5    1
    10     2     1    1
    11     5     6    1
    12    12    13    1
    13    12     9    1
    14     6     7    1
    15    13    14    1
    16     7     8    1
    17    14    17    2
    18    14    16    1
    19     8     9    1
    20     9    10    1
    21    10    11    1
