@<TRIPOS>MOLECULE
2b5t_GU8_I_1.pdb
 14 14 0 0 0
SMALL
GASTEIGER

@<TRIPOS>ATOM
      1  C9         9.6930   12.3490   18.9780 C.3   443  GU8443      0.1742
      2  O6         9.9380   12.9360   20.2580 O.3   443  GU8443     -0.3485
      3  C6         8.9870   13.9840   20.4980 C.3   443  GU8443      0.1718
      4  C5         9.1950   14.5410   21.8970 C.3   443  GU8443      0.1499
      5  O5         9.0580   13.4650   22.8390 O.3   443  GU8443     -0.3265
      6  C1         9.0870   13.9420   24.1940 C.3   443  GU8443      0.2988
      7  O1         8.8700   12.8310   25.0680 O.3   443  GU8443     -0.1871
      8  C2        10.4390   14.5800   24.4800 C.3   443  GU8443      0.2012
      9  O2        10.4120   15.1730   25.7880 O.3   443  GU8443     -0.3458
     10  C7        11.3460   14.5100   26.6450 C.3   443  GU8443      0.1743
     11  C3        10.7000   15.6840   23.4630 C.3   443  GU8443      0.1500
     12  O3        11.9580   16.3320   23.7250 O.3   443  GU8443     -0.3508
     13  C8        13.0920   15.4710   23.5730 C.3   443  GU8443      0.1741
     14  C4        10.5720   15.1770   22.0310 C.3   443  GU8443      0.0645
@<TRIPOS>BOND
     1     1     2    1
     2     2     3    1
     3     3     4    1
     4     4    14    1
     5     4     5    1
     6    14    11    1
     7     5     6    1
     8    11    12    1
     9    11     8    1
    10    13    12    1
    11     6     8    1
    12     6     7    1
    13     8     9    1
    14     9    10    1
