@<TRIPOS>MOLECULE
2b5t_GU5_I_1.pdb
 17 17 0 0 0
SMALL
GASTEIGER

@<TRIPOS>ATOM
      1  O1        10.4150   31.0470   -2.1710 O.3   436  GU5436     -0.1871
      2  C1        10.3260   30.6280   -3.5420 C.3   436  GU5436      0.2988
      3  C2        10.9820   31.6910   -4.4110 C.3   436  GU5436      0.2012
      4  O2        12.3900   31.8110   -4.1440 O.3   436  GU5436     -0.3458
      5  C7        12.7040   32.3640   -2.8600 C.3   436  GU5436      0.1743
      6  C3        10.2220   32.9970   -4.2150 C.3   436  GU5436      0.1500
      7  O3        10.8150   34.0780   -4.9580 O.3   436  GU5436     -0.3508
      8  C8        10.9570   33.8180   -6.3590 C.3   436  GU5436      0.1741
      9  O5         8.9550   30.4720   -3.9520 O.3   436  GU5436     -0.3264
     10  C5         8.1800   31.6630   -3.7360 C.3   436  GU5436      0.1524
     11  C6         6.7300   31.4080   -4.1510 C.3   436  GU5436      0.2020
     12  O6         6.6490   31.0510   -5.5340 O.3   436  GU5436     -0.2385
     13  S6         5.3990   31.1080   -6.2260 S.3   436  GU5436     -0.0001
     14  O32        5.5180   30.3740   -7.5280 O.2   436  GU5436     -0.3452
     15  O33        5.0350   32.5390   -6.4920 O.2   436  GU5436     -0.3452
     16  O31        4.3260   30.4730   -5.3910 O.3   436  GU5436     -0.2682
     17  C4         8.7380   32.8420   -4.5240 C.3   436  GU5436      0.0646
@<TRIPOS>BOND
     1    14    13    2
     2    15    13    2
     3     8     7    1
     4    13    12    1
     5    13    16    1
     6    12    11    1
     7     7     6    1
     8    17     6    1
     9    17    10    1
    10     3     6    1
    11     3     4    1
    12     3     2    1
    13    11    10    1
    14     4     5    1
    15     9    10    1
    16     9     2    1
    17     2     1    1
