@<TRIPOS>MOLECULE
2b5t_GU4_I_1.pdb
 28 28 0 0 0
SMALL
GASTEIGER

@<TRIPOS>ATOM
      1  O1         5.7090   40.8850  -11.2800 O.3   433  GU4433     -0.1870
      2  C1         5.2170   42.0440  -11.9780 C.3   433  GU4433      0.3014
      3  O5         5.7640   43.2690  -11.4520 O.3   433  GU4433     -0.3237
      4  C5         7.1730   43.4660  -11.6700 C.3   433  GU4433      0.1818
      5  C6         7.5450   44.8180  -11.0560 C.3   433  GU4433      0.2046
      6  O6         6.7510   45.8700  -11.6090 O.3   433  GU4433     -0.2384
      7  S6         6.8130   47.2040  -11.0930 S.3   433  GU4433     -0.0001
      8  O22        5.9790   48.0920  -11.9650 O.2   433  GU4433     -0.3452
      9  O23        8.2320   47.6880  -11.0980 O.2   433  GU4433     -0.3452
     10  O21        6.2700   47.2300   -9.6950 O.3   433  GU4433     -0.2682
     11  C4         7.5620   43.4240  -13.1530 C.3   433  GU4433      0.2048
     12  O4         8.9940   43.4570  -13.2520 O.3   433  GU4433     -0.2384
     13  S4         9.5780   44.5810  -13.9300 S.3   433  GU4433     -0.0001
     14  O25        8.9370   44.7750  -15.2700 O.2   433  GU4433     -0.3452
     15  O26       11.0410   44.3300  -14.1360 O.2   433  GU4433     -0.3452
     16  O24        9.4200   45.8260  -13.1120 O.3   433  GU4433     -0.2682
     17  C3         7.0450   42.1070  -13.7470 C.3   433  GU4433      0.2095
     18  O3         7.2880   42.0460  -15.1590 O.3   433  GU4433     -0.2382
     19  S3         8.2780   41.1000  -15.5930 S.3   433  GU4433     -0.0001
     20  O28        8.2700   41.0760  -17.0930 O.2   433  GU4433     -0.3452
     21  O29        7.9810   39.7190  -15.0940 O.3   433  GU4433     -0.2682
     22  O27        9.6430   41.5110  -15.1310 O.2   433  GU4433     -0.3452
     23  C2         5.5440   41.9380  -13.4750 C.3   433  GU4433      0.2338
     24  O2         5.1050   40.6870  -14.0190 O.3   433  GU4433     -0.2357
     25  S2         3.6980   40.5740  -14.2810 S.3   433  GU4433      0.0000
     26  O11        3.2450   41.6070  -15.2670 O.2   433  GU4433     -0.3452
     27  O12        2.9000   40.7370  -13.0210 O.3   433  GU4433     -0.2682
     28  O10        3.4550   39.2120  -14.8550 O.2   433  GU4433     -0.3452
@<TRIPOS>BOND
     1    20    19    2
     2    19    18    1
     3    19    22    2
     4    19    21    1
     5    14    13    2
     6    26    25    2
     7    18    17    1
     8    28    25    2
     9    25    24    1
    10    25    27    1
    11    15    13    2
    12    24    23    1
    13    13    12    1
    14    13    16    1
    15    17    23    1
    16    17    11    1
    17    23     2    1
    18    12    11    1
    19    11     4    1
    20     2     3    1
    21     2     1    1
    22     8     7    2
    23     4     3    1
    24     4     5    1
    25     6     7    1
    26     6     5    1
    27     9     7    2
    28     7    10    1
