@<TRIPOS>MOLECULE
2b5t_GU6_I_1.pdb
 23 23 0 0 0
SMALL
GASTEIGER

@<TRIPOS>ATOM
      1  O1         5.6180   37.1750   -8.0290 O.3   434  GU6434     -0.1870
      2  C1         5.3140   38.5710   -8.1690 C.3   434  GU6434      0.3013
      3  C2         4.4350   38.7330   -9.4130 C.3   434  GU6434      0.2313
      4  O2         4.5950   37.8740  -10.4590 O.3   434  GU6434     -0.2358
      5  S2         3.4720   37.1670  -10.9980 S.3   434  GU6434      0.0000
      6  O14        2.3200   38.0750  -11.3120 O.2   434  GU6434     -0.3452
      7  O15        3.0330   36.1000  -10.0410 O.3   434  GU6434     -0.2682
      8  O13        3.9330   36.5110  -12.2650 O.2   434  GU6434     -0.3452
      9  C3         4.1460   40.0890   -9.5440 C.3   434  GU6434      0.1802
     10  O3         3.3680   40.6800   -8.5950 O.3   434  GU6434     -0.2409
     11  S3         2.3730   41.6390   -8.9670 S.3   434  GU6434     -0.0001
     12  O17        1.1000   40.8900   -9.2280 O.2   434  GU6434     -0.3452
     13  O18        2.7640   42.4140  -10.1910 O.2   434  GU6434     -0.3452
     14  O16        2.1710   42.5790   -7.8190 O.3   434  GU6434     -0.2682
     15  O5         6.4930   39.3830   -8.3750 O.3   434  GU6434     -0.3263
     16  C5         6.3110   40.5850   -9.0020 C.3   434  GU6434      0.1525
     17  C6         7.1440   41.7780   -8.5370 C.3   434  GU6434      0.2020
     18  O6         8.5080   41.4490   -8.7730 O.3   434  GU6434     -0.2385
     19  S6         9.5610   42.3350   -8.4010 S.3   434  GU6434     -0.0001
     20  O20       10.5740   41.5380   -7.6330 O.2   434  GU6434     -0.3452
     21  O21        9.0570   43.4560   -7.5410 O.3   434  GU6434     -0.2682
     22  O19       10.1790   42.8790   -9.6560 O.2   434  GU6434     -0.3452
     23  C4         5.3320   40.6660   -9.9870 C.3   434  GU6434      0.0671
@<TRIPOS>BOND
     1     8     5    2
     2     6     5    2
     3     5     4    1
     4     5     7    1
     5     4     3    1
     6    13    11    2
     7    23     9    1
     8    23    16    1
     9    22    19    2
    10     9     3    1
    11     9    10    1
    12     3     2    1
    13    12    11    2
    14    16    17    1
    15    16    15    1
    16    11    10    1
    17    11    14    1
    18    18    17    1
    19    18    19    1
    20    19    20    2
    21    19    21    1
    22    15     2    1
    23     2     1    1
