@<TRIPOS>MOLECULE
2b5t_GU0_I_1.pdb
 23 23 0 0 0
SMALL
GASTEIGER

@<TRIPOS>ATOM
      1  O1         8.0300   34.0330   -4.1480 O.3   435  GU0435     -0.1870
      2  C1         7.2550   34.5600   -5.2360 C.3   435  GU0435      0.3013
      3  C2         6.1180   35.4360   -4.7000 C.3   435  GU0435      0.2313
      4  O2         5.2220   34.5990   -3.9600 O.3   435  GU0435     -0.2358
      5  S2         5.1640   34.8490   -2.5490 S.3   435  GU0435      0.0000
      6  O23        4.8260   36.2810   -2.2590 O.2   435  GU0435     -0.3452
      7  O24        6.4770   34.5030   -1.9110 O.3   435  GU0435     -0.2682
      8  O22        4.0910   33.9850   -1.9590 O.2   435  GU0435     -0.3452
      9  C3         5.3590   36.0720   -5.8710 C.3   435  GU0435      0.1802
     10  O3         4.4180   37.0210   -5.3580 O.3   435  GU0435     -0.2409
     11  S3         3.0400   36.7600   -5.6590 S.3   435  GU0435     -0.0001
     12  O26        2.2320   36.9520   -4.4110 O.3   435  GU0435     -0.2682
     13  O27        2.8580   35.3680   -6.1840 O.2   435  GU0435     -0.3452
     14  O25        2.5420   37.7310   -6.6860 O.2   435  GU0435     -0.3452
     15  O5         8.1190   35.3120   -6.1040 O.3   435  GU0435     -0.3263
     16  C5         7.4490   35.8600   -7.2500 C.3   435  GU0435      0.1525
     17  C6         8.4840   36.6570   -8.0510 C.3   435  GU0435      0.2020
     18  O6         9.5650   35.8260   -8.4880 O.3   435  GU0435     -0.2385
     19  S6        10.7470   36.3880   -9.0700 S.3   435  GU0435     -0.0001
     20  O29       11.6260   36.9110   -7.9750 O.3   435  GU0435     -0.2682
     21  O30       10.4040   37.5080  -10.0080 O.2   435  GU0435     -0.3452
     22  O28       11.4770   35.3300   -9.8410 O.2   435  GU0435     -0.3452
     23  C4         6.3130   36.7880   -6.8340 C.3   435  GU0435      0.0671
@<TRIPOS>BOND
     1    21    19    2
     2    22    19    2
     3    19    18    1
     4    19    20    1
     5    18    17    1
     6    17    16    1
     7    16    23    1
     8    16    15    1
     9    23     9    1
    10    14    11    2
    11    13    11    2
    12    15     2    1
    13     9    10    1
    14     9     3    1
    15    11    10    1
    16    11    12    1
    17     2     3    1
    18     2     1    1
    19     3     4    1
    20     4     5    1
    21     5     6    2
    22     5     8    2
    23     5     7    1
