@<TRIPOS>MOLECULE
2b5v_NAP_A_1.pdb
 48 52 0 0 0
SMALL
GASTEIGER

@<TRIPOS>ATOM
      1  PA        31.2960   27.2620   54.0940 P.3   501  NAP501      0.2189
      2  O1A       31.8530   28.5200   54.4020 O.3   501  NAP501     -0.4371
      3  O2A       31.2100   26.5950   52.7400 O.2   501  NAP501     -0.5170
      4  O5B       29.8150   27.2250   54.6150 O.3   501  NAP501     -0.3112
      5  C5B       29.4750   27.8840   55.8660 C.3   501  NAP501      0.1813
      6  C4B       28.0210   28.2500   55.5540 C.3   501  NAP501      0.1820
      7  O4B       27.4120   28.8710   56.7440 O.3   501  NAP501     -0.3136
      8  C3B       27.7860   29.3110   54.4060 C.3   501  NAP501      0.2157
      9  O3B       26.8290   28.7520   53.5390 O.3   501  NAP501     -0.2175
     10  C2B       27.3090   30.5740   55.1390 C.3   501  NAP501      0.2314
     11  O2B       26.3020   31.3190   54.4670 O.3   501  NAP501     -0.2630
     12  C1B       26.7270   30.0290   56.4540 C.3   501  NAP501      0.3158
     13  N9A       26.7670   31.0260   57.4900 N.pl3 501  NAP501     -0.1439
     14  C8A       27.7950   31.7490   58.0500 C.3   501  NAP501      0.3377
     15  N7A       27.4020   32.5890   58.9860 N.2   501  NAP501     -0.2095
     16  C5A       26.0330   32.4070   59.0350 C.2   501  NAP501      0.2526
     17  C6A       25.0740   33.0310   59.8290 C.2   501  NAP501      0.4393
     18  N6A       25.2800   33.9980   60.7530 N.pl3 501  NAP501      0.2180
     19  N1A       23.7510   32.6290   59.6540 N.2   501  NAP501      0.0021
     20  C2A       23.4200   31.6410   58.7280 C.3   501  NAP501      0.5254
     21  N3A       24.3630   31.0170   57.9270 N.2   501  NAP501     -0.0055
     22  C4A       25.6420   31.4290   58.1190 C.2   501  NAP501      0.3518
     23  O3        31.9870   26.1310   54.9650 O.3   501  NAP501     -0.2703
     24  PN        31.8920   24.5320   54.8120 P.3   501  NAP501      0.2189
     25  O1N       30.5060   23.9960   54.9890 O.3   501  NAP501     -0.4371
     26  O2N       32.8690   23.7460   54.0740 O.2   501  NAP501     -0.5170
     27  O5D       32.5100   24.8280   56.2840 O.3   501  NAP501     -0.3112
     28  C5D       31.6720   25.1350   57.4740 C.3   501  NAP501      0.1813
     29  C4D       32.6050   25.4280   58.6620 C.3   501  NAP501      0.1799
     30  O4D       33.2330   24.1790   59.0940 O.3   501  NAP501     -0.3327
     31  C3D       33.8340   26.4140   58.4240 C.3   501  NAP501      0.2158
     32  O3D       34.0600   27.2970   59.5450 O.3   501  NAP501     -0.2175
     33  C2D       34.9980   25.4720   58.2290 C.3   501  NAP501      0.2309
     34  O2D       36.2160   26.0870   58.5820 O.3   501  NAP501     -0.2158
     35  C1D       34.6580   24.3930   59.1740 C.3   501  NAP501      0.2263
     36  N1N       35.2360   23.0560   58.9860 N.pl3 501  NAP501     -0.2787
     37  C2N       35.7460   22.3580   60.0870 C.3   501  NAP501      0.1244
     38  C3N       36.2800   21.1170   59.9020 C.2   501  NAP501      0.0544
     39  C7N       36.8200   20.3750   61.1340 C.2   501  NAP501      0.2818
     40  O7N       37.3320   19.2980   60.9290 O.2   501  NAP501     -0.2670
     41  N7N       36.7320   20.9000   62.3350 N.am  501  NAP501     -0.0839
     42  C4N       36.3440   20.5060   58.5680 C.2   501  NAP501      0.0033
     43  C5N       35.8070   21.2410   57.4780 C.2   501  NAP501      0.0157
     44  C6N       35.2400   22.5300   57.6650 C.2   501  NAP501      0.0633
     45  P2B       26.5910   32.4570   53.3280 P.3   501  NAP501      0.5328
     46  O1X       27.2090   31.7150   52.1550 O.2   501  NAP501     -0.2224
     47  O2X       25.2020   32.9380   53.0880 O.3   501  NAP501     -0.1145
     48  O3X       27.5420   33.4540   53.9560 O.3   501  NAP501     -0.1145
@<TRIPOS>BOND
     1    46    45    2
     2     3     1    2
     3    47    45    1
     4    45    48    1
     5    45    11    1
     6     9     8    1
     7    26    24    2
     8     1     2    1
     9     1     4    1
    10     1    23    1
    11     8    10    1
    12     8     6    1
    13    11    10    1
    14     4     5    1
    15    24    23    1
    16    24    25    1
    17    24    27    1
    18    10    12    1
    19     6     5    1
    20     6     7    1
    21    27    28    1
    22    12     7    1
    23    12    13    1
    24    28    29    1
    25    43    44    2
    26    43    42    1
    27    13    14    1
    28    13    22    1
    29    44    36    1
    30    21    22    2
    31    21    20    1
    32    14    15    1
    33    22    16    1
    34    33    31    1
    35    33    34    1
    36    33    35    1
    37    31    29    1
    38    31    32    1
    39    42    38    2
    40    29    30    1
    41    20    19    1
    42    15    16    2
    43    36    35    1
    44    36    37    1
    45    16    17    1
    46    30    35    1
    47    19    17    2
    48    17    18    1
    49    38    37    1
    50    38    39    1
    51    40    39    2
    52    39    41   am
