@<TRIPOS>MOLECULE
2b5w_NAP_A_1.pdb
 48 52 0 0 0
SMALL
GASTEIGER

@<TRIPOS>ATOM
      1  PA        30.7660   82.0470   97.9620 P.3   701  NAP701      0.2189
      2  O1A       31.4360   80.7600   97.8830 O.2   701  NAP701     -0.5170
      3  O2A       30.5750   82.5470   99.4010 O.3   701  NAP701     -0.4371
      4  O5B       29.3380   81.9920   97.2940 O.3   701  NAP701     -0.3112
      5  C5B       29.0190   81.2290   96.1620 C.3   701  NAP701      0.1813
      6  C4B       27.5700   80.8710   96.4090 C.3   701  NAP701      0.1820
      7  O4B       27.0620   80.3020   95.2230 O.3   701  NAP701     -0.3136
      8  C3B       27.3700   79.8550   97.5500 C.3   701  NAP701      0.2157
      9  O3B       26.5230   80.3410   98.5790 O.3   701  NAP701     -0.2175
     10  C2B       26.7730   78.6350   96.8460 C.3   701  NAP701      0.2314
     11  O2B       25.7270   77.9900   97.5540 O.3   701  NAP701     -0.2630
     12  C1B       26.2210   79.2240   95.5700 C.3   701  NAP701      0.3158
     13  N9A       26.2260   78.2530   94.4930 N.pl3 701  NAP701     -0.1439
     14  C8A       27.3180   77.5890   93.9850 C.3   701  NAP701      0.3377
     15  N7A       26.8960   76.7720   93.0010 N.2   701  NAP701     -0.2095
     16  C5A       25.5280   76.8770   92.9100 C.2   701  NAP701      0.2526
     17  C6A       24.5540   76.2820   92.1020 C.2   701  NAP701      0.4393
     18  N6A       24.8450   75.3260   91.1950 N.pl3 701  NAP701      0.2180
     19  N1A       23.2340   76.6330   92.2650 N.2   701  NAP701      0.0021
     20  C2A       22.8580   77.5820   93.1920 C.3   701  NAP701      0.5254
     21  N3A       23.8090   78.1770   94.0030 N.2   701  NAP701     -0.0055
     22  C4A       25.1130   77.8410   93.8490 C.2   701  NAP701      0.3518
     23  O3        31.6500   83.1910   97.2930 O.3   701  NAP701     -0.2703
     24  PN        31.4680   84.7990   97.2420 P.3   701  NAP701      0.2189
     25  O1N       30.0340   85.2030   97.1800 O.2   701  NAP701     -0.5170
     26  O2N       32.3930   85.5040   98.1860 O.3   701  NAP701     -0.4371
     27  O5D       32.0640   84.7540   95.7600 O.3   701  NAP701     -0.3112
     28  C5D       31.2570   84.3560   94.6690 C.3   701  NAP701      0.1813
     29  C4D       32.1180   84.0420   93.4470 C.3   701  NAP701      0.1799
     30  O4D       32.7450   85.2570   93.0260 O.3   701  NAP701     -0.3327
     31  C3D       33.2440   83.0410   93.7190 C.3   701  NAP701      0.2158
     32  O3D       33.3880   82.1380   92.6410 O.3   701  NAP701     -0.2175
     33  C2D       34.4670   83.9390   93.8710 C.3   701  NAP701      0.2309
     34  O2D       35.7020   83.3140   93.6370 O.3   701  NAP701     -0.2158
     35  C1D       34.1460   85.0400   92.8610 C.3   701  NAP701      0.2263
     36  N1N       34.7540   86.3520   93.1130 N.pl3 701  NAP701     -0.2787
     37  C2N       35.2960   86.9500   92.0170 C.3   701  NAP701      0.1244
     38  C3N       35.8050   88.2130   92.1230 C.2   701  NAP701      0.0544
     39  C7N       36.2120   88.8590   90.8310 C.2   701  NAP701      0.2818
     40  O7N       36.9020   90.0490   91.0430 O.2   701  NAP701     -0.2670
     41  N7N       35.9020   88.2730   89.6420 N.am  701  NAP701     -0.0839
     42  C4N       35.8280   88.9040   93.3410 C.2   701  NAP701      0.0033
     43  C5N       35.2610   88.2850   94.4480 C.2   701  NAP701      0.0157
     44  C6N       34.6960   87.0080   94.3200 C.2   701  NAP701      0.0633
     45  P2B       26.0210   76.7450   98.6040 P.3   701  NAP701      0.5328
     46  O1X       26.7540   77.1850   99.7630 O.3   701  NAP701     -0.1145
     47  O2X       24.5980   76.2430   98.9240 O.3   701  NAP701     -0.1145
     48  O3X       26.8060   75.6540   97.8680 O.2   701  NAP701     -0.2224
@<TRIPOS>BOND
     1    41    39   am
     2    39    40    2
     3    39    38    1
     4    18    17    1
     5    37    38    1
     6    37    36    1
     7    17    19    2
     8    17    16    1
     9    38    42    2
    10    19    20    1
    11    32    31    1
    12    35    30    1
    13    35    36    1
    14    35    33    1
    15    16    15    2
    16    16    22    1
    17    15    14    1
    18    30    29    1
    19    36    44    1
    20    20    21    1
    21    42    43    1
    22    29    31    1
    23    29    28    1
    24    34    33    1
    25    31    33    1
    26    22    21    2
    27    22    13    1
    28    14    13    1
    29    44    43    2
    30    13    12    1
    31    28    27    1
    32     7    12    1
    33     7     6    1
    34    12    10    1
    35    27    24    1
    36     5     6    1
    37     5     4    1
    38     6     8    1
    39    10     8    1
    40    10    11    1
    41    25    24    2
    42    24    23    1
    43    24    26    1
    44    23     1    1
    45     4     1    1
    46     8     9    1
    47    11    45    1
    48    48    45    2
    49     2     1    2
    50     1     3    1
    51    45    47    1
    52    45    46    1
