@<TRIPOS>MOLECULE
2b5z_BGS_A_1.pdb
 16 16 0 0 0
SMALL
GASTEIGER

@<TRIPOS>ATOM
      1  C2'      -19.8540   20.7230   53.3360 C.3   961  BGS961      0.1537
      2  O2'      -19.7080   20.9780   56.0420 O.2   961  BGS961     -0.1706
      3  C5       -22.8390   24.5400   55.1120 C.3   961  BGS961      0.1828
      4  C6       -22.6450   26.0010   55.4900 C.3   961  BGS961      0.2142
      5  C2       -22.5440   21.7020   55.7040 C.3   961  BGS961      0.2344
      6  C4       -23.8240   23.8150   56.0620 C.3   961  BGS961      0.2144
      7  C1       -21.5990   22.4810   54.7620 C.3   961  BGS961      0.2775
      8  S1       -19.9130   21.8110   54.8260 S.O2  961  BGS961      0.0167
      9  O2       -22.6080   20.3540   55.3150 O.3   961  BGS961     -0.2157
     10  C3       -23.9360   22.3380   55.6440 C.3   961  BGS961      0.2190
     11  O3       -24.8080   21.6540   56.4940 O.3   961  BGS961     -0.2174
     12  O4       -25.1230   24.4520   56.0130 O.3   961  BGS961     -0.2176
     13  O5       -21.5300   23.8830   55.1440 O.3   961  BGS961     -0.3303
     14  O6       -21.6940   26.2680   56.5000 O.3   961  BGS961     -0.2176
     15  CS       -19.6430   21.5810   52.0970 C.3   961  BGS961      0.0272
     16  O1'      -18.8550   22.8490   54.8040 O.2   961  BGS961     -0.1706
@<TRIPOS>BOND
     1    15     1    1
     2     1     8    1
     3     7     8    1
     4     7    13    1
     5     7     5    1
     6    16     8    2
     7     8     2    2
     8     3    13    1
     9     3     4    1
    10     3     6    1
    11     9     5    1
    12     4    14    1
    13    10     5    1
    14    10     6    1
    15    10    11    1
    16    12     6    1
