@<TRIPOS>MOLECULE
2b65_MAL_A_1.pdb
 23 24 0 0 0
SMALL
GASTEIGER

@<TRIPOS>ATOM
      1  C1         9.6190   16.0940   15.5110 C.3   3001  MAL3001     0.2695
      2  C2         9.8800   14.6040   15.2600 C.3   3001  MAL3001     0.2406
      3  C3        11.2920   14.2040   14.8180 C.3   3001  MAL3001     0.2198
      4  C4        12.4100   15.1550   15.2400 C.3   3001  MAL3001     0.2144
      5  C5        11.8750   16.2730   16.1220 C.3   3001  MAL3001     0.1835
      6  C6        12.9270   17.3440   16.3870 C.3   3001  MAL3001     0.2142
      7  O1         9.0360   16.2890   16.7860 O.3   3001  MAL3001    -0.3257
      8  O2         9.4900   13.8300   16.3720 O.3   3001  MAL3001    -0.2149
      9  O3        11.3120   14.0460   13.4160 O.3   3001  MAL3001    -0.2174
     10  O4        13.4270   14.4500   15.9190 O.3   3001  MAL3001    -0.2176
     11  O5        10.7980   16.8620   15.4360 O.3   3001  MAL3001    -0.3256
     12  O6        13.5350   17.1010   17.6350 O.3   3001  MAL3001    -0.2176
     13  C1'        5.9640   18.3690   18.6670 C.3   3001  MAL3001     0.3023
     14  C2'        5.5250   17.3520   17.6230 C.3   3001  MAL3001     0.2433
     15  C3'        6.6560   16.5710   16.9500 C.3   3001  MAL3001     0.2168
     16  C4'        8.0180   17.2630   16.9360 C.3   3001  MAL3001     0.1804
     17  C5'        8.2360   18.0590   18.2190 C.3   3001  MAL3001     0.1804
     18  C6'        9.5770   18.7860   18.2370 C.3   3001  MAL3001     0.2141
     19  O1'        4.9740   19.3420   18.8910 O.3   3001  MAL3001    -0.1869
     20  O2'        4.6500   16.4310   18.2360 O.3   3001  MAL3001    -0.2148
     21  O3'        6.2810   16.2610   15.6260 O.3   3001  MAL3001    -0.2175
     22  O5'        7.1860   18.9870   18.3550 O.3   3001  MAL3001    -0.3237
     23  O6'       10.2740   18.4560   19.4170 O.3   3001  MAL3001    -0.2176
@<TRIPOS>BOND
     1     9     3    1
     2     3     4    1
     3     3     2    1
     4     4    10    1
     5     4     5    1
     6     2     1    1
     7     2     8    1
     8    11     1    1
     9    11     5    1
    10     1     7    1
    11    21    15    1
    12     5     6    1
    13     6    12    1
    14     7    16    1
    15    16    15    1
    16    16    17    1
    17    15    14    1
    18    14    20    1
    19    14    13    1
    20    17    18    1
    21    17    22    1
    22    18    23    1
    23    22    13    1
    24    13    19    1
