@<TRIPOS>MOLECULE
2b67_FMN_A_1.pdb
 31 33 0 0 0
SMALL
GASTEIGER

@<TRIPOS>ATOM
      1  N1         0.9200   13.0120   37.9870 N.2   801  FMN801     -0.2890
      2  C2         0.2480   12.0640   37.2320 C.1   801  FMN801      0.3669
      3  O2        -0.0450   10.9710   37.7310 O.2   801  FMN801     -0.1744
      4  N3        -0.0760   12.3560   35.9190 N.2   801  FMN801     -0.2300
      5  C4         0.2630   13.5800   35.3600 C.1   801  FMN801      0.2513
      6  O4         0.0090   13.8020   34.1790 O.2   801  FMN801     -0.2057
      7  C4A        0.9360   14.5350   36.1280 C.2   801  FMN801      0.2700
      8  N5         1.2760   15.7640   35.5870 N.2   801  FMN801     -0.3878
      9  C5A        1.9410   16.7060   36.3540 C.2   801  FMN801      0.1320
     10  C6         2.2640   17.9510   35.8050 C.2   801  FMN801      0.0250
     11  C7         2.9350   18.9080   36.5720 C.2   801  FMN801     -0.0238
     12  C7M        3.0890   20.3030   36.0430 C.3   801  FMN801      0.0308
     13  C8         3.2770   18.6180   37.8960 C.2   801  FMN801     -0.0280
     14  C8M        3.6070   19.7220   38.8510 C.3   801  FMN801      0.0304
     15  C9         2.9440   17.3820   38.4340 C.2   801  FMN801     -0.0041
     16  C9A        2.2800   16.4140   37.6810 C.3   801  FMN801      0.1497
     17  N10        1.9510   15.1670   38.2310 N.pl3 801  FMN801     -0.2691
     18  C10        1.2640   14.2420   37.4510 C.2   801  FMN801      0.2416
     19  C1'        2.7010   14.6210   39.4210 C.3   801  FMN801      0.1294
     20  C2'        4.2170   14.6250   39.2350 C.3   801  FMN801      0.2044
     21  O2'        4.6430   13.3510   38.8330 O.3   801  FMN801     -0.2185
     22  C3'        4.8850   15.0210   40.5490 C.3   801  FMN801      0.2164
     23  O3'        4.4240   16.3090   40.8810 O.3   801  FMN801     -0.2175
     24  C4'        6.4110   15.0020   40.5010 C.3   801  FMN801      0.2147
     25  O4'        6.8660   13.6780   40.3120 O.3   801  FMN801     -0.2176
     26  C5'        7.0210   15.5230   41.7890 C.3   801  FMN801      0.1892
     27  O5'        6.6490   14.6630   42.8570 O.3   801  FMN801     -0.2674
     28  P          6.1360   15.2860   44.2450 P.3   801  FMN801      0.5327
     29  O1P        7.3260   15.9320   44.8840 O.3   801  FMN801     -0.1145
     30  O2P        5.5580   14.2170   45.1660 O.3   801  FMN801     -0.1145
     31  O3P        5.0820   16.3180   43.9590 O.2   801  FMN801     -0.2224
@<TRIPOS>BOND
     1     6     5    2
     2     5     4    2
     3     5     7    1
     4     8     7    2
     5     8     9    2
     6    10     9    1
     7    10    11    2
     8     4     2    2
     9    12    11    1
    10     7    18    1
    11     9    16    1
    12    11    13    1
    13     2     3    2
    14     2     1    2
    15    18     1    2
    16    18    17    1
    17    16    17    1
    18    16    15    1
    19    13    15    2
    20    13    14    1
    21    17    19    1
    22    21    20    1
    23    20    19    1
    24    20    22    1
    25    25    24    1
    26    24    22    1
    27    24    26    1
    28    22    23    1
    29    26    27    1
    30    27    28    1
    31    31    28    2
    32    28    29    1
    33    28    30    1
