@<TRIPOS>MOLECULE
2b69_UDP_A_1.pdb
 25 26 0 0 0
SMALL
GASTEIGER

@<TRIPOS>ATOM
      1  N1        52.5760   20.2480   22.2040 N.am  900  UDP900     -0.1766
      2  C2        53.6000   19.6190   21.5170 C.1   900  UDP900      0.2845
      3  N3        54.4020   20.3670   20.6930 N.2   900  UDP900     -0.2452
      4  C4        54.2340   21.7200   20.5140 C.1   900  UDP900      0.2182
      5  C5        53.1920   22.3540   21.1990 C.2   900  UDP900      0.1242
      6  C6        52.3950   21.6160   22.0840 C.2   900  UDP900      0.0929
      7  O2        53.8190   18.3960   21.5910 O.2   900  UDP900     -0.1918
      8  O4        55.0230   22.3030   19.7450 O.2   900  UDP900     -0.2085
      9  C1'       51.6700   19.4350   23.0700 C.3   900  UDP900      0.2401
     10  C2'       51.4750   19.9600   24.4970 C.3   900  UDP900      0.2319
     11  O2'       52.5710   19.6220   25.3380 O.3   900  UDP900     -0.2157
     12  C3'       50.1310   19.3300   24.8570 C.3   900  UDP900      0.2158
     13  C4'       49.3820   19.3250   23.5310 C.3   900  UDP900      0.1799
     14  O4'       50.3630   19.3780   22.4970 O.3   900  UDP900     -0.3320
     15  O3'       50.3080   17.9930   25.2770 O.3   900  UDP900     -0.2175
     16  C5'       48.4140   20.4950   23.3430 C.3   900  UDP900      0.1813
     17  O5'       49.0960   21.7070   23.5990 O.3   900  UDP900     -0.3111
     18  PA        48.4130   23.1590   23.4540 P.3   900  UDP900      0.2231
     19  O1A       47.9370   23.3230   22.0620 O.2   900  UDP900     -0.5169
     20  O2A       49.3760   24.1920   23.9060 O.3   900  UDP900     -0.4370
     21  O3A       47.0710   23.1100   24.3520 O.3   900  UDP900     -0.2261
     22  PB        46.7230   22.7540   25.8940 P.3   900  UDP900      0.5373
     23  O1B       45.5580   21.8220   25.7740 O.2   900  UDP900     -0.2221
     24  O2B       46.3180   24.0470   26.4830 O.3   900  UDP900     -0.1143
     25  O3B       47.8800   22.1070   26.5600 O.3   900  UDP900     -0.1143
@<TRIPOS>BOND
     1     8     4    2
     2     4     3    2
     3     4     5    1
     4     3     2    2
     5     5     6    2
     6     2     7    2
     7     2     1   am
     8    19    18    2
     9     6     1    1
    10     1     9    1
    11    14     9    1
    12    14    13    1
    13     9    10    1
    14    16    13    1
    15    16    17    1
    16    18    17    1
    17    18    20    1
    18    18    21    1
    19    13    12    1
    20    21    22    1
    21    10    12    1
    22    10    11    1
    23    12    15    1
    24    23    22    2
    25    22    24    1
    26    22    25    1
