@<TRIPOS>MOLECULE
2b69_NAD_A_1.pdb
 44 48 0 0 0
SMALL
GASTEIGER

@<TRIPOS>ATOM
      1  PA        43.5870   34.8200   22.0960 P.3   800  NAD800      0.2189
      2  O1A       44.8630   34.9880   22.8420 O.3   800  NAD800     -0.4371
      3  O2A       43.6760   34.9650   20.6440 O.2   800  NAD800     -0.5170
      4  O5B       42.4260   35.8130   22.5760 O.3   800  NAD800     -0.3112
      5  C5B       42.4470   36.4490   23.8530 C.3   800  NAD800      0.1813
      6  C4B       42.2310   37.9470   23.6430 C.3   800  NAD800      0.1821
      7  O4B       42.1090   38.5870   24.9060 O.3   800  NAD800     -0.3135
      8  C3B       43.4020   38.6060   22.9000 C.3   800  NAD800      0.2184
      9  O3B       42.9400   39.3900   21.8120 O.3   800  NAD800     -0.2174
     10  C2B       44.1030   39.4410   23.9710 C.3   800  NAD800      0.2570
     11  O2B       44.8240   40.5860   23.5040 O.3   800  NAD800     -0.2130
     12  C1B       42.9240   39.7740   24.8900 C.3   800  NAD800      0.3186
     13  N9A       43.3250   40.0930   26.2650 N.pl3 800  NAD800     -0.1439
     14  C8A       44.1770   39.3920   27.0920 C.3   800  NAD800      0.3377
     15  N7A       44.2520   40.0050   28.2990 N.2   800  NAD800     -0.2095
     16  C5A       43.4470   41.1120   28.2260 C.2   800  NAD800      0.2526
     17  C6A       43.1680   42.1360   29.1330 C.2   800  NAD800      0.4393
     18  N6A       43.6690   42.1690   30.3690 N.pl3 800  NAD800      0.2180
     19  N1A       42.2910   43.1370   28.7570 N.2   800  NAD800      0.0021
     20  C2A       41.7250   43.1500   27.4930 C.3   800  NAD800      0.5254
     21  N3A       42.0100   42.1730   26.5680 N.2   800  NAD800     -0.0055
     22  C4A       42.8640   41.1750   26.9500 C.2   800  NAD800      0.3518
     23  O3        43.0300   33.3500   22.4590 O.3   800  NAD800     -0.2703
     24  PN        41.6340   32.5810   22.0470 P.3   800  NAD800      0.2189
     25  O1N       42.0330   31.2070   21.7050 O.3   800  NAD800     -0.4371
     26  O2N       40.8350   33.4060   21.0910 O.2   800  NAD800     -0.5170
     27  O5D       40.8220   32.4900   23.4270 O.3   800  NAD800     -0.3112
     28  C5D       39.6850   33.2980   23.6930 C.3   800  NAD800      0.1813
     29  C4D       39.0890   32.9190   25.0590 C.3   800  NAD800      0.1799
     30  O4D       38.6020   31.5830   25.0220 O.3   800  NAD800     -0.3327
     31  C3D       40.1110   32.9880   26.1970 C.3   800  NAD800      0.2158
     32  O3D       39.4910   33.4910   27.3740 O.3   800  NAD800     -0.2175
     33  C2D       40.5220   31.5540   26.4090 C.3   800  NAD800      0.2309
     34  O2D       40.9880   31.3290   27.7340 O.3   800  NAD800     -0.2158
     35  C1D       39.2260   30.8160   26.0410 C.3   800  NAD800      0.2263
     36  N1N       39.5570   29.4340   25.6340 N.pl3 800  NAD800     -0.2787
     37  C2N       40.0010   29.1730   24.3650 C.3   800  NAD800      0.1244
     38  C3N       40.3660   27.8870   24.0170 C.2   800  NAD800      0.0544
     39  C7N       40.8110   27.6010   22.6240 C.2   800  NAD800      0.2818
     40  O7N       41.1560   26.3010   22.3790 O.2   800  NAD800     -0.2670
     41  N7N       40.8610   28.5070   21.6490 N.am  800  NAD800     -0.0839
     42  C4N       40.2800   26.8340   24.9560 C.2   800  NAD800      0.0033
     43  C5N       39.8240   27.1210   26.2570 C.2   800  NAD800      0.0157
     44  C6N       39.4740   28.4260   26.5730 C.2   800  NAD800      0.0633
@<TRIPOS>BOND
     1     3     1    2
     2    26    24    2
     3    41    39   am
     4    25    24    1
     5     9     8    1
     6    24    23    1
     7    24    27    1
     8     1    23    1
     9     1     4    1
    10     1     2    1
    11    40    39    2
    12     4     5    1
    13    39    38    1
    14     8     6    1
    15     8    10    1
    16    27    28    1
    17    11    10    1
    18     6     5    1
    19     6     7    1
    20    28    29    1
    21    10    12    1
    22    38    37    1
    23    38    42    2
    24    37    36    1
    25    12     7    1
    26    12    13    1
    27    42    43    1
    28    30    29    1
    29    30    35    1
    30    29    31    1
    31    36    35    1
    32    36    44    1
    33    35    33    1
    34    31    33    1
    35    31    32    1
    36    43    44    2
    37    13    22    1
    38    13    14    1
    39    33    34    1
    40    21    22    2
    41    21    20    1
    42    22    16    1
    43    14    15    1
    44    20    19    1
    45    16    15    2
    46    16    17    1
    47    19    17    2
    48    17    18    1
