@<TRIPOS>MOLECULE
2b6a_T50_A_1.pdb
 27 30 0 0 0
SMALL
GASTEIGER

@<TRIPOS>ATOM
      1  N1       146.2350  -25.5850   75.0020 N.pl3 561  T50561     -0.2562
      2  C2       145.9850  -25.4280   73.7030 C.2   561  T50561      0.1917
      3  N3       145.1000  -26.2780   73.3020 N.2   561  T50561     -0.3856
      4  C4       143.7580  -28.1530   74.4640 C.2   561  T50561      0.0051
      5  C5       143.6080  -28.7790   75.7650 C.2   561  T50561     -0.0231
      6  C6       144.3990  -28.3310   76.9180 C.3   561  T50561      0.0531
      7  C7       145.3380  -27.2420   76.7750 C.2   561  T50561     -0.0040
      8  C8       145.4640  -26.6240   75.4680 C.2   561  T50561      0.0793
      9  C9       144.7030  -27.0780   74.3550 C.2   561  T50561      0.1420
     10  C17      146.5990  -24.4210   72.7220 C.ar  561  T50561      0.0990
     11  C18      145.7970  -23.4670   72.0150 C.ar  561  T50561      0.1460
     12  C4A      142.9260  -28.6330   73.2450 C.3   561  T50561      0.0334
     13  C19      146.3670  -22.5590   71.0930 C.ar  561  T50561      0.0299
     14  C20      147.7920  -22.5880   70.8510 C.ar  561  T50561      0.0046
     15  C21      148.6140  -23.5370   71.5630 C.ar  561  T50561      0.0299
     16  C22      147.9910  -24.4380   72.4930 C.ar  561  T50561      0.1460
     17  F1       144.5060  -23.4340   72.2310 F     561  T50561     -0.2040
     18  F2       148.7160  -25.3010   73.1610 F     561  T50561     -0.2040
     19  C10      147.1520  -24.8050   75.8050 C.3   561  T50561      0.1290
     20  C11      146.4340  -23.7550   76.6720 C.ar  561  T50561      0.0529
     21  C12      145.8410  -22.5820   76.1360 C.ar  561  T50561      0.1399
     22  C13      145.2060  -21.6370   76.9960 C.ar  561  T50561      0.0295
     23  C14      145.1700  -21.8630   78.4050 C.ar  561  T50561      0.0046
     24  C15      145.7630  -23.0440   78.9320 C.ar  561  T50561      0.0295
     25  C16      146.3880  -23.9760   78.0570 C.ar  561  T50561      0.1399
     26  F3       145.8730  -22.3520   74.8130 F     561  T50561     -0.2044
     27  F4       146.9370  -25.0740   78.5380 F     561  T50561     -0.2044
@<TRIPOS>BOND
     1    14    13   ar
     2    14    15   ar
     3    13    11   ar
     4    15    16   ar
     5    11    17    1
     6    11    10   ar
     7    16    10   ar
     8    16    18    1
     9    10     2    1
    10    12     4    1
    11     3     2    2
    12     3     9    2
    13     2     1    1
    14     9     4    1
    15     9     8    1
    16     4     5    2
    17    26    21    1
    18     1     8    1
    19     1    19    1
    20     8     7    2
    21     5     6    1
    22    19    20    1
    23    21    20   ar
    24    21    22   ar
    25    20    25   ar
    26     7     6    1
    27    22    23   ar
    28    25    27    1
    29    25    24   ar
    30    23    24   ar
