@<TRIPOS>MOLECULE
2b6f_ATP_A_1.pdb
 43 45 0 0 0
SMALL
GASTEIGER

@<TRIPOS>ATOM
      1  PG        11.9000   -3.1400   18.6550 P.3     1  ATP1        0.5373
      2  O1G       11.4190   -4.4900   19.1040 O.3     1  ATP1       -0.1143
      3  O2G       10.8020   -2.2730   18.1300 O.3     1  ATP1       -0.1143
      4  O3G       13.2120   -3.1870   17.9370 O.2     1  ATP1       -0.2221
      5  PB        13.1400   -1.2310   21.2590 P.3     1  ATP1        0.2277
      6  O1B       12.2960   -1.0120   22.4730 O.3     1  ATP1       -0.4368
      7  O2B       14.4760   -1.7970   21.6140 O.2     1  ATP1       -0.5168
      8  O3B       12.3130   -2.3870   20.2990 O.3     1  ATP1       -0.2258
      9  PA        13.0110    1.2830   19.2650 P.3     1  ATP1        0.2182
     10  O1A       13.4890    0.6940   18.0050 O.2     1  ATP1       -0.5170
     11  O2A       13.5170    2.6410   19.5420 O.3     1  ATP1       -0.4371
     12  O3A       13.4550    0.3190   20.5880 O.3     1  ATP1       -0.2700
     13  O5'       11.3350    1.3930   19.1120 O.3     1  ATP1       -0.3246
     14  C5'       10.5120    2.0580   20.0620 C.3     1  ATP1        0.0836
     15  C4'       10.6630    3.6000   20.0280 C.3     1  ATP1        0.1131
     16  O4'        9.3740    4.1930   20.1150 O.3     1  ATP1       -0.3474
     17  C3'       11.4990    4.2210   21.1780 C.3     1  ATP1        0.1133
     18  O3'       12.7070    4.7800   20.6650 O.3     1  ATP1       -0.3864
     19  C2'       10.6190    5.3100   21.7970 C.3     1  ATP1        0.1266
     20  O2'       11.4000    6.4890   21.8990 O.3     1  ATP1       -0.3849
     21  C1'        9.4590    5.4370   20.7960 C.3     1  ATP1        0.1617
     22  N9         8.1440    5.7420   21.4160 N.pl3   1  ATP1       -0.2234
     23  C8         7.2980    6.8030   21.1680 C.2     1  ATP1        0.1451
     24  N7         6.1540    6.7600   21.8060 N.2     1  ATP1       -0.3871
     25  C5         6.2450    5.6120   22.5850 C.2     1  ATP1        0.2211
     26  C6         5.4020    4.9600   23.5230 C.2     1  ATP1        0.2227
     27  N6         4.1670    5.3590   23.8330 N.pl3   1  ATP1       -0.3300
     28  N1         5.8690    3.8720   24.1680 N.2     1  ATP1       -0.3296
     29  C2         7.0880    3.4070   23.8850 C.1     1  ATP1        0.0930
     30  N3         7.9650    3.8670   22.9940 N.2     1  ATP1       -0.3287
     31  C4         7.5040    4.9870   22.3700 C.2     1  ATP1        0.2354
     32 H5'1        9.4860    1.7860   19.8150 H       1  ATP1        0.0591
     33 H5'2       10.6930    1.6480   21.0570 H       1  ATP1        0.0591
     34  H4'       11.0490    3.9080   19.0520 H       1  ATP1        0.0647
     35  H3'       11.7610    3.4790   21.9350 H       1  ATP1        0.0647
     36 HO3'       13.1340    4.0250   20.1990 H       1  ATP1        0.2100
     37  H2'       10.2930    4.9970   22.7880 H       1  ATP1        0.0663
     38 HO2'       12.1790    6.2270   21.3950 H       1  ATP1        0.2101
     39  H1'        9.7070    6.1970   20.0560 H       1  ATP1        0.0841
     40  H8         7.5650    7.6180   20.5030 H       1  ATP1        0.1149
     41 HN61        3.6370    4.8070   24.5040 H       1  ATP1        0.1448
     42 HN62        3.6710    5.9730   23.1890 H       1  ATP1        0.1448
     43  H2         7.4260    2.5750   24.4820 H       1  ATP1        0.1751
@<TRIPOS>BOND
     1     4     1    2
     2    10     9    2
     3     3     1    1
     4     1     2    1
     5     1     8    1
     6    34    15    1
     7    13     9    1
     8    13    14    1
     9     9    11    1
    10     9    12    1
    11    32    14    1
    12    15    14    1
    13    15    16    1
    14    15    17    1
    15    39    21    1
    16    14    33    1
    17    16    21    1
    18    36    18    1
    19     8     5    1
    20    40    23    1
    21    12     5    1
    22    18    17    1
    23    21    22    1
    24    21    19    1
    25    23    22    1
    26    23    24    2
    27    17    19    1
    28    17    35    1
    29     5     7    2
    30     5     6    1
    31    38    20    1
    32    22    31    1
    33    19    20    1
    34    19    37    1
    35    24    25    2
    36    31    25    1
    37    31    30    2
    38    25    26    1
    39    30    29    2
    40    42    27    1
    41    26    27    1
    42    26    28    2
    43    27    41    1
    44    29    28    2
    45    29    43    1
