@<TRIPOS>MOLECULE
2b6h_GDP_A_1.pdb
 28 30 0 0 0
SMALL
GASTEIGER

@<TRIPOS>ATOM
      1  PB         8.2780   36.6650   37.0500 P.3   202  GDP202      0.5373
      2  O1B        9.2010   37.3190   38.0700 O.3   202  GDP202     -0.1143
      3  O2B        8.6010   35.2180   36.8370 O.2   202  GDP202     -0.2221
      4  O3B        6.8320   36.8760   37.4070 O.3   202  GDP202     -0.1143
      5  O3A        8.6060   37.3520   35.5980 O.3   202  GDP202     -0.2261
      6  PA         7.7630   38.5230   34.8480 P.3   202  GDP202      0.2231
      7  O1A        7.5080   39.7120   35.7620 O.3   202  GDP202     -0.4370
      8  O2A        6.5040   37.9940   34.2640 O.2   202  GDP202     -0.5169
      9  O5'        8.7340   38.8220   33.6050 O.3   202  GDP202     -0.3111
     10  C5'       10.0740   39.3070   33.8450 C.3   202  GDP202      0.1813
     11  C4'       10.5350   40.1040   32.6170 C.3   202  GDP202      0.1799
     12  O4'       10.7040   39.2100   31.5230 O.3   202  GDP202     -0.3326
     13  C3'        9.5740   41.1780   32.1160 C.3   202  GDP202      0.2158
     14  O3'       10.3280   42.3090   31.6400 O.3   202  GDP202     -0.2175
     15  C2'        8.8190   40.5140   30.9670 C.3   202  GDP202      0.2310
     16  O2'        8.2470   41.3850   29.9560 O.3   202  GDP202     -0.2158
     17  C1'        9.9400   39.6730   30.4170 C.3   202  GDP202      0.2293
     18  N9         9.4780   38.4840   29.6640 N.pl3 202  GDP202     -0.2354
     19  C8         8.5620   37.5790   30.0120 C.3   202  GDP202      0.2246
     20  N7         8.4650   36.6310   29.0510 N.2   202  GDP202     -0.2322
     21  C5         9.2790   36.9850   28.0510 C.2   202  GDP202      0.2182
     22  C6         9.6430   36.4220   26.7420 C.1   202  GDP202      0.2372
     23  O6         9.1190   35.3670   26.3060 O.2   202  GDP202     -0.2069
     24  N1        10.5850   37.0590   26.0400 N.2   202  GDP202     -0.2485
     25  C2        11.1960   38.1750   26.4710 C.1   202  GDP202      0.2531
     26  N2        12.1250   38.7250   25.6660 N.pl3 202  GDP202     -0.0226
     27  N3        10.9070   38.7590   27.6540 N.2   202  GDP202     -0.3074
     28  C4         9.9750   38.1790   28.4760 C.2   202  GDP202      0.2300
@<TRIPOS>BOND
     1    26    25    1
     2    24    25    2
     3    24    22    2
     4    23    22    2
     5    25    27    2
     6    22    21    1
     7    27    28    2
     8    21    28    1
     9    21    20    2
    10    28    18    1
    11    20    19    1
    12    18    19    1
    13    18    17    1
    14    16    15    1
    15    17    15    1
    16    17    12    1
    17    15    13    1
    18    12    11    1
    19    14    13    1
    20    13    11    1
    21    11    10    1
    22     9    10    1
    23     9     6    1
    24     8     6    2
    25     6     5    1
    26     6     7    1
    27     5     1    1
    28     3     1    2
    29     1     4    1
    30     1     2    1
