@<TRIPOS>MOLECULE
2b6n_III_B_1.pdb
 20 20 0 0 0
SMALL
GASTEIGER

@<TRIPOS>ATOM
      1  N          1.0070   13.7480   24.4290 N.3     1  ALA1       -0.1231
      2  CA         1.1110   13.7190   22.9430 C.3     1  ALA1        0.1679
      3  C          1.9380   12.5160   22.4810 C.2     1  ALA1        0.2434
      4  O          2.9860   12.2190   23.0690 O.2     1  ALA1       -0.2733
      5  CB         1.7270   14.9950   22.4350 C.3     1  ALA1        0.0304
      6  N          1.4600   11.8100   21.4350 N.am    2  PRO2       -0.2718
      7  CA         2.2660   10.7420   20.8370 C.3     2  PRO2        0.1536
      8  C          3.5210   11.2800   20.1400 C.2     2  PRO2        0.2600
      9  O          3.5160   12.3910   19.6010 O.2     2  PRO2       -0.2715
     10  CB         1.3110   10.1050   19.8270 C.3     2  PRO2        0.0310
     11  CG         0.3230   11.1860   19.4990 C.3     2  PRO2        0.0237
     12  CD         0.1430   11.9390   20.7820 C.3     2  PRO2        0.0939
     13  N          4.5970   10.5010   20.1820 N.am    3  THR3       -0.1915
     14  CA         5.8920   10.9210   19.6270 C.3     3  THR3        0.2278
     15  C          6.4920    9.8250   18.7420 C.2     3  THR3        0.3868
     16  O          5.9110    8.7340   18.6000 O.co2   3  THR3       -0.2437
     17  CB         6.9040   11.3260   20.7370 C.3     3  THR3        0.1829
     18  OG1        7.0100   10.2450   21.8070 O.3     3  THR3       -0.2207
     19  CG2        6.5270   12.6820   21.3320 C.3     3  THR3        0.0380
     20  OXT        7.5530   10.0170   18.1390 O.co2   3  THR3       -0.2437
@<TRIPOS>BOND
     1    20    15   ar
     2    16    15   ar
     3    15    14    1
     4    11    10    1
     5    11    12    1
     6     9     8    2
     7    14    13    1
     8    14    17    1
     9    10     7    1
    10     8    13   am
    11     8     7    1
    12    17    19    1
    13    17    18    1
    14    12     6    1
    15     7     6    1
    16     6     3   am
    17     5     2    1
    18     3     2    1
    19     3     4    2
    20     2     1    1
