@<TRIPOS>MOLECULE
2b76_MQ7_D_1.pdb
 33 34 0 0 0
SMALL
GASTEIGER

@<TRIPOS>ATOM
      1  C1        39.4680   18.4120  -79.7220 C.2   700  MQ7700      0.1918
      2  O1        38.5690   18.7670  -80.5010 O.2   700  MQ7700     -0.2869
      3  C2        40.5240   19.4150  -79.1500 C.2   700  MQ7700      0.0202
      4  C2M       40.3110   20.8380  -79.6570 C.3   700  MQ7700      0.0345
      5  C3        41.5050   19.0010  -78.2990 C.2   700  MQ7700      0.0380
      6  C4        41.5660   17.5120  -77.8920 C.2   700  MQ7700      0.1954
      7  O4        42.4900   17.1260  -77.0920 O.2   700  MQ7700     -0.2866
      8  C5        40.5210   16.5040  -78.4540 C.ar  700  MQ7700      0.0420
      9  C6        40.5490   15.1080  -78.0980 C.ar  700  MQ7700      0.0033
     10  C7        39.5740   14.1200  -78.6140 C.ar  700  MQ7700      0.0001
     11  C8        38.5170   14.6050  -79.5420 C.ar  700  MQ7700      0.0001
     12  C9        38.4950   16.0110  -79.8950 C.ar  700  MQ7700      0.0033
     13  C10       39.4950   16.9480  -79.3480 C.ar  700  MQ7700      0.0417
     14  C11       42.5990   19.8320  -77.6680 C.2   700  MQ7700      0.0026
     15  C12       42.7250   20.3630  -76.3410 C.2   700  MQ7700     -0.0045
     16  C13       43.8690   21.2020  -75.7540 C.2   700  MQ7700     -0.0258
     17  C14       45.0440   21.5660  -76.5890 C.3   700  MQ7700      0.0307
     18  C15       43.8070   21.6780  -74.2840 C.2   700  MQ7700     -0.0257
     19  C16       44.7260   22.5220  -73.3510 C.3   700  MQ7700      0.0510
     20  C17       45.6660   21.5830  -72.5790 C.2   700  MQ7700     -0.0299
     21  C18       46.7180   21.9750  -71.5940 C.2   700  MQ7700     -0.0475
     22  C19       47.0400   23.4450  -71.1960 C.3   700  MQ7700      0.0260
     23  C20       47.5300   20.8260  -70.9650 C.3   700  MQ7700      0.0264
     24  C21       47.2640   21.0530  -69.4590 C.3   700  MQ7700      0.0297
     25  C22       48.6530   21.2090  -68.7990 C.2   700  MQ7700     -0.0342
     26  C23       49.3440   20.3260  -67.8370 C.2   700  MQ7700     -0.0478
     27  C24       48.7730   19.0000  -67.2700 C.3   700  MQ7700      0.0260
     28  C25       50.7400   20.7900  -67.3890 C.3   700  MQ7700      0.0263
     29  C26       51.0010   21.4030  -65.9370 C.3   700  MQ7700      0.0297
     30  C27       50.2150   22.7430  -65.8460 C.2   700  MQ7700     -0.0342
     31  C28       50.1270   23.6610  -64.6860 C.2   700  MQ7700     -0.0478
     32  C29       49.2870   24.8980  -64.8670 C.3   700  MQ7700      0.0260
     33  C30       50.8160   23.4570  -63.3170 C.3   700  MQ7700      0.0260
@<TRIPOS>BOND
     1     2     1    2
     2    12    11   ar
     3    12    13   ar
     4     1    13    1
     5     1     3    1
     6     4     3    1
     7    11    10   ar
     8    13     8   ar
     9     3     5    2
    10    10     9   ar
    11     8     9   ar
    12     8     6    1
    13     5     6    1
    14     5    14    1
    15     6     7    2
    16    14    15    2
    17    17    16    1
    18    15    16    1
    19    16    18    2
    20    18    19    1
    21    19    20    1
    22    20    21    2
    23    21    22    1
    24    21    23    1
    25    23    24    1
    26    24    25    1
    27    25    26    2
    28    26    28    1
    29    26    27    1
    30    28    29    1
    31    29    30    1
    32    30    31    2
    33    32    31    1
    34    31    33    1
