@<TRIPOS>MOLECULE
2b77_3CA_A_1.pdb
 18 19 0 0 0
SMALL
GASTEIGER

@<TRIPOS>ATOM
      1  O1        44.0240   -2.2290   53.3090 O.co2 240  3CA240     -0.2404
      2  C9        43.6040   -2.4530   54.5880 C.2   240  3CA240      0.3909
      3  O91       43.4220   -3.5820   54.9970 O.co2 240  3CA240     -0.2404
      4  C8        43.3960   -1.1950   55.4040 C.ar  240  3CA240      0.1186
      5  C10       43.2150    0.0660   54.7580 C.ar  240  3CA240      0.2020
      6  O10       43.2220    0.1380   53.3570 O.3   240  3CA240     -0.2863
      7  C11       43.0220    1.2260   55.5010 C.ar  240  3CA240      0.0422
      8  C12       43.0040    1.1840   56.8710 C.ar  240  3CA240      0.0033
      9  C13       43.1880   -0.0740   57.6040 C.ar  240  3CA240      0.0012
     10  C7        43.3740   -1.2400   56.7930 C.ar  240  3CA240      0.0098
     11  C3        43.1620   -0.1460   58.9960 C.ar  240  3CA240      0.0106
     12  C2        43.8160    0.8870   59.7840 C.ar  240  3CA240      0.0017
     13  C4        42.5000   -1.2380   59.7300 C.ar  240  3CA240      0.0585
     14 CL         41.7050   -2.5720   58.8830 Cl    240  3CA240     -0.0822
     15  C5        42.5210   -1.2270   61.1090 C.ar  240  3CA240      0.0228
     16  C6        43.1530   -0.2140   61.8470 C.ar  240  3CA240      0.0585
     17 CL1        43.1430   -0.2570   63.6070 Cl    240  3CA240     -0.0822
     18  C1        43.8010    0.8410   61.1570 C.ar  240  3CA240      0.0114
@<TRIPOS>BOND
     1     1     2   ar
     2     6     5    1
     3     2     3   ar
     4     2     4    1
     5     5     4   ar
     6     5     7   ar
     7     4    10   ar
     8     7     8   ar
     9    10     9   ar
    10     8     9   ar
    11     9    11    1
    12    14    13    1
    13    11    13   ar
    14    11    12   ar
    15    13    15   ar
    16    12    18   ar
    17    15    16   ar
    18    18    16   ar
    19    16    17    1
