@<TRIPOS>MOLECULE
2b7a_IZA_A_1.pdb
 23 26 0 0 0
SMALL
GASTEIGER

@<TRIPOS>ATOM
      1  O0       117.7080   67.4770   10.8940 O.2   2001  IZA2001    -0.2219
      2  C11      117.2770   66.8780    9.8800 C.1   2001  IZA2001     0.1545
      3  N2       118.0910   66.7430    8.7980 N.2   2001  IZA2001    -0.1747
      4  C12      117.6930   66.0990    7.6860 C.2   2001  IZA2001     0.1112
      5  C13      116.4160   65.5460    7.5940 C.2   2001  IZA2001     0.0249
      6  C9       115.5180   65.6330    8.6610 C.ar  2001  IZA2001     0.0456
      7  C1       114.2420   65.0750    8.5710 C.ar  2001  IZA2001     0.1744
      8  C10      115.9050   66.2890    9.8350 C.ar  2001  IZA2001     0.0859
      9  C8       114.9250   66.3790   10.9700 C.ar  2001  IZA2001     0.0158
     10  C7       115.2030   67.0080   12.1790 C.ar  2001  IZA2001     0.0304
     11  C6       114.2050   67.0160   13.1460 C.ar  2001  IZA2001     0.1402
     12  F1       114.4580   67.6720   14.4460 F     2001  IZA2001    -0.2042
     13  C5       112.9710   66.4030   12.8920 C.ar  2001  IZA2001     0.0297
     14  C4       112.7100   65.8180   11.7650 C.ar  2001  IZA2001     0.0050
     15  C3       113.5770   65.7640   10.8080 C.ar  2001  IZA2001     0.0339
     16  C0       113.3070   65.1380    9.5950 C.ar  2001  IZA2001     0.1737
     17  N1       112.1720   64.5120    9.2100 N.2   2001  IZA2001    -0.3411
     18  C2       112.4660   64.0890    7.9580 C.1   2001  IZA2001     0.1113
     19  N0       113.7040   64.4150    7.5220 N.2   2001  IZA2001    -0.3411
     20  C14      111.4810   63.3400    7.0880 C.3   2001  IZA2001     0.0954
     21  C17      110.3510   62.7540    7.9250 C.3   2001  IZA2001     0.0170
     22  C16      112.1570   62.2180    6.3120 C.3   2001  IZA2001     0.0170
     23  C15      110.8870   64.3320    6.0960 C.3   2001  IZA2001     0.0170
@<TRIPOS>BOND
     1    23    20    1
     2    22    20    1
     3    20    21    1
     4    20    18    1
     5    19    18    2
     6    19     7    2
     7     5     4    2
     8     5     6    1
     9     4     3    1
    10    18    17    2
    11     7     6   ar
    12     7    16   ar
    13     6     8   ar
    14     3     2    2
    15    17    16    2
    16    16    15   ar
    17     8     2    1
    18     8     9   ar
    19     2     1    2
    20    15     9   ar
    21    15    14   ar
    22     9    10   ar
    23    14    13   ar
    24    10    11   ar
    25    13    11   ar
    26    11    12    1
