@<TRIPOS>MOLECULE
2b7b_GDP_A_1.pdb
 28 30 0 0 0
SMALL
GASTEIGER

@<TRIPOS>ATOM
      1  PB        33.3160   41.9740   37.5670 P.3     0  GDP0        0.5373
      2  O1B       33.6370   43.0280   36.5280 O.2     0  GDP0       -0.2221
      3  O2B       32.1210   42.3500   38.3680 O.3     0  GDP0       -0.1143
      4  O3B       33.1860   40.6300   36.9280 O.3     0  GDP0       -0.1143
      5  O3A       34.6020   41.9360   38.5370 O.3     0  GDP0       -0.2261
      6  PA        36.1480   41.5040   38.2570 P.3     0  GDP0        0.2231
      7  O1A       36.1600   40.0440   37.9160 O.3     0  GDP0       -0.4370
      8  O2A       36.7230   42.4180   37.2310 O.2     0  GDP0       -0.5169
      9  O5'       36.8090   41.7350   39.6690 O.3     0  GDP0       -0.3111
     10  C5'       36.8800   43.0410   40.2660 C.3     0  GDP0        0.1813
     11  C4'       38.1910   43.2840   41.0160 C.3     0  GDP0        0.1799
     12  O4'       38.2380   42.4930   42.2320 O.3     0  GDP0       -0.3326
     13  C3'       39.4670   42.9110   40.2340 C.3     0  GDP0        0.2158
     14  O3'       40.4320   43.9510   40.3770 O.3     0  GDP0       -0.2175
     15  C2'       39.9150   41.5900   40.8520 C.3     0  GDP0        0.2310
     16  O2'       41.3200   41.3380   40.7690 O.3     0  GDP0       -0.2158
     17  C1'       39.4230   41.6900   42.2880 C.3     0  GDP0        0.2293
     18  N9        39.0700   40.3710   42.8720 N.pl3   0  GDP0       -0.2354
     19  C8        38.4480   39.2790   42.2620 C.3     0  GDP0        0.2246
     20  N7        38.2710   38.2530   43.0760 N.2     0  GDP0       -0.2322
     21  C5        38.8120   38.6770   44.2960 C.2     0  GDP0        0.2182
     22  C6        38.9090   38.0440   45.5720 C.1     0  GDP0        0.2372
     23  O6        38.5430   36.8970   45.8530 O.2     0  GDP0       -0.2069
     24  N1        39.5190   38.8140   46.5800 N.2     0  GDP0       -0.2485
     25  C2        39.9830   40.1260   46.3950 C.1     0  GDP0        0.2531
     26  N2        40.5290   40.7290   47.4520 N.pl3   0  GDP0       -0.0226
     27  N3        39.8920   40.7480   45.1890 N.2     0  GDP0       -0.3074
     28  C4        39.2790   39.9900   44.1880 C.2     0  GDP0        0.2300
@<TRIPOS>BOND
     1     2     1    2
     2     4     1    1
     3     8     6    2
     4     1     3    1
     5     1     5    1
     6     7     6    1
     7     6     5    1
     8     6     9    1
     9     9    10    1
    10    13    14    1
    11    13    15    1
    12    13    11    1
    13    10    11    1
    14    16    15    1
    15    15    17    1
    16    11    12    1
    17    12    17    1
    18    19    18    1
    19    19    20    1
    20    17    18    1
    21    18    28    1
    22    20    21    2
    23    28    21    1
    24    28    27    2
    25    21    22    1
    26    27    25    2
    27    22    23    2
    28    22    24    2
    29    25    24    2
    30    25    26    1
