@<TRIPOS>MOLECULE
2b7d_C1B_H_1.pdb
 39 42 0 0 0
SMALL
GASTEIGER

@<TRIPOS>ATOM
      1  C1        -7.9230    5.4370   13.1650 C.ar  258  C1B258      0.1002
      2  C2        -7.6930    4.1240   12.6590 C.ar  258  C1B258      0.0108
      3  C3        -8.6350    3.4590   11.8700 C.ar  258  C1B258      0.0360
      4  C4        -9.7850    4.1340   11.6080 C.ar  258  C1B258      0.1741
      5  C5       -10.0400    5.3590   12.0580 C.ar  258  C1B258      0.1744
      6  C6        -9.1490    6.0590   12.8390 C.ar  258  C1B258      0.0437
      7  C7        -6.9650    6.0700   13.9520 C.2   258  C1B258      0.4767
      8  N1        -7.0210    7.3760   14.0640 N.pl3 258  C1B258      0.2047
      9  N2        -6.0370    5.3420   14.5510 N.pl3 258  C1B258      0.2047
     10  N3       -10.8130    3.7680   10.9190 N.2   258  C1B258     -0.3371
     11  N4       -11.2260    5.8050   11.6730 N.2   258  C1B258     -0.3371
     12  C8       -11.6430    4.7620   10.9700 C.1   258  C1B258      0.1411
     13  C1'      -12.8930    4.7590   10.3320 C.ar  258  C1B258      0.1241
     14  C2'      -13.7420    5.8530   10.4340 C.ar  258  C1B258      0.0116
     15  C3'      -14.9810    5.8830    9.8200 C.ar  258  C1B258     -0.0103
     16  CVX      -15.8850    7.1050   10.0280 C.3   258  C1B258      0.1369
     17  CWX      -17.2940    6.5710   10.4520 C.2   258  C1B258      0.3689
     18  OXX      -17.3480    6.0230   11.5490 O.co2 258  C1B258     -0.2453
     19  OYX      -18.2480    6.7060    9.7060 O.co2 258  C1B258     -0.2453
     20  C6X      -15.8190    8.0660    8.7850 C.3   258  C1B258      0.1297
     21  C7X      -14.4710    8.8670    8.6690 C.2   258  C1B258      0.3658
     22  O8X      -13.8320    9.2200    9.6560 O.co2 258  C1B258     -0.2456
     23  O9X      -14.1050    9.1200    7.5370 O.co2 258  C1B258     -0.2456
     24  C4'      -15.4050    4.7890    9.0680 C.ar  258  C1B258     -0.0004
     25  C5'      -14.6050    3.6490    8.9180 C.ar  258  C1B258      0.0425
     26  C6'      -13.3470    3.6620    9.5670 C.ar  258  C1B258      0.2069
     27  O6'      -12.4910    2.5780    9.4680 O.3   258  C1B258     -0.2858
     28  C1B      -15.0640    2.5660    8.1550 C.ar  258  C1B258      0.0418
     29  C2B      -14.2250    1.8650    7.2940 C.ar  258  C1B258      0.1957
     30  C3B      -14.6630    0.7920    6.5720 C.ar  258  C1B258      0.0418
     31  C4B      -15.9610    0.3730    6.6680 C.ar  258  C1B258      0.0007
     32  C5B      -16.8440    1.0230    7.4920 C.ar  258  C1B258     -0.0003
     33  C51      -18.2800    0.5080    7.5530 C.3   258  C1B258      0.1432
     34  N52      -18.7500    0.6910    8.9460 N.am  258  C1B258     -0.1810
     35  C53      -19.5610    1.6860    9.2340 C.2   258  C1B258      0.3592
     36  O54      -19.9470    2.4590    8.3790 O.2   258  C1B258     -0.2474
     37  N55      -20.0080    1.9070   10.4470 N.am  258  C1B258     -0.0679
     38  C6B      -16.3960    2.1200    8.2360 C.ar  258  C1B258      0.0007
     39  O2B      -12.9100    2.2330    7.1000 O.3   258  C1B258     -0.2866
@<TRIPOS>BOND
     1    30    31   ar
     2    30    29   ar
     3    31    32   ar
     4    39    29    1
     5    29    28   ar
     6    32    33    1
     7    32    38   ar
     8    23    21   ar
     9    33    34    1
    10    28    38   ar
    11    28    25    1
    12    36    35    2
    13    21    20    1
    14    21    22   ar
    15    20    16    1
    16    25    24   ar
    17    25    26   ar
    18    34    35   am
    19    24    15   ar
    20    35    37   am
    21    27    26    1
    22    26    13   ar
    23    19    17   ar
    24    15    16    1
    25    15    14   ar
    26    16    17    1
    27    13    14   ar
    28    13    12    1
    29    17    18   ar
    30    10    12    2
    31    10     4    2
    32    12    11    2
    33     4     3   ar
    34     4     5   ar
    35    11     5    2
    36     3     2   ar
    37     5     6   ar
    38     2     1   ar
    39     6     1   ar
    40     1     7    1
    41     7     8    2
    42     7     9    1
