@<TRIPOS>MOLECULE
2b7h_HEM_A_1.pdb
 43 50 0 0 0
SMALL
GASTEIGER

@<TRIPOS>ATOM
      1  CHA       -4.5390   -7.9440   -1.8570 C.2   200  HEM200      0.0000
      2  CHB       -8.9300   -9.3610   -3.1590 C.2   200  HEM200      0.0000
      3  CHC      -10.8540   -6.1470   -0.1410 C.2   200  HEM200      0.0000
      4  CHD       -6.4890   -4.1830    0.5550 C.2   200  HEM200      0.0000
      5  C1A       -5.5740   -8.6280   -2.4340 C.ar  200  HEM200      0.0000
      6  C2A       -5.4390   -9.7820   -3.2880 C.ar  200  HEM200      0.0000
      7  C3A       -6.6480  -10.1660   -3.6820 C.ar  200  HEM200      0.0000
      8  C4A       -7.5910   -9.2880   -3.0450 C.ar  200  HEM200      0.0000
      9  CMA       -6.9780  -11.3370   -4.6610 C.3   200  HEM200      0.0000
     10  CAA       -4.0970  -10.4080   -3.6990 C.3   200  HEM200      0.0000
     11  CBA       -3.5630   -9.6300   -4.8790 C.3   200  HEM200      0.0000
     12  CGA       -2.2670  -10.2930   -5.2890 C.2   200  HEM200      0.0000
     13  O1A       -1.5460   -9.6320   -6.0820 O.co2 200  HEM200      0.0000
     14  O2A       -1.9580  -11.4410   -4.8250 O.co2 200  HEM200      0.0000
     15  C1B       -9.8330   -8.6260   -2.4400 C.2   200  HEM200      0.0000
     16  C2B      -11.2570   -8.8050   -2.5180 C.2   200  HEM200      0.0000
     17  C3B      -11.8050   -7.8920   -1.7030 C.2   200  HEM200      0.0000
     18  C4B      -10.7350   -7.1480   -1.0710 C.2   200  HEM200      0.0000
     19  CMB      -11.9400   -9.8680   -3.4310 C.3   200  HEM200      0.0000
     20  CAB      -13.3050   -7.6810   -1.4220 C.2   200  HEM200      0.0000
     21  CBB      -14.1350   -7.5870   -2.4530 C.2   200  HEM200      0.0000
     22  C1C       -9.8330   -5.3240    0.2720 C.ar  200  HEM200      0.0000
     23  C2C      -10.0100   -4.0990    1.0150 C.ar  200  HEM200      0.0000
     24  C3C       -8.8090   -3.5370    1.1940 C.ar  200  HEM200      0.0000
     25  C4C       -7.8310   -4.4060    0.5810 C.ar  200  HEM200      0.0000
     26  CMC      -11.4010   -3.6150    1.4820 C.3   200  HEM200      0.0000
     27  CAC       -8.4400   -2.2430    1.9290 C.2   200  HEM200      0.0000
     28  CBC       -9.1300   -1.1130    1.6620 C.2   200  HEM200      0.0000
     29  C1D       -5.5700   -4.9920   -0.0840 C.2   200  HEM200      0.0000
     30  C2D       -4.1660   -4.6890   -0.1810 C.2   200  HEM200      0.0000
     31  C3D       -3.5390   -5.8680   -0.9130 C.2   200  HEM200      0.0000
     32  C4D       -4.6470   -6.7500   -1.1980 C.2   200  HEM200      0.0000
     33  CMD       -3.4920   -3.4370    0.4040 C.3   200  HEM200      0.0000
     34  CAD       -2.0730   -6.0850   -1.3220 C.3   200  HEM200      0.0000
     35  CBD       -2.1100   -5.7620   -2.8230 C.3   200  HEM200      0.0000
     36  CGD       -0.7310   -5.6550   -3.4250 C.2   200  HEM200      0.0000
     37  O1D        0.2340   -5.4130   -2.6720 O.co2 200  HEM200      0.0000
     38  O2D       -0.5990   -5.7790   -4.6710 O.co2 200  HEM200      0.0000
     39  NA        -6.9240   -8.3550   -2.2860 N.ar  200  HEM200      0.0000
     40  NB        -9.5540   -7.6080   -1.5780 N.2   200  HEM200      0.0000
     41  NC        -8.4840   -5.4840    0.0260 N.ar  200  HEM200      0.0000
     42  ND        -5.8120   -6.2080   -0.6850 N.2   200  HEM200      0.0000
     43 FE         -7.7080   -6.9570   -1.0430 Fe    200  HEM200      0.0000
@<TRIPOS>BOND
     1    13    12   ar
     2    12    11    1
     3    12    14   ar
     4    11    10    1
     5    38    36   ar
     6     9     7    1
     7    10     6    1
     8     7     6   ar
     9     7     8   ar
    10    19    16    1
    11    36    35    1
    12    36    37   ar
    13     6     5   ar
    14     2     8    2
    15     2    15    1
    16     8    39   ar
    17    35    34    1
    18    16    15    1
    19    16    17    2
    20    21    20    2
    21    15    40    2
    22     5    39   ar
    23     5     1    2
    24    39    43    1
    25     1    32    1
    26    17    20    1
    27    17    18    1
    28    40    18    1
    29    40    43    1
    30    34    31    1
    31    32    31    1
    32    32    42    2
    33    18     3    2
    34    43    42    1
    35    43    41    1
    36    31    30    2
    37    42    29    1
    38    30    29    1
    39    30    33    1
    40     3    22    1
    41    29     4    2
    42    41    22   ar
    43    41    25   ar
    44    22    23   ar
    45     4    25    1
    46    25    24   ar
    47    23    24   ar
    48    23    26    1
    49    24    27    1
    50    28    27    2
