@<TRIPOS>MOLECULE
2b7n_NTM_A_1.pdb
 12 12 0 0 0
SMALL
GASTEIGER

@<TRIPOS>ATOM
      1  N1        -7.8290  184.6290   -5.1850 N.ar  1001  NTM1001    -0.2370
      2  C2        -7.3220  183.3990   -5.4090 C.ar  1001  NTM1001     0.1671
      3  C3        -7.8400  182.2710   -4.6730 C.ar  1001  NTM1001     0.1039
      4  C4        -8.8780  182.5360   -3.7410 C.ar  1001  NTM1001     0.0099
      5  C5        -9.3750  183.8570   -3.5450 C.ar  1001  NTM1001     0.0209
      6  C6        -8.8130  184.8940   -4.3070 C.ar  1001  NTM1001     0.0991
      7  C7        -6.2360  183.3230   -6.4160 C.2   1001  NTM1001     0.4053
      8  O1        -6.4430  183.4960   -7.6200 O.co2 1001  NTM1001    -0.2388
      9  O2        -5.0700  183.0690   -6.0040 O.co2 1001  NTM1001    -0.2388
     10  C8        -7.3970  180.8080   -4.7920 C.2   1001  NTM1001     0.3894
     11  O3        -7.0930  180.3310   -5.9390 O.co2 1001  NTM1001    -0.2405
     12  O4        -7.3370  180.0720   -3.7580 O.co2 1001  NTM1001    -0.2405
@<TRIPOS>BOND
     1     8     7   ar
     2     7     9   ar
     3     7     2    1
     4    11    10   ar
     5     2     1   ar
     6     2     3   ar
     7     1     6   ar
     8    10     3    1
     9    10    12   ar
    10     3     4   ar
    11     6     5   ar
    12     4     5   ar
