@<TRIPOS>MOLECULE
2b7o_PEP_A_1.pdb
 10 9 0 0 0
SMALL
GASTEIGER

@<TRIPOS>ATOM
      1  C1        35.9240  120.8390   18.6350 C.2   702  PEP702      0.4216
      2  O1        34.9180  120.8420   17.8960 O.co2 702  PEP702     -0.2371
      3  O2'       37.0490  120.4600   18.2470 O.co2 702  PEP702     -0.2371
      4  C2        35.6910  121.2580   19.9180 C.2   702  PEP702      0.2283
      5  C3        34.6780  120.5600   20.4290 C.2   702  PEP702      0.0477
      6  O2        36.1460  122.4510   20.5120 O.2   702  PEP702     -0.3930
      7  P         36.5230  122.8320   22.0310 P.3   702  PEP702      0.5889
      8  O1P       37.9530  122.3810   22.1950 O.3   702  PEP702     -0.1039
      9  O2P       35.5260  122.0590   22.8610 O.3   702  PEP702     -0.1039
     10  O3P       36.3420  124.3280   22.0680 O.2   702  PEP702     -0.2114
@<TRIPOS>BOND
     1     2     1   ar
     2     3     1   ar
     3     1     4    1
     4     4     5    2
     5     4     6    1
     6     6     7    1
     7     7    10    2
     8     7     8    1
     9     7     9    1
