@<TRIPOS>MOLECULE
2b7p_PHT_A_1.pdb
 12 12 0 0 0
SMALL
GASTEIGER

@<TRIPOS>ATOM
      1  O8        49.1540  114.7840  102.2360 O.co2 1001  PHT1001    -0.2405
      2  O9        48.7980  114.8820  104.3930 O.co2 1001  PHT1001    -0.2405
      3  C10       51.1190  117.0180  101.4910 C.2   1001  PHT1001     0.3880
      4  O11       50.8950  117.1550  100.2540 O.co2 1001  PHT1001    -0.2405
      5  O12       52.0860  116.2920  101.8810 O.co2 1001  PHT1001    -0.2405
      6  C7        49.0850  115.4590  103.3350 C.2   1001  PHT1001     0.3880
      7  C1        50.4200  119.0670  102.6540 C.ar  1001  PHT1001     0.0068
      8  C2        50.2830  117.6600  102.5090 C.ar  1001  PHT1001     0.0861
      9  C3        49.3700  116.9720  103.3420 C.ar  1001  PHT1001     0.0861
     10  C4        48.6260  117.7660  104.3010 C.ar  1001  PHT1001     0.0068
     11  C5        48.7990  119.1530  104.4040 C.ar  1001  PHT1001     0.0002
     12  C6        49.7050  119.7760  103.5640 C.ar  1001  PHT1001     0.0002
@<TRIPOS>BOND
     1     4     3   ar
     2     3     5   ar
     3     3     8    1
     4     1     6   ar
     5     8     7   ar
     6     8     9   ar
     7     7    12   ar
     8     6     9    1
     9     6     2   ar
    10     9    10   ar
    11    12    11   ar
    12    10    11   ar
