@<TRIPOS>MOLECULE
2b7q_NCN_A_1.pdb
 22 23 0 0 0
SMALL
GASTEIGER

@<TRIPOS>ATOM
      1  P        165.8370 -148.3980 -115.8350 P.3   1002  NCN1002     0.5327
      2  O1P      164.6690 -148.6860 -114.8670 O.3   1002  NCN1002    -0.1145
      3  O2P      167.1740 -148.0260 -115.1110 O.3   1002  NCN1002    -0.1145
      4  O3P      166.0390 -149.6040 -116.8070 O.2   1002  NCN1002    -0.2224
      5  O5'      165.3960 -147.0220 -116.7270 O.3   1002  NCN1002    -0.2675
      6  C5'      166.3260 -145.9650 -117.1480 C.3   1002  NCN1002     0.1859
      7  C4'      165.7610 -144.8040 -118.0510 C.3   1002  NCN1002     0.1801
      8  O4'      164.6820 -144.0570 -117.4730 O.3   1002  NCN1002    -0.3327
      9  C3'      166.7860 -143.6440 -118.5010 C.3   1002  NCN1002     0.2158
     10  O3'      168.1050 -143.9320 -119.1980 O.3   1002  NCN1002    -0.2175
     11  C2'      165.8670 -142.7200 -119.3070 C.3   1002  NCN1002     0.2309
     12  O2'      165.6890 -143.0680 -120.7720 O.3   1002  NCN1002    -0.2158
     13  C1'      164.6390 -142.7270 -118.2440 C.3   1002  NCN1002     0.2263
     14  N1       164.5120 -141.6570 -117.0960 N.pl3 1002  NCN1002    -0.2787
     15  C6       165.5440 -141.5430 -116.0420 C.3   1002  NCN1002     0.1195
     16  C5       165.4020 -140.5520 -114.9770 C.2   1002  NCN1002    -0.0044
     17  C4       164.2580 -139.7230 -114.9890 C.2   1002  NCN1002     0.0050
     18  C3       163.2200 -139.8010 -116.0040 C.2   1002  NCN1002     0.0940
     19  C2       163.3640 -140.7630 -117.0360 C.2   1002  NCN1002     0.0699
     20  C7       162.0390 -138.8270 -115.8580 C.2   1002  NCN1002     0.3890
     21  O7       161.3420 -138.8630 -114.7310 O.co2 1002  NCN1002    -0.2405
     22  O8       161.8030 -138.0420 -116.8880 O.co2 1002  NCN1002    -0.2405
@<TRIPOS>BOND
     1    12    11    1
     2    11     9    1
     3    11    13    1
     4    10     9    1
     5     9     7    1
     6    13     8    1
     7    13    14    1
     8     7     8    1
     9     7     6    1
    10     6     5    1
    11    14    19    1
    12    14    15    1
    13    19    18    2
    14    22    20   ar
    15     4     1    2
    16     5     1    1
    17    15    16    1
    18    18    20    1
    19    18    17    1
    20    20    21   ar
    21     1     3    1
    22     1     2    1
    23    17    16    2
