@<TRIPOS>MOLECULE
2b7r_HEM_A_1.pdb
 43 50 0 0 0
SMALL
GASTEIGER

@<TRIPOS>ATOM
      1 FE         30.5200   58.8820   43.8880 Fe    801  HEM801      0.0000
      2  CHA       28.5850   56.0360   44.2070 C.2   801  HEM801      0.0000
      3  CHB       28.9770   59.6120   40.9240 C.2   801  HEM801      0.0000
      4  CHC       32.1820   61.9420   43.7830 C.2   801  HEM801      0.0000
      5  CHD       32.5110   57.9210   46.5120 C.2   801  HEM801      0.0000
      6  NA        29.0580   57.9780   42.7890 N.ar  801  HEM801      0.0000
      7  C1A       28.3680   56.8130   43.0780 C.ar  801  HEM801      0.0000
      8  C2A       27.3960   56.5570   42.0210 C.ar  801  HEM801      0.0000
      9  C3A       27.5190   57.5600   41.1210 C.ar  801  HEM801      0.0000
     10  C4A       28.5580   58.4640   41.5850 C.ar  801  HEM801      0.0000
     11  CMA       26.7210   57.7820   39.8070 C.3   801  HEM801      0.0000
     12  CAA       26.4310   55.3380   41.9650 C.3   801  HEM801      0.0000
     13  CBA       26.9670   54.2830   40.9910 C.3   801  HEM801      0.0000
     14  CGA       26.0880   53.0510   40.8650 C.2   801  HEM801      0.0000
     15  O1A       26.4620   52.1300   40.0860 O.co2 801  HEM801      0.0000
     16  O2A       25.0170   52.9770   41.5220 O.co2 801  HEM801      0.0000
     17  NB        30.5730   60.5120   42.5810 N.2   801  HEM801      0.0000
     18  C1B       29.8460   60.5710   41.4080 C.2   801  HEM801      0.0000
     19  C2B       30.1430   61.8590   40.8050 C.2   801  HEM801      0.0000
     20  C3B       31.0230   62.4930   41.6000 C.2   801  HEM801      0.0000
     21  C4B       31.3150   61.6510   42.7460 C.2   801  HEM801      0.0000
     22  CMB       29.5570   62.3680   39.4610 C.3   801  HEM801      0.0000
     23  CAB       31.6320   63.9020   41.4120 C.2   801  HEM801      0.0000
     24  CBB       30.8140   64.9790   41.4290 C.2   801  HEM801      0.0000
     25  NC        32.1050   59.7580   44.9140 N.ar  801  HEM801      0.0000
     26  C1C       32.5540   61.0730   44.7960 C.ar  801  HEM801      0.0000
     27  C2C       33.4190   61.3740   45.9280 C.ar  801  HEM801      0.0000
     28  C3C       33.5210   60.2480   46.6740 C.ar  801  HEM801      0.0000
     29  C4C       32.6900   59.2250   46.0530 C.ar  801  HEM801      0.0000
     30  CMC       34.1540   62.7260   46.1430 C.3   801  HEM801      0.0000
     31  CAC       34.3440   60.0230   47.9750 C.2   801  HEM801      0.0000
     32  CBC       34.4150   60.8920   49.0080 C.2   801  HEM801      0.0000
     33  ND        30.5600   57.2120   45.1480 N.2   801  HEM801      0.0000
     34  C1D       31.4610   57.0800   46.1980 C.2   801  HEM801      0.0000
     35  C2D       31.1100   55.8820   46.9300 C.2   801  HEM801      0.0000
     36  C3D       29.8950   55.3010   46.2200 C.2   801  HEM801      0.0000
     37  C4D       29.6070   56.1940   45.1120 C.2   801  HEM801      0.0000
     38  CMD       31.8170   55.3120   48.1830 C.3   801  HEM801      0.0000
     39  CAD       29.0980   54.0500   46.6350 C.3   801  HEM801      0.0000
     40  CBD       27.7650   54.5720   47.2160 C.3   801  HEM801      0.0000
     41  CGD       27.8870   55.5900   48.3430 C.2   801  HEM801      0.0000
     42  O1D       27.1350   56.6090   48.3070 O.co2 801  HEM801      0.0000
     43  O2D       28.6870   55.3970   49.3070 O.co2 801  HEM801      0.0000
@<TRIPOS>BOND
     1    22    19    1
     2    11     9    1
     3    15    14   ar
     4    19    18    1
     5    19    20    2
     6    14    13    1
     7    14    16   ar
     8     3    18    1
     9     3    10    2
    10    13    12    1
    11     9    10   ar
    12     9     8   ar
    13    18    17    2
    14    23    24    2
    15    23    20    1
    16    10     6   ar
    17    20    21    1
    18    12     8    1
    19     8     7   ar
    20    17    21    1
    21    17     1    1
    22    21     4    2
    23     6     7   ar
    24     6     1    1
    25     7     2    2
    26     4    26    1
    27     1    25    1
    28     1    33    1
    29     2    37    1
    30    26    25   ar
    31    26    27   ar
    32    25    29   ar
    33    37    33    2
    34    37    36    1
    35    33    34    1
    36    27    30    1
    37    27    28   ar
    38    29     5    1
    39    29    28   ar
    40    34     5    2
    41    34    35    1
    42    36    39    1
    43    36    35    2
    44    39    40    1
    45    28    31    1
    46    35    38    1
    47    40    41    1
    48    31    32    2
    49    42    41   ar
    50    41    43   ar
