@<TRIPOS>MOLECULE
2b7s_HEM_A_1.pdb
 43 50 0 0 0
SMALL
GASTEIGER

@<TRIPOS>ATOM
      1 FE         29.9930   58.2890   43.2020 Fe    801  HEM801      0.0000
      2  CHA       28.0240   55.4610   43.5510 C.2   801  HEM801      0.0000
      3  CHB       28.5090   58.9900   40.2330 C.2   801  HEM801      0.0000
      4  CHC       31.6760   61.4050   43.0760 C.2   801  HEM801      0.0000
      5  CHD       31.9290   57.3400   45.8200 C.2   801  HEM801      0.0000
      6  NA        28.5380   57.3800   42.0960 N.ar  801  HEM801      0.0000
      7  C1A       27.8280   56.2360   42.4240 C.ar  801  HEM801      0.0000
      8  C2A       26.8600   55.9870   41.3730 C.ar  801  HEM801      0.0000
      9  C3A       26.9940   56.9630   40.4610 C.ar  801  HEM801      0.0000
     10  C4A       28.0610   57.8600   40.8970 C.ar  801  HEM801      0.0000
     11  CMA       26.1710   57.1190   39.1290 C.3   801  HEM801      0.0000
     12  CAA       25.8630   54.7980   41.3160 C.3   801  HEM801      0.0000
     13  CBA       26.3910   53.8310   40.2340 C.3   801  HEM801      0.0000
     14  CGA       25.6200   52.5200   40.1420 C.2   801  HEM801      0.0000
     15  O1A       26.0640   51.6170   39.3610 O.co2 801  HEM801      0.0000
     16  O2A       24.5800   52.3570   40.8510 O.co2 801  HEM801      0.0000
     17  NB        30.0610   59.9430   41.8960 N.2   801  HEM801      0.0000
     18  C1B       29.3580   59.9820   40.7130 C.2   801  HEM801      0.0000
     19  C2B       29.6590   61.2750   40.1050 C.2   801  HEM801      0.0000
     20  C3B       30.5360   61.9310   40.8950 C.2   801  HEM801      0.0000
     21  C4B       30.8090   61.1030   42.0370 C.2   801  HEM801      0.0000
     22  CMB       29.0970   61.7330   38.7350 C.3   801  HEM801      0.0000
     23  CAB       31.1640   63.3450   40.7330 C.2   801  HEM801      0.0000
     24  CBB       30.3790   64.4570   40.7710 C.2   801  HEM801      0.0000
     25  NC        31.5560   59.1890   44.2410 N.ar  801  HEM801      0.0000
     26  C1C       32.0190   60.5070   44.0850 C.ar  801  HEM801      0.0000
     27  C2C       32.9190   60.7930   45.1770 C.ar  801  HEM801      0.0000
     28  C3C       32.9910   59.6830   45.9510 C.ar  801  HEM801      0.0000
     29  C4C       32.1340   58.6440   45.3720 C.ar  801  HEM801      0.0000
     30  CMC       33.6470   62.1600   45.3730 C.3   801  HEM801      0.0000
     31  CAC       33.8450   59.5810   47.2520 C.2   801  HEM801      0.0000
     32  CBC       33.7580   60.4900   48.2560 C.2   801  HEM801      0.0000
     33  ND        29.9740   56.5800   44.5140 N.2   801  HEM801      0.0000
     34  C1D       30.8900   56.4510   45.5370 C.2   801  HEM801      0.0000
     35  C2D       30.5430   55.2540   46.2870 C.2   801  HEM801      0.0000
     36  C3D       29.3250   54.6640   45.5770 C.2   801  HEM801      0.0000
     37  C4D       29.0430   55.5720   44.4750 C.2   801  HEM801      0.0000
     38  CMD       31.2600   54.7190   47.5520 C.3   801  HEM801      0.0000
     39  CAD       28.5030   53.4030   45.9560 C.3   801  HEM801      0.0000
     40  CBD       27.1840   53.9140   46.5780 C.3   801  HEM801      0.0000
     41  CGD       27.3720   55.0160   47.6370 C.2   801  HEM801      0.0000
     42  O1D       26.6680   56.0490   47.6050 O.co2 801  HEM801      0.0000
     43  O2D       28.1850   54.8840   48.5870 O.co2 801  HEM801      0.0000
@<TRIPOS>BOND
     1    22    19    1
     2    11     9    1
     3    15    14   ar
     4    19    18    1
     5    19    20    2
     6    14    13    1
     7    14    16   ar
     8     3    18    1
     9     3    10    2
    10    13    12    1
    11     9    10   ar
    12     9     8   ar
    13    18    17    2
    14    23    24    2
    15    23    20    1
    16    20    21    1
    17    10     6   ar
    18    12     8    1
    19     8     7   ar
    20    17    21    1
    21    17     1    1
    22    21     4    2
    23     6     7   ar
    24     6     1    1
    25     7     2    2
    26     4    26    1
    27     1    25    1
    28     1    33    1
    29     2    37    1
    30    26    25   ar
    31    26    27   ar
    32    25    29   ar
    33    37    33    2
    34    37    36    1
    35    33    34    1
    36    27    30    1
    37    27    28   ar
    38    29     5    1
    39    29    28   ar
    40    34     5    2
    41    34    35    1
    42    36    39    1
    43    36    35    2
    44    28    31    1
    45    39    40    1
    46    35    38    1
    47    40    41    1
    48    31    32    2
    49    42    41   ar
    50    41    43   ar
