@<TRIPOS>MOLECULE
2b7y_GLC_A_1.pdb
 12 12 0 0 0
SMALL
GASTEIGER

@<TRIPOS>ATOM
      1  C1       -20.3260   70.1020   32.7200 C.3   801  GLC801      0.3024
      2  C2       -20.8550   71.3230   32.0030 C.3   801  GLC801      0.2434
      3  C3       -19.9790   71.7250   30.8310 C.3   801  GLC801      0.2199
      4  C4       -18.4860   71.6540   31.1260 C.3   801  GLC801      0.2144
      5  C5       -18.1060   70.4130   31.9110 C.3   801  GLC801      0.1836
      6  C6       -16.6790   70.4980   32.4190 C.3   801  GLC801      0.2142
      7  O1       -20.5420   68.9840   31.8950 O.3   801  GLC801     -0.1869
      8  O2       -22.1060   70.9750   31.4900 O.3   801  GLC801     -0.2148
      9  O3       -20.3300   73.0310   30.4700 O.3   801  GLC801     -0.2174
     10  O4       -17.7810   71.6420   29.9130 O.3   801  GLC801     -0.2176
     11  O5       -18.9590   70.2870   33.0190 O.3   801  GLC801     -0.3236
     12  O6       -16.4780   71.7070   33.0980 O.3   801  GLC801     -0.2176
@<TRIPOS>BOND
     1    10     4    1
     2     9     3    1
     3     3     4    1
     4     3     2    1
     5     4     5    1
     6     8     2    1
     7     7     1    1
     8     5     6    1
     9     5    11    1
    10     2     1    1
    11     6    12    1
    12     1    11    1
