@<TRIPOS>MOLECULE
2b7z_MK1_B_1.pdb
 45 49 0 0 0
SMALL
GASTEIGER

@<TRIPOS>ATOM
      1  N1         4.9140   17.8040   11.8130 N.3   200  MK1200     -0.2661
      2  C1         5.7490   16.9160   12.6460 C.3   200  MK1200      0.0980
      3  C2         7.2310   17.3110   12.8060 C.3   200  MK1200      0.1527
      4  C3         7.8690   16.2430   13.6890 C.2   200  MK1200      0.2572
      5  O1         8.2330   15.1690   13.1920 O.2   200  MK1200     -0.2718
      6  N2         7.9980   16.5460   14.9930 N.am  200  MK1200     -0.2077
      7  C4         8.6030   15.6560   16.1230 C.3   200  MK1200      0.0788
      8  C5         8.5620   16.4040   17.4930 C.3   200  MK1200      0.0217
      9  C6        10.1320   15.4240   16.0130 C.3   200  MK1200      0.0217
     10  C7         7.7840   14.2580   16.2360 C.3   200  MK1200      0.0217
     11  N3         7.8370   17.4310   11.4450 N.3   200  MK1200     -0.2619
     12  C8         7.0340   18.2820   10.4950 C.3   200  MK1200      0.0901
     13  C9         5.5340   17.8870   10.4460 C.3   200  MK1200      0.0899
     14  C10        9.2580   17.8400   11.4930 C.3   200  MK1200      0.1057
     15  C11       10.0950   17.2720   10.3440 C.3   200  MK1200      0.1684
     16  O2        11.0950   18.2270    9.9720 O.3   200  MK1200     -0.2216
     17  C12       10.8730   15.9790   10.6410 C.3   200  MK1200      0.0438
     18  C13       11.7160   15.3870    9.4940 C.3   200  MK1200      0.0851
     19  C14       12.4500   14.2110   10.1790 C.3   200  MK1200      0.0356
     20  C15       13.2310   13.3260    9.2450 C.ar  200  MK1200     -0.0217
     21  C16       14.4050   13.7760    8.5810 C.ar  200  MK1200     -0.0043
     22  C17       15.0960   12.8950    7.7060 C.ar  200  MK1200     -0.0003
     23  C18       14.6090   11.5690    7.4990 C.ar  200  MK1200     -0.0000
     24  C19       13.4390   11.1250    8.1620 C.ar  200  MK1200     -0.0003
     25  C20       12.7530   11.9950    9.0300 C.ar  200  MK1200     -0.0043
     26  C21       10.8200   14.9040    8.3070 C.2   200  MK1200      0.2416
     27  O3         9.6280   14.6230    8.4660 O.2   200  MK1200     -0.2733
     28  N4        11.4430   14.8090    7.1190 N.am  200  MK1200     -0.2001
     29  C22       10.8310   14.3750    5.8460 C.3   200  MK1200      0.1477
     30  C23       11.8740   14.3630    4.6970 C.3   200  MK1200      0.1802
     31  O4        12.8480   15.3950    4.8760 O.3   200  MK1200     -0.2206
     32  C24       11.0250   14.3860    3.4460 C.3   200  MK1200      0.0611
     33  C25        9.8280   15.2640    3.6670 C.ar  200  MK1200     -0.0218
     34  C26        8.9500   15.9800    2.8360 C.ar  200  MK1200     -0.0044
     35  C27        7.9070   16.7210    3.4460 C.ar  200  MK1200     -0.0003
     36  C28        7.7460   16.7590    4.8630 C.ar  200  MK1200     -0.0003
     37  C29        8.6210   16.0420    5.7390 C.ar  200  MK1200     -0.0029
     38  C30        9.7040   15.2640    5.2370 C.ar  200  MK1200     -0.0040
     39  C31        3.4610   17.4180   11.8030 C.3   200  MK1200      0.1008
     40  C32        2.5770   17.2760   13.1190 C.ar  200  MK1200      0.0130
     41  C33        2.1880   18.3790   13.8990 C.ar  200  MK1200      0.0959
     42  N5         1.3660   18.2530   15.1270 N.ar  200  MK1200     -0.2426
     43  C34        0.9930   16.9120   15.4620 C.ar  200  MK1200      0.0989
     44  C35        1.3660   15.8000   14.7050 C.ar  200  MK1200      0.0204
     45  C36        2.1560   15.9830   13.5370 C.ar  200  MK1200      0.0002
@<TRIPOS>BOND
     1    34    35   ar
     2    34    33   ar
     3    35    36   ar
     4    32    33    1
     5    32    30    1
     6    33    38   ar
     7    30    31    1
     8    30    29    1
     9    36    37   ar
    10    38    37   ar
    11    38    29    1
    12    29    28    1
    13    28    26   am
    14    23    22   ar
    15    23    24   ar
    16    22    21   ar
    17    24    25   ar
    18    26    27    2
    19    26    18    1
    20    21    20   ar
    21    25    20   ar
    22    20    19    1
    23    18    19    1
    24    18    17    1
    25    16    15    1
    26    15    17    1
    27    15    14    1
    28    13    12    1
    29    13     1    1
    30    12    11    1
    31    11    14    1
    32    11     3    1
    33    39     1    1
    34    39    40    1
    35     1     2    1
    36     2     3    1
    37     3     4    1
    38    40    45   ar
    39    40    41   ar
    40     5     4    2
    41    45    44   ar
    42     4     6   am
    43    41    42   ar
    44    44    43   ar
    45     6     7    1
    46    42    43   ar
    47     9     7    1
    48     7    10    1
    49     7     8    1
