@<TRIPOS>MOLECULE
2b82_ADN_A_1.pdb
 19 21 0 0 0
SMALL
GASTEIGER

@<TRIPOS>ATOM
      1  O5'        0.1280   11.6540   29.2690 O.3   1001  ADN1001    -0.2176
      2  C5'        0.7680   10.7010   30.1060 C.3   1001  ADN1001     0.2143
      3  C4'        1.0660    9.4150   29.3380 C.3   1001  ADN1001     0.1851
      4  O4'       -0.1330    8.8720   28.7760 O.3   1001  ADN1001    -0.3134
      5  C3'        2.0530    9.6450   28.2040 C.3   1001  ADN1001     0.2186
      6  O3'        3.2390    8.9070   28.4520 O.3   1001  ADN1001    -0.2174
      7  C2'        1.3490    9.1880   26.9350 C.3   1001  ADN1001     0.2570
      8  O2'        2.0590    8.1400   26.2860 O.3   1001  ADN1001    -0.2130
      9  C1'       -0.0360    8.7080   27.3560 C.3   1001  ADN1001     0.3186
     10  N9        -1.1070    9.5090   26.6940 N.pl3 1001  ADN1001    -0.1439
     11  C8        -1.1730   10.8600   26.5650 C.3   1001  ADN1001     0.3377
     12  N7        -2.2970   11.2920   25.9050 N.2   1001  ADN1001    -0.2095
     13  C5        -2.9980   10.1890   25.5910 C.2   1001  ADN1001     0.2526
     14  C6        -4.2660    9.8120   24.9090 C.2   1001  ADN1001     0.4393
     15  N6        -5.0720   10.7690   24.3880 N.pl3 1001  ADN1001     0.2180
     16  N1        -4.6040    8.5010   24.8110 N.2   1001  ADN1001     0.0021
     17  C2        -3.8390    7.5060   25.3050 C.3   1001  ADN1001     0.5254
     18  N3        -2.6740    7.7140   25.9460 N.2   1001  ADN1001    -0.0055
     19  C4        -2.2160    9.0730   26.1070 C.2   1001  ADN1001     0.3518
@<TRIPOS>BOND
     1    15    14    1
     2    16    14    2
     3    16    17    1
     4    14    13    1
     5    17    18    1
     6    13    12    2
     7    13    19    1
     8    12    11    1
     9    18    19    2
    10    19    10    1
    11     8     7    1
    12    11    10    1
    13    10     9    1
    14     7     9    1
    15     7     5    1
    16     9     4    1
    17     5     6    1
    18     5     3    1
    19     4     3    1
    20     1     2    1
    21     3     2    1
