@<TRIPOS>MOLECULE
2b8g_BTN_A_1.pdb
 30 31 0 0 0
SMALL
GASTEIGER

@<TRIPOS>ATOM
      1  C11        2.9990  -29.2030   -6.0790 C.2   135  BTN135      0.1981
      2  O11        2.5630  -30.3330   -6.2990 O.2   135  BTN135     -0.2890
      3  C10        2.6620  -28.0430   -7.0200 C.3   135  BTN135      0.0134
      4  C9         1.3240  -27.3410   -6.7210 C.3   135  BTN135     -0.0459
      5  C8         1.0590  -26.9970   -5.2450 C.3   135  BTN135     -0.0516
      6  C7        -0.2840  -26.2590   -5.1200 C.3   135  BTN135     -0.0394
      7  C2        -0.6850  -26.0190   -3.6560 C.3   135  BTN135      0.0255
      8  S1        -1.1540  -27.4810   -2.7110 S.3   135  BTN135     -0.1536
      9  C6        -1.8350  -26.3980   -1.4450 C.3   135  BTN135      0.0143
     10  C5        -2.4820  -25.1930   -2.1350 C.3   135  BTN135      0.0529
     11  N1        -3.8470  -25.4940   -2.5180 N.am  135  BTN135     -0.2940
     12  C3        -4.0940  -25.5160   -3.8330 C.2   135  BTN135      0.3002
     13  O3        -5.1620  -25.7520   -4.3920 O.2   135  BTN135     -0.2528
     14  N2        -2.9250  -25.2080   -4.4060 N.am  135  BTN135     -0.2937
     15  C4        -1.8150  -24.9810   -3.4970 C.3   135  BTN135      0.0555
     16 H101        2.6280  -28.4230   -8.0440 H     135  BTN135      0.0346
     17 H102        3.4660  -27.3070   -6.9740 H     135  BTN135      0.0346
     18  H91        0.5110  -27.9730   -7.0780 H     135  BTN135      0.0269
     19  H92        1.3050  -26.4140   -7.2980 H     135  BTN135      0.0269
     20  H81        1.8590  -26.3620   -4.8590 H     135  BTN135      0.0266
     21  H82        1.0200  -27.9170   -4.6600 H     135  BTN135      0.0266
     22  H71       -1.0640  -26.8450   -5.6080 H     135  BTN135      0.0276
     23  H72       -0.2020  -25.2970   -5.6290 H     135  BTN135      0.0276
     24  H2         0.1830  -25.6060   -3.1460 H     135  BTN135      0.0431
     25  H61       -1.0120  -26.0390   -0.8260 H     135  BTN135      0.0395
     26  H62       -2.5520  -26.9300   -0.8200 H     135  BTN135      0.0395
     27  H5        -2.4350  -24.2990   -1.5130 H     135  BTN135      0.0525
     28  HN1       -4.5560  -25.6760   -1.8230 H     135  BTN135      0.1506
     29  HN2       -2.8020  -25.1430   -5.4060 H     135  BTN135      0.1506
     30  H4        -1.4420  -23.9640   -3.6080 H     135  BTN135      0.0528
@<TRIPOS>BOND
     1    16     3    1
     2    19     4    1
     3    18     4    1
     4     3    17    1
     5     3     4    1
     6     3     1    1
     7     4     5    1
     8     2     1    2
     9    23     6    1
    10    22     6    1
    11    29    14    1
    12     5     6    1
    13     5    20    1
    14     5    21    1
    15     6     7    1
    16    14    12   am
    17    14    15    1
    18    13    12    2
    19    12    11   am
    20     7    15    1
    21     7    24    1
    22     7     8    1
    23    30    15    1
    24    15    10    1
    25     8     9    1
    26    11    10    1
    27    11    28    1
    28    10    27    1
    29    10     9    1
    30     9    25    1
    31     9    26    1
