@<TRIPOS>MOLECULE
2b8h_MAN_A_1.pdb
 11 11 0 0 0
SMALL
GASTEIGER

@<TRIPOS>ATOM
      1  C1       -35.3270   44.2780  -15.4700 C.3   506  MAN506      0.1777
      2  C2       -36.8160   44.2390  -15.1090 C.3   506  MAN506      0.2141
      3  C3       -37.0470   43.9820  -13.6160 C.3   506  MAN506      0.2173
      4  C4       -36.3140   42.6980  -13.2100 C.3   506  MAN506      0.2142
      5  C5       -34.8400   42.8000  -13.6480 C.3   506  MAN506      0.1810
      6  C6       -33.9450   41.5670  -13.3800 C.3   506  MAN506      0.2141
      7  O2       -37.2270   43.1850  -15.9760 O.3   506  MAN506     -0.2176
      8  O3       -38.4140   43.9350  -13.2400 O.3   506  MAN506     -0.2175
      9  O4       -36.3980   42.5490  -11.7780 O.3   506  MAN506     -0.2176
     10  O5       -34.7020   43.0870  -15.0410 O.3   506  MAN506     -0.3481
     11  O6       -32.5520   41.9840  -13.4290 O.3   506  MAN506     -0.2176
@<TRIPOS>BOND
     1     7     2    1
     2     1     2    1
     3     1    10    1
     4     2     3    1
     5    10     5    1
     6     5     6    1
     7     5     4    1
     8     3     8    1
     9     3     4    1
    10    11     6    1
    11     4     9    1
