@<TRIPOS>MOLECULE
2b8h_BMA_A_1.pdb
 11 11 0 0 0
SMALL
GASTEIGER

@<TRIPOS>ATOM
      1  C1       -31.3380   46.7070  -14.3720 C.3   505  BMA505      0.1777
      2  C2       -32.6930   46.1340  -13.9530 C.3   505  BMA505      0.2141
      3  C3       -33.4630   45.7210  -15.2270 C.3   505  BMA505      0.2173
      4  C4       -33.5240   46.8730  -16.2030 C.3   505  BMA505      0.2142
      5  C5       -32.1260   47.3670  -16.5110 C.3   505  BMA505      0.1810
      6  C6       -32.1420   48.5600  -17.4490 C.3   505  BMA505      0.2141
      7  O2       -33.4250   47.1180  -13.1890 O.3   505  BMA505     -0.2176
      8  O3       -34.8070   45.4580  -14.8550 O.3   505  BMA505     -0.2175
      9  O4       -34.2490   46.5570  -17.3570 O.3   505  BMA505     -0.2176
     10  O5       -31.5130   47.7640  -15.2750 O.3   505  BMA505     -0.3481
     11  O6       -30.8270   48.8990  -17.9090 O.3   505  BMA505     -0.2176
@<TRIPOS>BOND
     1    11     6    1
     2     6     5    1
     3     9     4    1
     4     5     4    1
     5     5    10    1
     6     4     3    1
     7    10     1    1
     8     3     8    1
     9     3     2    1
    10     1     2    1
    11     2     7    1
