@<TRIPOS>MOLECULE
2b8j_ADN_B_1.pdb
 19 21 0 0 0
SMALL
GASTEIGER

@<TRIPOS>ATOM
      1  O5'       -3.3720  -12.5430   28.2530 O.3   331  ADN331     -0.2176
      2  C5'       -2.9850  -11.4930   27.3510 C.3   331  ADN331      0.2143
      3  C4'       -1.7810  -10.7600   27.9250 C.3   331  ADN331      0.1851
      4  O4'       -0.8700  -10.2450   26.9310 O.3   331  ADN331     -0.3134
      5  C3'       -0.9320  -11.7030   28.7440 C.3   331  ADN331      0.2186
      6  O3'       -1.4830  -11.9770   30.0410 O.3   331  ADN331     -0.2174
      7  C2'        0.3500  -10.9190   28.8120 C.3   331  ADN331      0.2570
      8  O2'        0.2620   -9.9630   29.8510 O.3   331  ADN331     -0.2130
      9  C1'        0.4540  -10.1810   27.4880 C.3   331  ADN331      0.3186
     10  N9         1.5830  -10.8380   26.7480 N.pl3 331  ADN331     -0.1439
     11  C8         1.7760  -12.1720   26.6670 C.3   331  ADN331      0.3377
     12  N7         2.9010  -12.4860   25.9710 N.2   331  ADN331     -0.2095
     13  C5         3.4630  -11.3300   25.5940 C.2   331  ADN331      0.2526
     14  C6         4.6830  -10.9580   24.8250 C.2   331  ADN331      0.4393
     15  N6         5.4660  -11.9720   24.3500 N.pl3 331  ADN331      0.2180
     16  N1         4.9720   -9.6190   24.6190 N.2   331  ADN331      0.0021
     17  C2         4.1470   -8.6800   25.1130 C.3   331  ADN331      0.5254
     18  N3         2.9970   -8.9520   25.8290 N.2   331  ADN331     -0.0055
     19  C4         2.6040  -10.2440   26.1080 C.2   331  ADN331      0.3518
@<TRIPOS>BOND
     1    15    14    1
     2    16    14    2
     3    16    17    1
     4    14    13    1
     5    17    18    1
     6    13    12    2
     7    13    19    1
     8    18    19    2
     9    12    11    1
    10    19    10    1
    11    11    10    1
    12    10     9    1
    13     4     9    1
    14     4     3    1
    15     2     3    1
    16     2     1    1
    17     9     7    1
    18     3     5    1
    19     5     7    1
    20     5     6    1
    21     7     8    1
