@<TRIPOS>MOLECULE
2b8l_5HA_A_1.pdb
 41 44 0 0 0
SMALL
GASTEIGER

@<TRIPOS>ATOM
      1  C1        26.3510   36.1890    2.5230 C.3   386  5HA386      0.0188
      2  C2        27.6740   35.5740    2.2480 C.3   386  5HA386      0.0730
      3  C3        26.6870   34.8080    3.0100 C.3   386  5HA386      0.0188
      4  N1        28.7390   36.1050    3.1150 N.3   386  5HA386     -0.2167
      5  C4        29.4720   37.1040    2.3060 C.3   386  5HA386      0.1232
      6  C5        30.8030   37.5220    2.9770 C.3   386  5HA386      0.1894
      7  C6        31.5650   38.4160    2.0240 C.3   386  5HA386      0.1316
      8  N2        30.8790   39.7120    2.0350 N.am  386  5HA386     -0.2004
      9  C7        30.1950   40.1720    0.9560 C.2   386  5HA386      0.2649
     10  O2        29.8870   39.4610    0.0010 O.2   386  5HA386     -0.2684
     11  O3        31.4810   36.2790    3.1410 O.3   386  5HA386     -0.2197
     12  C8        33.0760   38.5650    2.3680 C.3   386  5HA386      0.0507
     13  C9        29.8320   41.5880    1.0060 C.ar  386  5HA386      0.0565
     14  C10       30.7330   42.5670    1.4570 C.ar  386  5HA386      0.0092
     15  C11       30.3830   43.9310    1.5110 C.ar  386  5HA386      0.0565
     16  C12       29.0920   44.2990    1.0720 C.ar  386  5HA386      0.0207
     17  C13       28.1320   43.3290    0.6230 C.ar  386  5HA386      0.0688
     18  C14       28.5300   41.9660    0.5900 C.ar  386  5HA386      0.0207
     19  C15       31.3360   44.9360    2.0430 C.2   386  5HA386      0.2651
     20  N3        26.7880   43.6240    0.3260 N.pl3 386  5HA386     -0.1925
     21  O4        31.4420   46.0700    1.6050 O.2   386  5HA386     -0.2684
     22  C16       26.1150   42.9320   -0.8000 C.3   386  5HA386      0.1388
     23  S1        25.9620   44.8620    1.0060 S.O2  386  5HA386      0.0588
     24  C23       26.3100   46.3310    0.0220 C.3   386  5HA386      0.1999
     25  O5        24.5520   44.5630    0.9080 O.2   386  5HA386     -0.1542
     26  O6        26.4980   45.1150    2.3010 O.2   386  5HA386     -0.1542
     27  C24       33.7200   40.0050    0.3100 C.ar  386  5HA386     -0.0042
     28  C25       34.4600   41.0710   -0.2550 C.ar  386  5HA386     -0.0003
     29  C26       35.2490   41.8810    0.5760 C.ar  386  5HA386     -0.0000
     30  C27       35.3150   41.6660    1.9560 C.ar  386  5HA386     -0.0003
     31  C28       34.5650   40.5900    2.5280 C.ar  386  5HA386     -0.0042
     32  C29       33.7790   39.7520    1.7110 C.ar  386  5HA386     -0.0204
     33  N4        32.1030   44.5090    3.0840 N.am  386  5HA386     -0.1989
     34  C17       33.0780   45.2910    3.8410 C.3   386  5HA386      0.1178
     35  C18       34.4390   44.5080    3.8880 C.3   386  5HA386      0.0283
     36  C30       32.5470   45.6460    5.1880 C.ar  386  5HA386     -0.0026
     37  C31       32.1710   44.6650    6.1520 C.ar  386  5HA386     -0.0026
     38  C32       31.7740   45.0460    7.4420 C.ar  386  5HA386     -0.0003
     39  C33       31.6940   46.4230    7.7970 C.ar  386  5HA386     -0.0000
     40  C34       31.9930   47.3820    6.8210 C.ar  386  5HA386     -0.0003
     41  C35       32.4230   47.0030    5.5410 C.ar  386  5HA386     -0.0026
@<TRIPOS>BOND
     1    22    20    1
     2    28    27   ar
     3    28    29   ar
     4    10     9    2
     5    24    23    1
     6    27    32   ar
     7    20    17    1
     8    20    23    1
     9    29    30   ar
    10    18    17   ar
    11    18    13   ar
    12    17    16   ar
    13    25    23    2
    14     9    13    1
    15     9     8   am
    16    23    26    2
    17    13    14   ar
    18    16    15   ar
    19    14    15   ar
    20    15    19    1
    21    21    19    2
    22    32    12    1
    23    32    31   ar
    24    30    31   ar
    25     7     8    1
    26     7    12    1
    27     7     6    1
    28    19    33   am
    29     2     1    1
    30     2     3    1
    31     2     4    1
    32     5     6    1
    33     5     4    1
    34     1     3    1
    35     6    11    1
    36    33    34    1
    37    34    35    1
    38    34    36    1
    39    36    41   ar
    40    36    37   ar
    41    41    40   ar
    42    37    38   ar
    43    40    39   ar
    44    38    39   ar
