@<TRIPOS>MOLECULE
2b8o_GLC_L_1.pdb
 11 11 0 0 0
SMALL
GASTEIGER

@<TRIPOS>ATOM
      1  C1        37.9970   34.0120   64.3370 C.3   501  GLC501      0.1777
      2  C2        37.8800   33.1720   63.0120 C.3   501  GLC501      0.2141
      3  C3        39.3340   32.8370   62.5150 C.3   501  GLC501      0.2173
      4  C4        40.1160   34.1630   62.2750 C.3   501  GLC501      0.2142
      5  C5        40.1230   34.9830   63.5870 C.3   501  GLC501      0.1810
      6  C6        40.7520   36.4030   63.3730 C.3   501  GLC501      0.2141
      7  O2        37.1210   31.9540   63.2200 O.3   501  GLC501     -0.2176
      8  O3        39.2950   32.0540   61.2980 O.3   501  GLC501     -0.2175
      9  O4        41.4930   33.9520   61.7960 O.3   501  GLC501     -0.2176
     10  O5        38.7820   35.1760   64.0770 O.3   501  GLC501     -0.3481
     11  O6        39.9210   37.5520   63.7250 O.3   501  GLC501     -0.2176
@<TRIPOS>BOND
     1     8     3    1
     2     9     4    1
     3     4     3    1
     4     4     5    1
     5     3     2    1
     6     2     7    1
     7     2     1    1
     8     6     5    1
     9     6    11    1
    10     5    10    1
    11    10     1    1
