@<TRIPOS>MOLECULE
2b8o_0GJ_H_1.pdb
 25 24 0 0 0
SMALL
GASTEIGER

@<TRIPOS>ATOM
      1  N         34.5250    5.7630   11.5740 N.3     1  0GJ1       -0.1231
      2  CA        33.8490    6.0850   10.3180 C.3     1  0GJ1        0.1699
      3  C         33.2000    7.4750   10.5000 C.2     1  0GJ1        0.2593
      4  O         32.4390    7.7090   11.4560 O.2     1  0GJ1       -0.2718
      5  CB        32.8570    5.0100    9.7150 C.3     1  0GJ1        0.0402
      6  CG        33.5170    3.6210    9.4470 C.3     1  0GJ1        0.1161
      7  CD        33.4410    2.7130   10.6940 C.2     1  0GJ1        0.3649
      8  OE1       32.7260    1.6450   10.6850 O.co2   1  0GJ1       -0.2457
      9  OE2       34.0810    3.0030   11.7600 O.co2   1  0GJ1       -0.2457
     10  N1        33.4630    8.4710    9.6090 N.am    1  0GJ1       -0.1942
     11  CA1       32.4200    9.2370    8.8490 C.3     1  0GJ1        0.2014
     12  C1        31.1920    8.5400    8.7280 C.2     1  0GJ1        0.2635
     13  O1        31.2060    7.2990    8.5350 O.2     1  0GJ1       -0.2714
     14  N2        29.9920    9.2160    8.8280 N.am    1  0GJ1       -0.2031
     15  CA2       28.7210    8.5030    9.1890 C.3     1  0GJ1        0.1257
     16  C2        27.6400    9.0180    8.1540 C.3     1  0GJ1        0.1718
     17  O2        26.3500    9.0080    8.8850 O.3     1  0GJ1       -0.2213
     18  CB1       28.4370    8.7840   10.7020 C.3     1  0GJ1        0.0280
     19  CG1       29.1950    7.8160   11.6410 C.3     1  0GJ1        0.0488
     20  CD1       28.8230    8.0190   13.0860 C.3     1  0GJ1        0.2205
     21  NE        29.5750    7.0780   13.8860 N.pl3   1  0GJ1       -0.0865
     22  CZ        29.4900    6.9700   15.2550 C.cat   1  0GJ1        0.5346
     23  NH1       30.2440    6.0450   15.9160 N.pl3   1  0GJ1        0.1354
     24  NH2       28.6470    7.7880   15.9810 N.pl3   1  0GJ1        0.1354
     25  C3        27.3230    8.6030    6.7780 C.3     1  0GJ1        0.0373
@<TRIPOS>BOND
     1    25    16    1
     2    16    17    1
     3    16    15    1
     4    13    12    2
     5    12    14   am
     6    12    11    1
     7    14    15    1
     8    11    10    1
     9    15    18    1
    10     6     5    1
    11     6     7    1
    12    10     3   am
    13     5     2    1
    14     2     3    1
    15     2     1    1
    16     3     4    2
    17     8     7   ar
    18     7     9   ar
    19    18    19    1
    20    19    20    1
    21    20    21    1
    22    21    22    2
    23    22    23    1
    24    22    24    1
