@<TRIPOS>MOLECULE
2b8o_FUC_L_1.pdb
 10 10 0 0 0
SMALL
GASTEIGER

@<TRIPOS>ATOM
      1  C1        21.6020   31.6140   63.8280 C.3   502  FUC502      0.1776
      2  C2        20.5950   32.7220   64.2950 C.3   502  FUC502      0.2141
      3  C3        19.8900   33.3240   63.0880 C.3   502  FUC502      0.2172
      4  C4        19.1730   32.1850   62.3290 C.3   502  FUC502      0.2116
      5  C5        20.2590   31.1350   61.8980 C.3   502  FUC502      0.1483
      6  C6        19.6560   29.9660   61.1040 C.3   502  FUC502      0.0349
      7  O2        21.2760   33.7520   65.0270 O.3   502  FUC502     -0.2176
      8  O3        18.9530   34.3350   63.5230 O.3   502  FUC502     -0.2175
      9  O4        18.1850   31.5440   63.1890 O.3   502  FUC502     -0.2177
     10  O5        20.9500   30.5870   63.0630 O.3   502  FUC502     -0.3508
@<TRIPOS>BOND
     1     6     5    1
     2     5     4    1
     3     5    10    1
     4     4     3    1
     5     4     9    1
     6    10     1    1
     7     3     8    1
     8     3     2    1
     9     1     2    1
    10     2     7    1
