@<TRIPOS>MOLECULE
2b8q_TYD_A_1.pdb
 25 26 0 0 0
SMALL
GASTEIGER

@<TRIPOS>ATOM
      1  PA       -11.5970   15.8440   18.3880 P.3   160  TYD160      0.2231
      2  O1A      -11.0380   15.8120   19.7600 O.3   160  TYD160     -0.4370
      3  O2A      -11.9400   17.3450   17.9180 O.2   160  TYD160     -0.5169
      4  O3A      -10.5780   15.2840   17.2680 O.3   160  TYD160     -0.2261
      5  PB        -9.4730   14.1420   17.5480 P.3   160  TYD160      0.5373
      6  O1B      -10.3080   12.9240   17.4560 O.3   160  TYD160     -0.1143
      7  O2B       -8.9520   14.7230   18.9570 O.3   160  TYD160     -0.1143
      8  O3B       -8.5250   14.6330   16.3430 O.2   160  TYD160     -0.2221
      9  O5'      -12.9690   15.0200   18.2280 O.3   160  TYD160     -0.3111
     10  C5'      -13.0330   13.6480   18.6230 C.3   160  TYD160      0.1812
     11  C4'      -13.9440   12.8830   17.6620 C.3   160  TYD160      0.1773
     12  O4'      -15.2760   13.4200   17.6270 O.3   160  TYD160     -0.3339
     13  C3'      -13.4520   13.0290   16.2220 C.3   160  TYD160      0.1857
     14  O3'      -12.3350   12.1610   16.0140 O.3   160  TYD160     -0.2203
     15  C2'      -14.6930   12.4560   15.5420 C.3   160  TYD160      0.0874
     16  C1'      -15.7900   13.2130   16.2960 C.3   160  TYD160      0.2090
     17  N1       -16.0570   14.5320   15.6750 N.am  160  TYD160     -0.1794
     18  C2       -17.1090   14.6620   14.7570 C.1   160  TYD160      0.2844
     19  O2       -17.8080   13.6930   14.4620 O.2   160  TYD160     -0.1918
     20  N3       -17.3760   15.9140   14.1910 N.2   160  TYD160     -0.2455
     21  C4       -16.6030   17.0290   14.5410 C.1   160  TYD160      0.2134
     22  O4       -16.8590   18.1240   14.0430 O.2   160  TYD160     -0.2088
     23  C5       -15.5600   16.8990   15.4530 C.2   160  TYD160      0.0891
     24  C5M      -14.7190   18.1160   15.8460 C.3   160  TYD160      0.0462
     25  C6       -15.2900   15.6550   16.0150 C.2   160  TYD160      0.0877
@<TRIPOS>BOND
     1    22    21    2
     2    20    21    2
     3    20    18    2
     4    19    18    2
     5    21    23    1
     6    18    17   am
     7    23    24    1
     8    23    25    2
     9    15    13    1
    10    15    16    1
    11    17    25    1
    12    17    16    1
    13    14    13    1
    14    13    11    1
    15    16    12    1
    16     8     5    2
    17     4     5    1
    18     4     1    1
    19     6     5    1
    20     5     7    1
    21    12    11    1
    22    11    10    1
    23     3     1    2
    24     9     1    1
    25     9    10    1
    26     1     2    1
