@<TRIPOS>MOLECULE
2b8t_THM_A_1.pdb
 17 18 0 0 0
SMALL
GASTEIGER

@<TRIPOS>ATOM
      1  O5'      -10.6120    3.8570   31.1350 O.3   4970  THM4970    -0.2176
      2  C5'      -10.0180    4.1200   32.4090 C.3   4970  THM4970     0.2141
      3  C4'      -11.0890    4.0170   33.4850 C.3   4970  THM4970     0.1802
      4  O4'      -10.4610    3.7370   34.7350 O.3   4970  THM4970    -0.3338
      5  C3'      -11.8520    5.3220   33.6630 C.3   4970  THM4970     0.1858
      6  O3'      -13.2360    5.0210   33.8860 O.3   4970  THM4970    -0.2203
      7  C2'      -11.2750    5.9610   34.9130 C.3   4970  THM4970     0.0874
      8  C1'      -10.8140    4.7410   35.6920 C.3   4970  THM4970     0.2090
      9  N1        -9.7080    4.9760   36.6280 N.am  4970  THM4970    -0.1794
     10  C2        -9.8910    4.5310   37.9590 C.1   4970  THM4970     0.2844
     11  O2       -10.9610    3.9680   38.2880 O.2   4970  THM4970    -0.1918
     12  N3        -8.9350    4.6940   38.8810 N.2   4970  THM4970    -0.2455
     13  C4        -7.7760    5.2860   38.5820 C.1   4970  THM4970     0.2134
     14  O4        -6.9050    5.4200   39.4670 O.2   4970  THM4970    -0.2088
     15  C5        -7.5470    5.7640   37.1890 C.2   4970  THM4970     0.0891
     16  C5M       -6.2470    6.4310   36.8180 C.3   4970  THM4970     0.0462
     17  C6        -8.5650    5.5830   36.2520 C.2   4970  THM4970     0.0877
@<TRIPOS>BOND
     1     1     2    1
     2     2     3    1
     3     3     5    1
     4     3     4    1
     5     5     6    1
     6     5     7    1
     7     4     8    1
     8     7     8    1
     9     8     9    1
    10    17     9    1
    11    17    15    2
    12     9    10   am
    13    16    15    1
    14    15    13    1
    15    10    11    2
    16    10    12    2
    17    13    12    2
    18    13    14    2
