@<TRIPOS>MOLECULE
2b8v_3BN_A_1.pdb
 38 41 0 0 0
SMALL
GASTEIGER

@<TRIPOS>ATOM
      1  C1        26.7390   36.0650    2.7320 C.3   1001  3BN1001     0.0188
      2  C2        28.0150   35.2090    2.6140 C.3   1001  3BN1001     0.0730
      3  C3        26.7110   34.6590    3.1270 C.3   1001  3BN1001     0.0188
      4  N1        28.7740   36.2310    3.1570 N.3   1001  3BN1001    -0.2167
      5  C4        29.5950   37.1820    2.4740 C.3   1001  3BN1001     0.1232
      6  C5        31.0020   37.4510    3.0310 C.3   1001  3BN1001     0.1894
      7  C6        31.7630   38.4030    2.0850 C.3   1001  3BN1001     0.1316
      8  N2        31.0740   39.6990    2.0660 N.am  1001  3BN1001    -0.2004
      9  C7        30.3750   40.1420    1.0100 C.2   1001  3BN1001     0.2649
     10  O2        30.0950   39.4110    0.0510 O.2   1001  3BN1001    -0.2684
     11  O3        31.7010   36.3200    3.1110 O.3   1001  3BN1001    -0.2197
     12  C8        33.2020   38.6230    2.5760 C.3   1001  3BN1001     0.0507
     13  C9        29.9760   41.5550    1.1000 C.ar  1001  3BN1001     0.0564
     14  C10       30.8890   42.6020    1.4720 C.ar  1001  3BN1001     0.0078
     15  C11       30.4740   43.9840    1.5270 C.ar  1001  3BN1001     0.0404
     16  C12       29.1110   44.2850    1.1950 C.ar  1001  3BN1001     0.0193
     17  C13       28.1560   43.2540    0.8260 C.ar  1001  3BN1001     0.0688
     18  C14       28.6300   41.8950    0.7870 C.ar  1001  3BN1001     0.0207
     19  C15       31.3850   45.1240    1.8380 C.2   1001  3BN1001     0.1956
     20  N3        26.8220   43.5060    0.5190 N.pl3 1001  3BN1001    -0.1925
     21  O4        31.2360   46.2030    1.2640 O.2   1001  3BN1001    -0.2866
     22  C16       26.1510   42.7980   -0.6070 C.3   1001  3BN1001     0.1388
     23  C17       32.3570   44.2730    4.0630 C.ar  1001  3BN1001     0.0032
     24  C18       33.5360   44.0570    4.8720 C.ar  1001  3BN1001     0.0001
     25  C19       34.7950   44.6010    4.3970 C.ar  1001  3BN1001     0.0000
     26  C20       34.9050   45.4720    3.2410 C.ar  1001  3BN1001     0.0001
     27  C21       33.7210   45.6780    2.4320 C.ar  1001  3BN1001     0.0032
     28  C22       32.4780   45.0090    2.8100 C.ar  1001  3BN1001     0.0390
     29  S1        25.9900   44.7670    1.1370 S.O2  1001  3BN1001     0.0588
     30  C23       26.3160   46.1850    0.0880 C.3   1001  3BN1001     0.1999
     31  O5        24.6060   44.4540    1.0320 O.2   1001  3BN1001    -0.1542
     32  O6        26.5170   45.0760    2.4240 O.2   1001  3BN1001    -0.1542
     33  C24       33.9150   39.7060    0.2790 C.ar  1001  3BN1001    -0.0042
     34  C25       34.6130   40.7760   -0.4050 C.ar  1001  3BN1001    -0.0003
     35  C26       35.3000   41.7660    0.3950 C.ar  1001  3BN1001    -0.0000
     36  C27       35.3550   41.7400    1.8520 C.ar  1001  3BN1001    -0.0003
     37  C28       34.6370   40.6790    2.5310 C.ar  1001  3BN1001    -0.0042
     38  C29       33.9280   39.6770    1.7550 C.ar  1001  3BN1001    -0.0204
@<TRIPOS>BOND
     1    22    20    1
     2    34    33   ar
     3    34    35   ar
     4    10     9    2
     5    30    29    1
     6    33    38   ar
     7    35    36   ar
     8    20    17    1
     9    20    29    1
    10    18    17   ar
    11    18    13   ar
    12    17    16   ar
    13     9    13    1
    14     9     8   am
    15    31    29    2
    16    13    14   ar
    17    29    32    2
    18    16    15   ar
    19    21    19    2
    20    14    15   ar
    21    15    19    1
    22    38    37   ar
    23    38    12    1
    24    19    28    1
    25    36    37   ar
    26     8     7    1
    27     7    12    1
    28     7     6    1
    29    27    28   ar
    30    27    26   ar
    31     5     6    1
    32     5     4    1
    33     2     1    1
    34     2     3    1
    35     2     4    1
    36     1     3    1
    37    28    23   ar
    38     6    11    1
    39    26    25   ar
    40    23    24   ar
    41    25    24   ar
