@<TRIPOS>MOLECULE
2b8w_5GP_A_1.pdb
 24 26 0 0 0
SMALL
GASTEIGER

@<TRIPOS>ATOM
      1  P         67.8020   15.5500   11.0670 P.3   593  5GP593      0.5327
      2  O1P       66.5350   14.8700   11.3730 O.3   593  5GP593     -0.1145
      3  O2P       68.8540   14.6740   10.2030 O.2   593  5GP593     -0.2224
      4  O3P       67.5180   16.9150   10.2740 O.3   593  5GP593     -0.1145
      5  O5'       68.5260   15.9880   12.4150 O.3   593  5GP593     -0.2675
      6  C5'       68.7260   15.0410   13.4500 C.3   593  5GP593      0.1859
      7  C4'       69.8130   15.5610   14.3810 C.3   593  5GP593      0.1801
      8  O4'       69.4440   16.9080   14.7980 O.3   593  5GP593     -0.3326
      9  C3'       69.8420   14.7100   15.6470 C.3   593  5GP593      0.2158
     10  O3'       71.1950   14.6180   16.1020 O.3   593  5GP593     -0.2175
     11  C2'       69.0440   15.5600   16.6200 C.3   593  5GP593      0.2310
     12  O2'       69.4520   15.2480   17.9520 O.3   593  5GP593     -0.2158
     13  C1'       69.5490   16.9360   16.2320 C.3   593  5GP593      0.2293
     14  N9        68.7250   18.0640   16.7240 N.pl3 593  5GP593     -0.2354
     15  C8        67.4770   18.0210   17.2010 C.3   593  5GP593      0.2246
     16  N7        67.0230   19.2710   17.3340 N.2   593  5GP593     -0.2322
     17  C5        68.0050   20.1140   17.0090 C.2   593  5GP593      0.2182
     18  C6        68.1010   21.5050   16.9640 C.1   593  5GP593      0.2372
     19  O6        67.1740   22.2070   17.3680 O.2   593  5GP593     -0.2069
     20  N1        69.2910   22.1080   16.5270 N.2   593  5GP593     -0.2485
     21  C2        70.3920   21.3170   16.1740 C.1   593  5GP593      0.2531
     22  N2        71.5640   21.8780   15.8940 N.pl3 593  5GP593     -0.0226
     23  N3        70.2550   19.9280   16.1360 N.2   593  5GP593     -0.3074
     24  C4        69.0950   19.3360   16.6460 C.2   593  5GP593      0.2300
@<TRIPOS>BOND
     1     3     1    2
     2     4     1    1
     3     1     2    1
     4     1     5    1
     5     5     6    1
     6     6     7    1
     7     7     8    1
     8     7     9    1
     9     8    13    1
    10     9    10    1
    11     9    11    1
    12    22    21    1
    13    23    21    2
    14    23    24    2
    15    21    20    2
    16    13    11    1
    17    13    14    1
    18    20    18    2
    19    11    12    1
    20    24    14    1
    21    24    17    1
    22    14    15    1
    23    18    17    1
    24    18    19    2
    25    17    16    2
    26    15    16    1
