@<TRIPOS>MOLECULE
2b92_GDP_A_1.pdb
 28 30 0 0 0
SMALL
GASTEIGER

@<TRIPOS>ATOM
      1  PB        67.8050   15.1510   10.7590 P.3   593  GDP593      0.5373
      2  O1B       67.4630   16.3970   10.2260 O.3   593  GDP593     -0.1143
      3  O2B       66.7390   14.2670   10.9000 O.3   593  GDP593     -0.1143
      4  O3B       68.8500   14.4280   10.0650 O.2   593  GDP593     -0.2221
      5  O3A       68.3860   15.3220   12.2750 O.3   593  GDP593     -0.2261
      6  PA        67.7280   14.4580   13.5220 P.3   593  GDP593      0.2231
      7  O1A       66.2960   14.8000   13.7710 O.3   593  GDP593     -0.4370
      8  O2A       67.9520   12.8880   13.1410 O.2   593  GDP593     -0.5169
      9  O5'       68.6590   14.7460   14.7960 O.3   593  GDP593     -0.3111
     10  C5'       70.0380   14.5380   14.7080 C.3   593  GDP593      0.1813
     11  C4'       70.7200   14.9310   16.0310 C.3   593  GDP593      0.1799
     12  O4'       70.4660   16.4070   16.3280 O.3   593  GDP593     -0.3326
     13  C3'       70.1030   14.1650   17.2050 C.3   593  GDP593      0.2158
     14  O3'       71.1220   13.8850   18.1800 O.3   593  GDP593     -0.2175
     15  C2'       69.1070   15.1350   17.7810 C.3   593  GDP593      0.2310
     16  O2'       68.8820   14.8260   19.1740 O.3   593  GDP593     -0.2158
     17  C1'       69.8230   16.4490   17.6710 C.3   593  GDP593      0.2293
     18  N9        68.8710   17.6080   17.6760 N.pl3 593  GDP593     -0.2354
     19  C8        67.5300   17.5500   17.5670 C.3   593  GDP593      0.2246
     20  N7        67.0490   18.8110   17.5600 N.2   593  GDP593     -0.2322
     21  C5        68.0790   19.6400   17.6240 C.2   593  GDP593      0.2182
     22  C6        68.1680   21.0220   17.6540 C.1   593  GDP593      0.2372
     23  O6        67.1470   21.7160   17.6030 O.2   593  GDP593     -0.2069
     24  N1        69.4010   21.6170   17.7360 N.2   593  GDP593     -0.2485
     25  C2        70.5390   20.8190   17.7930 C.1   593  GDP593      0.2531
     26  N2        71.7370   21.3860   17.8700 N.pl3 593  GDP593     -0.0226
     27  N3        70.4310   19.4710   17.7660 N.2   593  GDP593     -0.3074
     28  C4        69.2240   18.8800   17.6900 C.2   593  GDP593      0.2300
@<TRIPOS>BOND
     1     4     1    2
     2     2     1    1
     3     1     3    1
     4     1     5    1
     5     5     6    1
     6     8     6    2
     7     6     7    1
     8     6     9    1
     9    10     9    1
    10    10    11    1
    11    11    12    1
    12    11    13    1
    13    12    17    1
    14    13    15    1
    15    13    14    1
    16    20    19    1
    17    20    21    2
    18    19    18    1
    19    23    22    2
    20    21    22    1
    21    21    28    1
    22    22    24    2
    23    17    18    1
    24    17    15    1
    25    18    28    1
    26    28    27    2
    27    24    25    2
    28    27    25    2
    29    15    16    1
    30    25    26    1
