@<TRIPOS>MOLECULE
2b96_ANN_A_1.pdb
 11 11 0 0 0
SMALL
GASTEIGER

@<TRIPOS>ATOM
      1  C8        30.1720   -1.0110   68.3150 C.3   501  ANN501      0.2525
      2  O3        29.4710   -0.1450   67.3480 O.3   501  ANN501     -0.4714
      3  C5        29.9490    1.1010   67.0470 C.ar  501  ANN501      0.1387
      4  C6        31.1220    1.7390   67.5910 C.ar  501  ANN501      0.0371
      5  C7        31.4820    3.0480   67.1550 C.ar  501  ANN501      0.0097
      6  C2        30.6870    3.7930   66.1770 C.ar  501  ANN501      0.0800
      7  C3        29.5170    3.1200   65.6590 C.ar  501  ANN501      0.0097
      8  C4        29.1320    1.8080   66.0730 C.ar  501  ANN501      0.0371
      9  C1        31.1830    5.1940   65.7840 C.2   501  ANN501      0.3878
     10  O1        30.5320    5.8040   64.9610 O.co2 501  ANN501     -0.2406
     11  O2        32.2650    5.7100   66.3140 O.co2 501  ANN501     -0.2406
@<TRIPOS>BOND
     1    10     9   ar
     2     7     8   ar
     3     7     6   ar
     4     9     6    1
     5     9    11   ar
     6     8     3   ar
     7     6     5   ar
     8     3     2    1
     9     3     4   ar
    10     5     4   ar
    11     2     1    1
