@<TRIPOS>MOLECULE
2b99_RDL_A_1.pdb
 23 24 0 0 0
SMALL
GASTEIGER

@<TRIPOS>ATOM
      1  O15       -3.6200  -17.3650   -8.9990 O.3   1205  RDL1205    -0.2175
      2  C15       -4.3310  -17.0780   -7.8080 C.3   1205  RDL1205     0.2175
      3  C14       -5.6030  -16.2190   -8.0450 C.3   1205  RDL1205     0.2175
      4  O14       -5.9870  -15.6450   -6.7940 O.3   1205  RDL1205    -0.2175
      5  C13       -5.3860  -15.0620   -9.0490 C.3   1205  RDL1205     0.2166
      6  O13       -5.0080  -15.6450  -10.3220 O.3   1205  RDL1205    -0.2175
      7  C12       -6.6300  -14.1640   -9.2740 C.3   1205  RDL1205     0.2049
      8  O12       -6.3550  -13.1020  -10.1870 O.3   1205  RDL1205    -0.2185
      9  C11       -7.7940  -14.8970   -9.8750 C.3   1205  RDL1205     0.1373
     10  N9        -9.1300  -14.2840   -9.7960 N.am  1205  RDL1205    -0.2140
     11  C8        -9.8780  -14.5280   -8.6870 C.2   1205  RDL1205     0.3496
     12  O8        -9.4550  -15.2520   -7.7570 O.2   1205  RDL1205    -0.2553
     13  C7       -11.2380  -13.9220   -8.5730 C.1   1205  RDL1205     0.2614
     14  O7       -11.9320  -14.1530   -7.5360 O.2   1205  RDL1205    -0.2046
     15  C10       -9.5800  -13.4950  -10.8260 C.2   1205  RDL1205     0.2486
     16  C5       -10.9270  -12.9020  -10.7000 C.2   1205  RDL1205     0.2834
     17  N6       -11.6960  -13.1390   -9.5850 N.2   1205  RDL1205    -0.3122
     18  C4       -11.3890  -12.0730  -11.8060 C.1   1205  RDL1205     0.2523
     19  O4       -12.5320  -11.5460  -11.7590 O.2   1205  RDL1205    -0.2057
     20  N3       -10.5620  -11.8900  -12.8780 N.2   1205  RDL1205    -0.2300
     21  C2        -9.3120  -12.4640  -12.9420 C.1   1205  RDL1205     0.3669
     22  N1        -8.8520  -13.2320  -11.9540 N.2   1205  RDL1205    -0.2886
     23  O2        -8.6090  -12.2620  -13.9410 O.2   1205  RDL1205    -0.1744
@<TRIPOS>BOND
     1    23    21    2
     2    21    20    2
     3    21    22    2
     4    20    18    2
     5    22    15    2
     6    18    19    2
     7    18    16    1
     8    15    16    1
     9    15    10    1
    10    16    17    2
    11     6     5    1
    12     8     7    1
    13     9    10    1
    14     9     7    1
    15    10    11   am
    16    17    13    2
    17     7     5    1
    18     5     3    1
    19     1     2    1
    20    11    13    1
    21    11    12    2
    22    13    14    2
    23     3     2    1
    24     3     4    1
