@<TRIPOS>MOLECULE
2b9a_FBC_A_1.pdb
 17 18 0 0 0
SMALL
GASTEIGER

@<TRIPOS>ATOM
      1  FL1       22.7340   82.8840   59.9470 F     301  FBC301     -0.2041
      2  C1        22.0950   83.8580   59.2630 C.ar  301  FBC301      0.1424
      3  C6        21.4220   84.8600   59.9560 C.ar  301  FBC301      0.0592
      4  C5        20.7760   85.8670   59.2660 C.ar  301  FBC301      0.1424
      5  FL2       20.1340   86.8450   59.9490 F     301  FBC301     -0.2041
      6  C4        20.7900   85.8590   57.8660 C.ar  301  FBC301      0.0298
      7  C2        22.0990   83.8580   57.8580 C.ar  301  FBC301      0.0298
      8  C3        21.4450   84.8600   57.1350 C.ar  301  FBC301      0.0045
      9  C12       21.4350   84.8890   55.7250 C.ar  301  FBC301      0.0001
     10  C7        21.4260   86.1190   55.0720 C.ar  301  FBC301      0.0002
     11  C8        21.4250   86.2080   53.6830 C.ar  301  FBC301      0.0066
     12  C11       21.4240   83.7290   54.9180 C.ar  301  FBC301      0.0002
     13  C10       21.3970   83.8130   53.5140 C.ar  301  FBC301      0.0066
     14  C9        21.4070   85.0670   52.8960 C.ar  301  FBC301      0.0798
     15  C         21.4230   85.2230   51.3940 C.2   301  FBC301      0.3878
     16  OC3       20.4420   85.7630   50.8460 O.co2 301  FBC301     -0.2406
     17  OC1       22.3720   84.7990   50.6870 O.co2 301  FBC301     -0.2406
@<TRIPOS>BOND
     1    17    15   ar
     2    16    15   ar
     3    15    14    1
     4    14    13   ar
     5    14    11   ar
     6    13    12   ar
     7    11    10   ar
     8    12     9   ar
     9    10     9   ar
    10     9     8    1
    11     8     7   ar
    12     8     6   ar
    13     7     2   ar
    14     6     4   ar
    15     2     1    1
    16     2     3   ar
    17     4     5    1
    18     4     3   ar
