@<TRIPOS>MOLECULE
2b9e_SAM_A_1.pdb
 27 29 0 0 0
SMALL
GASTEIGER

@<TRIPOS>ATOM
      1  N         32.8040  -23.7790   15.1870 N.3   1201  SAM1201    -0.1208
      2  CA        33.3170  -25.1470   14.8520 C.3   1201  SAM1201     0.1952
      3  C         32.3790  -25.8710   13.8970 C.2   1201  SAM1201     0.3819
      4  O         32.7270  -26.8920   13.2770 O.co2 1201  SAM1201    -0.2441
      5  OXT       31.2390  -25.4400   13.7270 O.co2 1201  SAM1201    -0.2441
      6  CB        33.5110  -25.9750   16.1120 C.3   1201  SAM1201     0.0414
      7  CG        34.3770  -25.2220   17.1090 C.3   1201  SAM1201     0.0503
      8  SD        34.9630  -26.2620   18.4600 S.3   1201  SAM1201    -0.1761
      9  CE        33.4740  -26.2650   19.4950 C.3   1201  SAM1201     0.0590
     10  C5'       36.0170  -25.1210   19.3900 C.3   1201  SAM1201     0.0806
     11  C4'       37.3450  -24.7840   18.7050 C.3   1201  SAM1201     0.1622
     12  O4'       38.0190  -23.7860   19.4570 O.3   1201  SAM1201    -0.3153
     13  C3'       38.3350  -25.9560   18.6310 C.3   1201  SAM1201     0.2168
     14  O3'       38.6080  -26.2670   17.2740 O.3   1201  SAM1201    -0.2175
     15  C2'       39.5810  -25.4540   19.3420 C.3   1201  SAM1201     0.2569
     16  O2'       40.7810  -25.9360   18.7620 O.3   1201  SAM1201    -0.2130
     17  C1'       39.3960  -23.9520   19.1830 C.3   1201  SAM1201     0.3185
     18  N9        40.1640  -23.0670   20.0820 N.pl3 1201  SAM1201    -0.1439
     19  C8        40.5240  -23.3070   21.3940 C.3   1201  SAM1201     0.3377
     20  N7        41.2060  -22.2220   21.8400 N.2   1201  SAM1201    -0.2095
     21  C5        41.2770  -21.2990   20.8450 C.2   1201  SAM1201     0.2526
     22  C6        41.8360  -20.0320   20.7480 C.2   1201  SAM1201     0.4393
     23  N6        42.4870  -19.4890   21.7850 N.pl3 1201  SAM1201     0.2180
     24  N1        41.7290  -19.3170   19.5650 N.2   1201  SAM1201     0.0021
     25  C2        41.0840  -19.8620   18.4690 C.3   1201  SAM1201     0.5254
     26  N3        40.5410  -21.1070   18.5800 N.2   1201  SAM1201    -0.0055
     27  C4        40.6170  -21.8260   19.7340 C.2   1201  SAM1201     0.3518
@<TRIPOS>BOND
     1     4     3   ar
     2     5     3   ar
     3     3     2    1
     4     2     1    1
     5     2     6    1
     6     6     7    1
     7     7     8    1
     8    14    13    1
     9     8    10    1
    10     8     9    1
    11    25    26    1
    12    25    24    1
    13    26    27    2
    14    13    11    1
    15    13    15    1
    16    11    10    1
    17    11    12    1
    18    16    15    1
    19    17    15    1
    20    17    12    1
    21    17    18    1
    22    24    22    2
    23    27    18    1
    24    27    21    1
    25    18    19    1
    26    22    21    1
    27    22    23    1
    28    21    20    2
    29    19    20    1
