@<TRIPOS>MOLECULE
2b9f_ADP_A_1.pdb
 27 29 0 0 0
SMALL
GASTEIGER

@<TRIPOS>ATOM
      1  PB        35.5860    4.7280   34.4690 P.3   500  ADP500      0.5373
      2  O1B       36.7650    5.6230   34.7470 O.3   500  ADP500     -0.1143
      3  O2B       35.2850    3.8240   35.6450 O.3   500  ADP500     -0.1143
      4  O3B       34.3020    5.4840   34.0210 O.2   500  ADP500     -0.2221
      5  PA        35.3470    3.2350   32.0050 P.3   500  ADP500      0.2231
      6  O1A       35.6370    1.7660   31.8350 O.2   500  ADP500     -0.5169
      7  O2A       33.9010    3.6010   31.9870 O.3   500  ADP500     -0.4370
      8  O3A       36.0220    3.6760   33.3650 O.3   500  ADP500     -0.2261
      9  O5'       36.1810    3.9220   30.8370 O.3   500  ADP500     -0.3111
     10  C5'       36.1580    5.3700   30.6520 C.3   500  ADP500      0.1813
     11  C4'       36.1240    5.7770   29.1770 C.3   500  ADP500      0.1821
     12  O4'       37.2440    5.1270   28.5320 O.3   500  ADP500     -0.3135
     13  C3'       34.9180    5.2700   28.3850 C.3   500  ADP500      0.2184
     14  O3'       33.8190    6.1600   28.6180 O.3   500  ADP500     -0.2174
     15  C2'       35.4870    5.1890   26.9660 C.3   500  ADP500      0.2570
     16  O2'       35.4910    6.4560   26.2920 O.3   500  ADP500     -0.2130
     17  C1'       36.9360    4.7110   27.1950 C.3   500  ADP500      0.3186
     18  N9        37.0480    3.2100   27.1570 N.pl3 500  ADP500     -0.1439
     19  C8        36.8950    2.3380   28.2090 C.3   500  ADP500      0.3377
     20  N7        37.0640    1.0590   27.8700 N.2   500  ADP500     -0.2095
     21  C5        37.3430    1.1200   26.5380 C.2   500  ADP500      0.2526
     22  C6        37.6330    0.0690   25.5950 C.2   500  ADP500      0.4393
     23  N6        37.6910   -1.2060   25.8660 N.pl3 500  ADP500      0.2180
     24  N1        37.8680    0.5290   24.3000 N.2   500  ADP500      0.0021
     25  C2        37.8300    1.8730   23.9390 C.3   500  ADP500      0.5254
     26  N3        37.5680    2.8600   24.8070 N.2   500  ADP500     -0.0055
     27  C4        37.3310    2.4390   26.0780 C.2   500  ADP500      0.3518
@<TRIPOS>BOND
     1    25    24    1
     2    25    26    1
     3    24    22    2
     4    26    27    2
     5    22    23    1
     6    22    21    1
     7    27    21    1
     8    27    18    1
     9    16    15    1
    10    21    20    2
    11    15    17    1
    12    15    13    1
    13    18    17    1
    14    18    19    1
    15    17    12    1
    16    20    19    1
    17    13    14    1
    18    13    11    1
    19    12    11    1
    20    11    10    1
    21    10     9    1
    22     9     5    1
    23     6     5    2
    24     7     5    1
    25     5     8    1
    26     8     1    1
    27     4     1    2
    28     1     2    1
    29     1     3    1
