@<TRIPOS>MOLECULE
2b9h_ADP_A_1.pdb
 27 29 0 0 0
SMALL
GASTEIGER

@<TRIPOS>ATOM
      1  PB        37.2250    4.7500   41.5630 P.3   500  ADP500      0.5373
      2  O1B       38.4780    5.5170   41.9230 O.3   500  ADP500     -0.1143
      3  O2B       36.7870    3.8070   42.6700 O.3   500  ADP500     -0.1143
      4  O3B       36.0090    5.6040   41.1180 O.2   500  ADP500     -0.2221
      5  PA        36.9810    3.2450   39.0540 P.3   500  ADP500      0.2231
      6  O1A       37.1440    1.7670   38.9930 O.3   500  ADP500     -0.4370
      7  O2A       35.5690    3.7510   38.9660 O.2   500  ADP500     -0.5169
      8  O3A       37.6410    3.6900   40.4120 O.3   500  ADP500     -0.2261
      9  O5'       37.9280    3.8260   37.9470 O.3   500  ADP500     -0.3111
     10  C5'       38.0390    5.2800   37.7900 C.3   500  ADP500      0.1813
     11  C4'       38.1230    5.6700   36.3090 C.3   500  ADP500      0.1821
     12  O4'       39.2210    4.9210   35.7690 O.3   500  ADP500     -0.3135
     13  C3'       36.9210    5.2320   35.4550 C.3   500  ADP500      0.2184
     14  O3'       35.8720    6.2300   35.5760 O.3   500  ADP500     -0.2174
     15  C2'       37.5790    5.0840   34.1060 C.3   500  ADP500      0.2570
     16  O2'       37.7690    6.3690   33.4280 O.3   500  ADP500     -0.2130
     17  C1'       38.9470    4.5060   34.4330 C.3   500  ADP500      0.3186
     18  N9        38.9640    3.0270   34.4030 N.pl3 500  ADP500     -0.1439
     19  C8        38.6970    2.1610   35.4110 C.3   500  ADP500      0.3377
     20  N7        38.8280    0.8770   35.0450 N.2   500  ADP500     -0.2095
     21  C5        39.1950    0.9410   33.7610 C.2   500  ADP500      0.2526
     22  C6        39.4850   -0.1200   32.8210 C.2   500  ADP500      0.4393
     23  N6        39.4590   -1.4010   33.0450 N.pl3 500  ADP500      0.2180
     24  N1        39.8260    0.3580   31.5600 N.2   500  ADP500      0.0021
     25  C2        39.8690    1.6990   31.2710 C.3   500  ADP500      0.5254
     26  N3        39.6100    2.7020   32.1040 N.2   500  ADP500     -0.0055
     27  C4        39.2750    2.2760   33.3410 C.2   500  ADP500      0.3518
@<TRIPOS>BOND
     1    25    24    1
     2    25    26    1
     3    24    22    2
     4    26    27    2
     5    22    23    1
     6    22    21    1
     7    27    21    1
     8    27    18    1
     9    16    15    1
    10    21    20    2
    11    15    17    1
    12    15    13    1
    13    18    17    1
    14    18    19    1
    15    17    12    1
    16    20    19    1
    17    13    14    1
    18    13    11    1
    19    12    11    1
    20    11    10    1
    21    10     9    1
    22     9     5    1
    23     7     5    2
    24     6     5    1
    25     5     8    1
    26     8     1    1
    27     4     1    2
    28     1     2    1
    29     1     3    1
