@<TRIPOS>MOLECULE
2b9i_ADP_A_1.pdb
 27 29 0 0 0
SMALL
GASTEIGER

@<TRIPOS>ATOM
      1  PB        36.8530    4.6740   41.5570 P.3   500  ADP500      0.5373
      2  O1B       38.0320    5.5290   41.6180 O.3   500  ADP500     -0.1143
      3  O2B       36.6130    3.8820   42.8010 O.3   500  ADP500     -0.1143
      4  O3B       35.5930    5.4810   41.0800 O.2   500  ADP500     -0.2221
      5  PA        36.5140    3.2060   39.1480 P.3   500  ADP500      0.2231
      6  O1A       36.7780    1.7470   38.9260 O.2   500  ADP500     -0.5169
      7  O2A       35.0610    3.6390   39.1490 O.3   500  ADP500     -0.4370
      8  O3A       37.2050    3.5660   40.4750 O.3   500  ADP500     -0.2261
      9  O5'       37.4120    3.9150   38.0400 O.3   500  ADP500     -0.3111
     10  C5'       37.4380    5.3580   37.8830 C.3   500  ADP500      0.1813
     11  C4'       37.6110    5.7770   36.4120 C.3   500  ADP500      0.1821
     12  O4'       38.7090    5.0210   35.8410 O.3   500  ADP500     -0.3135
     13  C3'       36.4470    5.4510   35.4890 C.3   500  ADP500      0.2184
     14  O3'       35.5050    6.5550   35.5260 O.3   500  ADP500     -0.2174
     15  C2'       37.1430    5.2100   34.1610 C.3   500  ADP500      0.2570
     16  O2'       37.3340    6.4100   33.4420 O.3   500  ADP500     -0.2130
     17  C1'       38.5000    4.6390   34.4980 C.3   500  ADP500      0.3186
     18  N9        38.5270    3.1320   34.3990 N.pl3 500  ADP500     -0.1439
     19  C8        38.2660    2.2470   35.4020 C.3   500  ADP500      0.3377
     20  N7        38.3640    0.9930   35.0380 N.2   500  ADP500     -0.2095
     21  C5        38.7060    1.0640   33.7290 C.2   500  ADP500      0.2526
     22  C6        38.9650    0.0090   32.7480 C.2   500  ADP500      0.4393
     23  N6        38.9070   -1.2630   32.9740 N.pl3 500  ADP500      0.2180
     24  N1        39.2980    0.4820   31.4780 N.2   500  ADP500      0.0021
     25  C2        39.3740    1.8200   31.1840 C.3   500  ADP500      0.5254
     26  N3        39.1310    2.7860   32.0900 N.2   500  ADP500     -0.0055
     27  C4        38.8130    2.3720   33.3130 C.2   500  ADP500      0.3518
@<TRIPOS>BOND
     1    25    24    1
     2    25    26    1
     3    24    22    2
     4    26    27    2
     5    22    23    1
     6    22    21    1
     7    27    21    1
     8    27    18    1
     9    16    15    1
    10    21    20    2
    11    15    17    1
    12    15    13    1
    13    18    17    1
    14    18    19    1
    15    17    12    1
    16    20    19    1
    17    13    14    1
    18    13    11    1
    19    12    11    1
    20    11    10    1
    21    10     9    1
    22     9     5    1
    23     6     5    2
    24     5     7    1
    25     5     8    1
    26     8     1    1
    27     4     1    2
    28     1     2    1
    29     1     3    1
