@<TRIPOS>MOLECULE
2b9j_ADP_A_1.pdb
 27 29 0 0 0
SMALL
GASTEIGER

@<TRIPOS>ATOM
      1  PB        37.1960    4.8900   42.0780 P.3   500  ADP500      0.5373
      2  O1B       38.4270    5.6740   42.3020 O.3   500  ADP500     -0.1143
      3  O2B       36.8210    4.0260   43.2470 O.3   500  ADP500     -0.1143
      4  O3B       35.9790    5.7570   41.5930 O.2   500  ADP500     -0.2221
      5  PA        36.8380    3.4650   39.6410 P.3   500  ADP500      0.2231
      6  O1A       36.9780    1.9580   39.4990 O.2   500  ADP500     -0.5169
      7  O2A       35.3990    3.9870   39.5930 O.3   500  ADP500     -0.4370
      8  O3A       37.5260    3.8080   40.9710 O.3   500  ADP500     -0.2261
      9  O5'       37.7830    4.0420   38.5090 O.3   500  ADP500     -0.3111
     10  C5'       37.9240    5.4750   38.2820 C.3   500  ADP500      0.1813
     11  C4'       38.0170    5.8180   36.7940 C.3   500  ADP500      0.1821
     12  O4'       39.1280    5.0810   36.2530 O.3   500  ADP500     -0.3135
     13  C3'       36.8440    5.3750   35.9100 C.3   500  ADP500      0.2184
     14  O3'       35.8190    6.4010   35.9360 O.3   500  ADP500     -0.2174
     15  C2'       37.5270    5.1570   34.5730 C.3   500  ADP500      0.2570
     16  O2'       37.6710    6.3690   33.8400 O.3   500  ADP500     -0.2130
     17  C1'       38.9080    4.6310   34.9150 C.3   500  ADP500      0.3186
     18  N9        38.9380    3.1290   34.8830 N.pl3 500  ADP500     -0.1439
     19  C8        38.6620    2.2820   35.9150 C.3   500  ADP500      0.3377
     20  N7        38.7690    1.0080   35.5800 N.2   500  ADP500     -0.2095
     21  C5        39.1300    1.0310   34.2820 C.2   500  ADP500      0.2526
     22  C6        39.3880   -0.0470   33.3550 C.2   500  ADP500      0.4393
     23  N6        39.3140   -1.3040   33.6310 N.pl3 500  ADP500      0.2180
     24  N1        39.7380    0.3790   32.0660 N.2   500  ADP500      0.0021
     25  C2        39.8210    1.7050   31.7240 C.3   500  ADP500      0.5254
     26  N3        39.5820    2.6960   32.5700 N.2   500  ADP500     -0.0055
     27  C4        39.2430    2.3240   33.8160 C.2   500  ADP500      0.3518
@<TRIPOS>BOND
     1    25    24    1
     2    25    26    1
     3    24    22    2
     4    26    27    2
     5    22    23    1
     6    22    21    1
     7    27    21    1
     8    27    18    1
     9    16    15    1
    10    21    20    2
    11    15    17    1
    12    15    13    1
    13    18    17    1
    14    18    19    1
    15    17    12    1
    16    20    19    1
    17    13    14    1
    18    13    11    1
    19    12    11    1
    20    11    10    1
    21    10     9    1
    22     9     5    1
    23     6     5    2
    24     7     5    1
    25     5     8    1
    26     8     1    1
    27     4     1    2
    28     1     2    1
    29     1     3    1
