@<TRIPOS>MOLECULE
2bab_ODD_A_1.pdb
 20 19 0 0 0
SMALL
GASTEIGER

@<TRIPOS>ATOM
      1  O2        14.2320  -21.5580   41.9620 O.co2 1001  ODD1001    -0.2457
      2  C1        14.1440  -21.8670   40.7500 C.2   1001  ODD1001     0.3649
      3  O1        14.0790  -20.9770   39.8830 O.co2 1001  ODD1001    -0.2457
      4  C2        14.1130  -23.3260   40.3330 C.3   1001  ODD1001     0.1141
      5  C3        13.7290  -23.4890   38.8570 C.3   1001  ODD1001     0.0118
      6  C4        13.7220  -24.9470   38.3810 C.3   1001  ODD1001     0.0006
      7  C5        14.0300  -25.1090   36.8810 C.3   1001  ODD1001     0.0000
      8  C6        12.7770  -24.9410   36.0490 C.3   1001  ODD1001     0.0000
      9  C7        12.8890  -24.9590   34.5270 C.3   1001  ODD1001     0.0003
     10  C8        11.7060  -24.1340   33.9730 C.3   1001  ODD1001     0.0047
     11  C9        11.4120  -24.3770   32.5040 C.3   1001  ODD1001     0.0260
     12  C10       10.3720  -23.4670   31.8470 C.2   1001  ODD1001    -0.0261
     13  C11        9.6130  -22.5320   32.4440 C.2   1001  ODD1001    -0.0049
     14  C12        8.6620  -21.7690   31.6110 C.2   1001  ODD1001    -0.0049
     15  C13        7.8230  -20.8090   32.0510 C.2   1001  ODD1001    -0.0261
     16  C14        7.7570  -20.3600   33.4960 C.3   1001  ODD1001     0.0260
     17  C15        6.6390  -19.3480   33.6830 C.3   1001  ODD1001     0.0047
     18  C16        6.4130  -18.8590   35.1230 C.3   1001  ODD1001     0.0003
     19  C17        7.6710  -18.3860   35.8560 C.3   1001  ODD1001     0.0000
     20  C18        7.8000  -16.8820   35.9740 C.3   1001  ODD1001     0.0000
@<TRIPOS>BOND
     1    14    15    2
     2    14    13    1
     3    12    13    2
     4    12    11    1
     5    15    16    1
     6    11    10    1
     7    16    17    1
     8    17    18    1
     9    10     9    1
    10     9     8    1
    11    18    19    1
    12    19    20    1
    13     8     7    1
    14     7     6    1
    15     6     5    1
    16     5     4    1
    17     3     2   ar
    18     4     2    1
    19     2     1   ar
