@<TRIPOS>MOLECULE
2bac_ODT_A_1.pdb
 20 19 0 0 0
SMALL
GASTEIGER

@<TRIPOS>ATOM
      1  O1       -22.6550  -13.2770   -7.9460 O.co2 1001  ODT1001    -0.2457
      2  C1       -22.0180  -14.2640   -7.5380 C.2   1001  ODT1001     0.3649
      3  O2       -22.2830  -15.4350   -7.8970 O.co2 1001  ODT1001    -0.2457
      4  C2       -20.8970  -13.9800   -6.5810 C.3   1001  ODT1001     0.1141
      5  C3       -20.6980  -12.4650   -6.5370 C.3   1001  ODT1001     0.0118
      6  C4       -20.0780  -12.0050   -5.2250 C.3   1001  ODT1001     0.0006
      7  C5       -20.3920  -10.5340   -4.9880 C.3   1001  ODT1001     0.0000
      8  C6       -19.1610   -9.7110   -5.3070 C.3   1001  ODT1001     0.0003
      9  C7       -19.4590   -8.2350   -5.4680 C.3   1001  ODT1001     0.0047
     10  C8       -18.7510   -7.6980   -6.6990 C.3   1001  ODT1001     0.0257
     11  C9       -18.3610   -6.2720   -6.3930 C.2   1001  ODT1001    -0.0307
     12  C10      -17.9770   -5.3720   -7.5650 C.2   1001  ODT1001    -0.0304
     13  C11      -17.8220   -5.9540   -8.9520 C.3   1001  ODT1001     0.0304
     14  C12      -17.5260   -5.0040   -9.8290 C.3   1001  ODT1001     0.0307
     15  C13      -17.3010   -5.1150  -11.2670 C.2   1001  ODT1001    -0.0258
     16  C14      -17.3380   -6.2080  -11.9980 C.2   1001  ODT1001    -0.0049
     17  C15      -17.0730   -6.0250  -13.4210 C.2   1001  ODT1001    -0.0049
     18  C16      -17.0860   -7.0380  -14.2930 C.2   1001  ODT1001    -0.0261
     19  C17      -17.3710   -8.4820  -13.9120 C.3   1001  ODT1001     0.0260
     20  C18      -17.3060   -9.3670  -15.1470 C.3   1001  ODT1001     0.0050
@<TRIPOS>BOND
     1    20    19    1
     2    18    19    1
     3    18    17    2
     4    17    16    1
     5    16    15    2
     6    15    14    1
     7    14    13    1
     8    13    12    1
     9     1     2   ar
    10     3     2   ar
    11    12    11    2
    12     2     4    1
    13    10    11    1
    14    10     9    1
    15     4     5    1
    16     5     6    1
    17     9     8    1
    18     8     7    1
    19     6     7    1
