@<TRIPOS>MOLECULE
2bag_GSG_A_1.pdb
 11 11 0 0 0
SMALL
GASTEIGER

@<TRIPOS>ATOM
      1  C1         4.4970   64.5260   62.8960 C.ar  1200  GSG1200     0.0698
      2  C2         4.0010   65.8960   62.8970 C.ar  1200  GSG1200    -0.0068
      3  C3         2.9740   66.2020   63.8610 C.ar  1200  GSG1200    -0.0030
      4  C4         2.4760   65.2350   64.7530 C.ar  1200  GSG1200    -0.0002
      5  C5         2.9790   63.9330   64.7200 C.ar  1200  GSG1200     0.0013
      6  C6         3.9860   63.5680   63.7970 C.ar  1200  GSG1200     0.0163
      7  N1         5.4470   64.1010   61.9060 N.am  1200  GSG1200    -0.1718
      8  C7         5.1560   63.8180   60.6330 C.2   1200  GSG1200     0.3246
      9  O1         4.0600   63.7270   60.1370 O.2   1200  GSG1200    -0.2629
     10  C8         4.5280   66.9810   61.9520 C.3   1200  GSG1200     0.0277
     11  C9         3.5610   68.1340   61.6850 C.3   1200  GSG1200     0.0051
@<TRIPOS>BOND
     1     9     8    2
     2     8     7   am
     3    11    10    1
     4     7     1    1
     5    10     2    1
     6     1     2   ar
     7     1     6   ar
     8     2     3   ar
     9     6     5   ar
    10     3     4   ar
    11     5     4   ar
