@<TRIPOS>MOLECULE
2baj_1PP_A_1.pdb
 27 29 0 0 0
SMALL
GASTEIGER

@<TRIPOS>ATOM
      1  O27       13.8160   -0.5000   29.2140 O.2   401  1PP401     -0.2484
      2  C17       13.2860   -1.2990   29.9740 C.2   401  1PP401      0.3491
      3  N18       13.8730   -2.4580   30.2840 N.am  401  1PP401     -0.1598
      4  C19       15.0720   -2.8530   29.7870 C.ar  401  1PP401      0.0863
      5  C20       15.2190   -4.1800   29.4920 C.ar  401  1PP401      0.0835
      6 CL1        13.8770   -5.3050   29.7430 Cl    401  1PP401     -0.0800
      7  C21       16.4860   -4.7090   28.9280 C.ar  401  1PP401      0.0695
      8 CL2        16.5830   -6.4680   28.6080 Cl    401  1PP401     -0.0813
      9  C22       17.5510   -3.8320   28.7160 C.ar  401  1PP401      0.0123
     10  C23       17.3600   -2.4730   29.0370 C.ar  401  1PP401      0.0023
     11  C24       16.1470   -1.9880   29.5490 C.ar  401  1PP401      0.0176
     12  N16       12.1000   -1.0550   30.5370 N.am  401  1PP401     -0.1418
     13  C11       11.3770    0.0560   30.3120 C.ar  401  1PP401      0.1587
     14  C10       11.1570    0.7740   29.1300 C.ar  401  1PP401      0.0527
     15  C9        10.2720    1.7720   29.5650 C.ar  401  1PP401      0.0811
     16  C12        9.6910    2.8450   28.6660 C.3   401  1PP401      0.0372
     17  C15        8.6200    2.1560   27.8200 C.3   401  1PP401      0.0060
     18  C14       10.8080    3.4610   27.8240 C.3   401  1PP401      0.0060
     19  C13        9.0550    3.9330   29.5310 C.3   401  1PP401      0.0060
     20  N8         9.9100    1.7040   30.8550 N.ar  401  1PP401     -0.1683
     21  N7        10.6260    0.5800   31.3080 N.ar  401  1PP401     -0.2145
     22  C5        10.5510    0.2340   32.6440 C.ar  401  1PP401      0.0842
     23  C6        11.6520   -0.1180   33.4260 C.ar  401  1PP401      0.0192
     24  C4         9.3470    0.2210   33.3770 C.ar  401  1PP401      0.0192
     25  C3         9.2290   -0.1010   34.7700 C.ar  401  1PP401      0.0015
     26  C2        10.3760   -0.4190   35.5210 C.ar  401  1PP401      0.0001
     27  C1        11.6060   -0.3870   34.8280 C.ar  401  1PP401      0.0015
@<TRIPOS>BOND
     1    17    16    1
     2    18    16    1
     3     8     7    1
     4    16    19    1
     5    16    15    1
     6     9     7   ar
     7     9    10   ar
     8     7     5   ar
     9    10    11   ar
    10    14    15   ar
    11    14    13   ar
    12     1     2    2
    13     5     6    1
    14     5     4   ar
    15    11     4   ar
    16    15    20   ar
    17     4     3    1
    18     2     3   am
    19     2    12   am
    20    13    12    1
    21    13    21   ar
    22    20    21   ar
    23    21    22    1
    24    22    24   ar
    25    22    23   ar
    26    24    25   ar
    27    23    27   ar
    28    25    26   ar
    29    27    26   ar
