@<TRIPOS>MOLECULE
2bak_AQZ_A_1.pdb
 43 48 0 0 0
SMALL
GASTEIGER

@<TRIPOS>ATOM
      1  C1        -3.9910   -1.7880   26.9670 C.3   401  AQZ401      0.2521
      2  O2        -3.8760   -0.5170   26.3300 O.2   401  AQZ401     -0.4723
      3  C3        -3.9240   -0.4240   24.9350 C.2   401  AQZ401      0.1558
      4  C4        -3.8950   -1.4880   24.0170 C.3   401  AQZ401      0.1127
      5  C5        -3.9490   -1.2820   22.6480 C.2   401  AQZ401      0.0732
      6  N6        -3.9180   -2.3630   21.8790 N.2   401  AQZ401     -0.2223
      7  C7        -3.9760   -2.1700   20.5700 C.3   401  AQZ401      0.3917
      8  N8        -4.0660   -0.9810   19.9650 N.2   401  AQZ401     -0.0327
      9  C9        -4.0760    0.1020   20.7500 C.2   401  AQZ401      0.3643
     10  N10       -4.1350    1.3720   20.1410 N.pl3 401  AQZ401     -0.0063
     11  C11       -4.4030    1.6230   18.7890 C.ar  401  AQZ401      0.1807
     12  C12       -3.4230    2.2170   17.9790 C.ar  401  AQZ401      0.0607
     13  C13       -3.7160    2.5190   16.6400 C.ar  401  AQZ401      0.0772
     14  N14       -2.7210    3.1140   15.8370 N.am  401  AQZ401     -0.1753
     15  C15       -1.3610    2.8650   15.9100 C.2   401  AQZ401      0.2691
     16  O16       -0.8250    2.0720   16.7100 O.2   401  AQZ401     -0.2680
     17  C17       -0.4980    3.5800   14.8970 C.ar  401  AQZ401      0.0597
     18  C18       -0.7710    4.8250   14.2880 C.ar  401  AQZ401      0.0253
     19  C19        0.1480    5.2990   13.3450 C.ar  401  AQZ401      0.1005
     20  N20        1.2830    4.6040   12.9770 N.ar  401  AQZ401     -0.2292
     21  C21        1.5260    3.4010   13.5310 C.ar  401  AQZ401      0.1320
     22  C22        0.6350    2.8700   14.4870 C.ar  401  AQZ401      0.0389
     23  N23        2.6750    2.6730   13.1370 N.pl3 401  AQZ401     -0.2881
     24  C24        3.8810    3.3910   12.6360 C.3   401  AQZ401      0.1242
     25  C25        4.9340    2.4080   12.0260 C.3   401  AQZ401      0.1636
     26  O26        5.0310    1.2170   12.8090 O.3   401  AQZ401     -0.3501
     27  C27        3.7180    0.6310   12.8450 C.3   401  AQZ401      0.1636
     28  C28        2.9320    1.4260   13.8580 C.3   401  AQZ401      0.1242
     29  C29       -4.9690    2.1930   16.1300 C.ar  401  AQZ401      0.0165
     30  C30       -5.9360    1.6210   16.9270 C.ar  401  AQZ401      0.0006
     31  C31       -5.6920    1.3110   18.2530 C.ar  401  AQZ401      0.0192
     32  C32       -6.8440    0.6870   19.0230 C.3   401  AQZ401      0.0347
     33  C33       -4.0350    0.0250   22.1370 C.2   401  AQZ401      0.1027
     34  C34       -4.0460    1.1320   23.0200 C.2   401  AQZ401      0.0484
     35  C35       -3.9960    0.8840   24.4260 C.2   401  AQZ401      0.1687
     36  O36       -4.0130    1.8410   25.3990 O.2   401  AQZ401     -0.4712
     37  C37       -3.8520    3.1850   24.9290 C.3   401  AQZ401      0.2228
     38  C38       -3.8090    4.1810   26.1220 C.3   401  AQZ401      0.1200
     39  N39       -2.9750    3.7180   27.2460 N.3   401  AQZ401     -0.2696
     40  C40       -3.1890    4.3090   28.5760 C.3   401  AQZ401      0.0722
     41  C41       -2.2410    3.4330   29.3810 C.3   401  AQZ401      0.0188
     42  C42       -1.0010    3.4880   28.4930 C.3   401  AQZ401      0.0188
     43  C43       -1.5130    3.7320   27.0630 C.3   401  AQZ401      0.0722
@<TRIPOS>BOND
     1    25    24    1
     2    25    26    1
     3    24    23    1
     4    26    27    1
     5    27    28    1
     6    20    19   ar
     7    20    21   ar
     8    23    21    1
     9    23    28    1
    10    19    18   ar
    11    21    22   ar
    12    18    17   ar
    13    22    17   ar
    14    17    15    1
    15    14    15   am
    16    14    13    1
    17    15    16    2
    18    29    13   ar
    19    29    30   ar
    20    13    12   ar
    21    30    31   ar
    22    12    11   ar
    23    31    11   ar
    24    31    32    1
    25    11    10    1
    26     8     7    1
    27     8     9    2
    28    10     9    1
    29     7     6    1
    30     9    33    1
    31     6     5    2
    32    33     5    1
    33    33    34    2
    34     5     4    1
    35    34    35    1
    36     4     3    1
    37    35     3    2
    38    35    36    1
    39    37    36    1
    40    37    38    1
    41     3     2    1
    42    38    39    1
    43     2     1    1
    44    43    39    1
    45    43    42    1
    46    39    40    1
    47    42    41    1
    48    40    41    1
