@<TRIPOS>MOLECULE
2bal_PQA_A_1.pdb
 28 31 0 0 0
SMALL
GASTEIGER

@<TRIPOS>ATOM
      1  N1        -3.4720   -1.8760   19.8050 N.pl3 401  PQA401     -0.1070
      2  C2        -3.2090   -0.7670   20.5380 C.ar  401  PQA401      0.1756
      3  C3        -2.7450   -0.6820   21.8380 C.ar  401  PQA401      0.0946
      4  C4        -2.6450    0.7020   22.0820 C.ar  401  PQA401      0.1266
      5  N5        -3.0140    1.4410   21.0360 N.ar  401  PQA401     -0.1621
      6  N6        -3.3480    0.5360   20.0700 N.ar  401  PQA401     -0.2128
      7  C7        -3.8560    0.9580   18.8210 C.ar  401  PQA401      0.0844
      8  C8        -3.1310    1.5570   17.7900 C.ar  401  PQA401      0.0215
      9  C9        -3.7900    1.9150   16.6150 C.ar  401  PQA401      0.0312
     10  C10       -5.1490    1.6710   16.4640 C.ar  401  PQA401      0.1402
     11  F11       -5.7650    2.0290   15.3300 F     401  PQA401     -0.2042
     12  C12       -5.8820    1.0610   17.4730 C.ar  401  PQA401      0.0312
     13  C13       -5.2360    0.7080   18.6530 C.ar  401  PQA401      0.0215
     14  C14       -2.4700   -1.8390   22.6650 C.2   401  PQA401      0.2000
     15  O15       -2.8650   -2.9540   22.3220 O.2   401  PQA401     -0.2864
     16  C16       -1.7400   -1.7020   23.9480 C.ar  401  PQA401      0.0421
     17  C17       -0.6230   -0.8560   24.0650 C.ar  401  PQA401      0.0034
     18  C18        0.0410   -0.7510   25.2950 C.ar  401  PQA401      0.0032
     19  C19       -0.4020   -1.4910   26.3870 C.ar  401  PQA401      0.0369
     20  C20       -1.5050   -2.3350   26.2710 C.ar  401  PQA401      0.1385
     21  O21       -1.8710   -3.0090   27.4110 O.3   401  PQA401     -0.4791
     22  C22       -3.2360   -2.8040   27.8010 C.3   401  PQA401      0.1688
     23  C23       -3.7740   -4.1230   28.3590 C.3   401  PQA401      0.0623
     24  C24       -3.2380   -4.4370   29.7580 C.3   401  PQA401      0.0924
     25  N25       -2.2840   -3.4430   30.2770 N.3   401  PQA401     -0.2178
     26  C26       -2.7700   -2.0620   30.2230 C.3   401  PQA401      0.0924
     27  C27       -3.2870   -1.6700   28.8380 C.3   401  PQA401      0.0623
     28  C28       -2.1810   -2.4520   25.0530 C.ar  401  PQA401      0.0401
@<TRIPOS>BOND
     1    11    10    1
     2    10     9   ar
     3    10    12   ar
     4     9     8   ar
     5    12    13   ar
     6     8     7   ar
     7    13     7   ar
     8     7     6    1
     9     1     2    1
    10     6     2   ar
    11     6     5   ar
    12     2     3   ar
    13     5     4   ar
    14     3     4   ar
    15     3    14    1
    16    15    14    2
    17    14    16    1
    18    16    17   ar
    19    16    28   ar
    20    17    18   ar
    21    28    20   ar
    22    18    19   ar
    23    20    19   ar
    24    20    21    1
    25    21    22    1
    26    22    23    1
    27    22    27    1
    28    23    24    1
    29    27    26    1
    30    24    25    1
    31    26    25    1
