@<TRIPOS>MOLECULE
2ban_357_A_1.pdb
 24 25 0 0 0
SMALL
GASTEIGER

@<TRIPOS>ATOM
      1  C2       144.0250  -25.4270   70.8470 C.1   562  357562      0.2173
      2  C3       144.9720  -25.0850   71.8610 C.2   562  357562      0.1370
      3  C4       144.7620  -25.5750   73.1950 C.2   562  357562     -0.0083
      4  C5       143.6280  -26.4190   73.4760 C.3   562  357562      0.0696
      5  O8       144.1700  -25.0110   69.6430 O.2   562  357562     -0.2081
      6  C10      143.3770  -26.9830   74.8940 C.3   562  357562      0.0108
      7  C11      142.3510  -26.1440   75.6740 C.3   562  357562      0.0008
      8  C1'      145.2800  -24.1140   75.2780 C.ar  562  357562     -0.0184
      9  C7'      145.7880  -25.1930   74.2870 C.3   562  357562      0.0507
     10  C6       142.7250  -26.7080   72.3990 C.2   562  357562      0.1035
     11  C7       141.4920  -27.5790   72.5940 C.3   562  357562      0.0628
     12  N1       142.9620  -26.2170   71.1440 N.2   562  357562     -0.3405
     13  N1'      146.1040  -24.2510   71.5790 N.pl3 562  357562     -0.2941
     14  C6'      147.1980  -24.8890   70.8460 C.3   562  357562      0.1129
     15  C2'      145.8580  -22.9620   70.8520 C.3   562  357562      0.1236
     16  C3'      144.9630  -22.0110   71.6780 C.3   562  357562      0.1636
     17  O4'      144.7620  -20.8920   71.0080 O.3   562  357562     -0.3493
     18  C5'      144.0650  -19.8170   71.3260 C.3   562  357562      0.1742
     19  C6B      145.8380  -24.0870   76.5740 C.ar  562  357562     -0.0040
     20  C5B      145.4230  -23.1300   77.5330 C.ar  562  357562     -0.0006
     21  C4'      144.4290  -22.1790   77.1940 C.ar  562  357562     -0.0043
     22  C3B      143.8520  -22.1890   75.8990 C.ar  562  357562     -0.0222
     23  C8'      142.7870  -21.1680   75.5380 C.3   562  357562      0.0310
     24  C2B      144.2730  -23.1510   74.9380 C.ar  562  357562     -0.0082
@<TRIPOS>BOND
     1     5     1    2
     2    14    13    1
     3     1    12    2
     4     1     2    1
     5    15    13    1
     6    15    16    1
     7    17    18    1
     8    17    16    1
     9    12    10    2
    10    13     2    1
    11     2     3    2
    12    10    11    1
    13    10     4    1
    14     3     4    1
    15     3     9    1
    16     4     6    1
    17     9     8    1
    18     6     7    1
    19    24     8   ar
    20    24    22   ar
    21     8    19   ar
    22    23    22    1
    23    22    21   ar
    24    19    20   ar
    25    21    20   ar
