@<TRIPOS>MOLECULE
2baq_PQB_A_1.pdb
 27 29 0 0 0
SMALL
GASTEIGER

@<TRIPOS>ATOM
      1  N1        -3.5520   -1.8300   19.6560 N.pl3 401  PQB401     -0.1070
      2  C2        -3.2620   -0.7100   20.4000 C.ar  401  PQB401      0.1756
      3  C3        -2.8300   -0.6780   21.7220 C.ar  401  PQB401      0.0946
      4  C4        -2.6600    0.6880   22.0900 C.ar  401  PQB401      0.1266
      5  N5        -2.9820    1.4210   21.0610 N.ar  401  PQB401     -0.1621
      6  N6        -3.3370    0.5730   19.9920 N.ar  401  PQB401     -0.2128
      7  C7        -3.7950    0.9890   18.7340 C.ar  401  PQB401      0.0844
      8  C8        -5.1590    0.7950   18.5190 C.ar  401  PQB401      0.0215
      9  C9        -5.7570    1.1610   17.3360 C.ar  401  PQB401      0.0312
     10  C10       -4.9930    1.7580   16.3630 C.ar  401  PQB401      0.1402
     11  F11       -5.6000    2.1130   15.2230 F     401  PQB401     -0.2042
     12  C12       -3.6260    1.9820   16.5670 C.ar  401  PQB401      0.0312
     13  C13       -3.0170    1.6040   17.7560 C.ar  401  PQB401      0.0215
     14  C14       -2.6130   -1.8400   22.5670 C.2   401  PQB401      0.2000
     15  O15       -3.0010   -2.9290   22.1980 O.2   401  PQB401     -0.2864
     16  C16       -1.9690   -1.6480   23.8680 C.ar  401  PQB401      0.0421
     17  C17       -0.7490   -0.9680   23.9500 C.ar  401  PQB401      0.0034
     18  C18       -0.1510   -0.7860   25.1840 C.ar  401  PQB401      0.0032
     19  C19       -0.7640   -1.2770   26.3400 C.ar  401  PQB401      0.0369
     20  C20       -1.9860   -1.9630   26.2780 C.ar  401  PQB401      0.1388
     21  O21       -2.5390   -2.4070   27.4420 O.3   401  PQB401     -0.4726
     22  C22       -3.2970   -3.6180   27.3160 C.3   401  PQB401      0.2408
     23  C23       -4.0070   -3.9800   28.6420 C.3   401  PQB401      0.2280
     24  O25       -3.5630   -3.2170   29.7620 O.3   401  PQB401     -0.2163
     25  C26       -5.4790   -3.6350   28.5580 C.3   401  PQB401      0.2187
     26  O27       -6.1120   -4.8230   28.1150 O.3   401  PQB401     -0.2174
     27  C28       -2.5910   -2.1370   25.0290 C.ar  401  PQB401      0.0401
@<TRIPOS>BOND
     1    11    10    1
     2    10    12   ar
     3    10     9   ar
     4    12    13   ar
     5     9     8   ar
     6    13     7   ar
     7     8     7   ar
     8     7     6    1
     9     1     2    1
    10     6     2   ar
    11     6     5   ar
    12     2     3   ar
    13     5     4   ar
    14     3     4   ar
    15     3    14    1
    16    15    14    2
    17    14    16    1
    18    16    17   ar
    19    16    27   ar
    20    17    18   ar
    21    27    20   ar
    22    18    19   ar
    23    20    19   ar
    24    20    21    1
    25    22    21    1
    26    22    23    1
    27    26    25    1
    28    25    23    1
    29    23    24    1
