@<TRIPOS>MOLECULE
2bat_SIA_A_1.pdb
 21 21 0 0 0
SMALL
GASTEIGER

@<TRIPOS>ATOM
      1  C1        90.0650   93.3540   66.5720 C.2   600  SIA600      0.4179
      2  C2        91.0750   92.3010   66.1120 C.3   600  SIA600      0.3155
      3  C3        90.3160   91.0190   65.6900 C.3   600  SIA600      0.1056
      4  C4        91.0620   90.1570   64.6930 C.3   600  SIA600      0.1798
      5  C5        92.5320   90.4970   64.6680 C.3   600  SIA600      0.1554
      6  C6        92.7300   91.9900   64.3090 C.3   600  SIA600      0.1734
      7  C7        94.1370   92.4770   64.6450 C.3   600  SIA600      0.2135
      8  C8        94.3070   93.9300   64.2750 C.3   600  SIA600      0.2173
      9  C9        95.7010   94.4780   64.6030 C.3   600  SIA600      0.2175
     10  C10       94.0820   88.7250   63.9120 C.2   600  SIA600      0.2420
     11  C11       94.5270   88.0060   62.6640 C.3   600  SIA600      0.0964
     12  N5        93.1780   89.6480   63.6540 N.am  600  SIA600     -0.2020
     13  O1A       89.1630   93.0230   67.3360 O.co2 600  SIA600     -0.2401
     14  O1B       90.1800   94.5040   66.1550 O.co2 600  SIA600     -0.2401
     15  O2        91.9840   92.0530   67.1560 O.3   600  SIA600     -0.1830
     16  O4        90.9370   88.7770   64.9870 O.3   600  SIA600     -0.2210
     17  O6        91.8110   92.8290   65.0220 O.3   600  SIA600     -0.3220
     18  O7        94.4380   92.3230   66.0070 O.3   600  SIA600     -0.2176
     19  O8        94.1700   93.9400   62.8730 O.3   600  SIA600     -0.2175
     20  O9        96.6570   93.9560   63.6780 O.3   600  SIA600     -0.2175
     21  O10       94.5200   88.5090   65.0570 O.2   600  SIA600     -0.2733
@<TRIPOS>BOND
     1    11    10    1
     2    19     8    1
     3    12    10   am
     4    12     5    1
     5    20     9    1
     6    10    21    2
     7     8     9    1
     8     8     7    1
     9     6     7    1
    10     6     5    1
    11     6    17    1
    12     7    18    1
    13     5     4    1
    14     4    16    1
    15     4     3    1
    16    17     2    1
    17     3     2    1
    18     2     1    1
    19     2    15    1
    20    14     1   ar
    21     1    13   ar
