@<TRIPOS>MOLECULE
2baw_VCA_A_1.pdb
 20 19 0 0 0
SMALL
GASTEIGER

@<TRIPOS>ATOM
      1  O2        -8.7330  -34.4270   33.7910 O.co2 201  VCA201     -0.2457
      2  C1        -9.8100  -35.0160   34.0420 C.2   201  VCA201      0.3649
      3  O1       -10.6390  -35.4010   33.1970 O.co2 201  VCA201     -0.2457
      4  C2       -10.1630  -35.2880   35.5190 C.3   201  VCA201      0.1141
      5  C3        -9.5460  -36.5830   36.0450 C.3   201  VCA201      0.0118
      6  C4       -10.1900  -37.8050   35.4010 C.3   201  VCA201      0.0006
      7  C5        -9.5800  -39.1030   35.9300 C.3   201  VCA201      0.0000
      8  C6        -8.5180  -39.6360   34.9630 C.3   201  VCA201      0.0000
      9  C7        -7.8830  -40.9360   35.4640 C.3   201  VCA201      0.0000
     10  C8        -6.8330  -40.6560   36.5440 C.3   201  VCA201      0.0003
     11  C9        -5.4090  -40.8690   36.0150 C.3   201  VCA201      0.0047
     12  C10       -4.3920  -40.2440   36.9770 C.3   201  VCA201      0.0257
     13  C11       -3.7730  -41.2240   37.7460 C.2   201  VCA201     -0.0307
     14  C12       -3.7800  -41.2830   39.1470 C.2   201  VCA201     -0.0307
     15  C13       -4.4100  -40.3730   39.9970 C.3   201  VCA201      0.0257
     16  C14       -5.2910  -41.1100   41.0190 C.3   201  VCA201      0.0047
     17  C15       -4.5170  -41.3810   42.3190 C.3   201  VCA201      0.0003
     18  C16       -5.4610  -41.7750   43.4600 C.3   201  VCA201      0.0000
     19  C17       -4.6820  -41.9450   44.7640 C.3   201  VCA201      0.0000
     20  C18       -5.5870  -41.7450   45.9700 C.3   201  VCA201      0.0000
@<TRIPOS>BOND
     1     3     2   ar
     2     1     2   ar
     3     2     4    1
     4     8     9    1
     5     8     7    1
     6     6     7    1
     7     6     5    1
     8     9    10    1
     9     4     5    1
    10    11    10    1
    11    11    12    1
    12    12    13    1
    13    13    14    2
    14    14    15    1
    15    15    16    1
    16    16    17    1
    17    17    18    1
    18    18    19    1
    19    19    20    1
