@<TRIPOS>MOLECULE
2baw_B7G_A_1.pdb
 19 19 0 0 0
SMALL
GASTEIGER

@<TRIPOS>ATOM
      1  C5        -9.0080  -19.1410   21.4140 C.3   920  B7G920      0.1835
      2  O5        -8.3860  -18.1690   20.5700 O.3   920  B7G920     -0.3256
      3  C1        -9.0120  -16.8920   20.4860 C.3   920  B7G920      0.2695
      4  C2       -10.4790  -17.0310   20.0460 C.3   920  B7G920      0.2406
      5  C3       -11.2390  -18.0640   20.8930 C.3   920  B7G920      0.2198
      6  C4       -10.4570  -19.3750   20.9880 C.3   920  B7G920      0.2144
      7  C6        -8.2250  -20.4450   21.2870 C.3   920  B7G920      0.2142
      8  O1        -8.2450  -16.1830   19.5170 O.3   920  B7G920     -0.3286
      9  C7        -7.8120  -14.9070   19.9610 C.3   920  B7G920      0.1449
     10  C8        -6.3380  -14.9340   20.3280 C.3   920  B7G920      0.0322
     11  C9        -5.4940  -14.1530   19.3270 C.3   920  B7G920      0.0026
     12  C10       -4.4070  -13.3840   20.0630 C.3   920  B7G920      0.0001
     13  C11       -3.0410  -13.5760   19.4170 C.3   920  B7G920      0.0000
     14  C12       -2.1280  -14.4630   20.2560 C.3   920  B7G920      0.0000
     15  O2       -11.1520  -15.7630   20.1250 O.3   920  B7G920     -0.2149
     16  O3       -12.5350  -18.3430   20.3310 O.3   920  B7G920     -0.2174
     17  O4       -11.0840  -20.2490   21.9280 O.3   920  B7G920     -0.2176
     18  O6        -6.8650  -20.2260   21.6550 O.3   920  B7G920     -0.2176
     19  C13       -0.9820  -14.9720   19.3990 C.3   920  B7G920      0.0000
@<TRIPOS>BOND
     1    11    12    1
     2    11    10    1
     3    19    14    1
     4    13    12    1
     5    13    14    1
     6     8     9    1
     7     8     3    1
     8     9    10    1
     9     4    15    1
    10     4     3    1
    11     4     5    1
    12    16     5    1
    13     3     2    1
    14     2     1    1
    15     5     6    1
    16     6     1    1
    17     6    17    1
    18     7     1    1
    19     7    18    1
