@<TRIPOS>MOLECULE
2bb3_SAH_A_1.pdb
 26 28 0 0 0
SMALL
GASTEIGER

@<TRIPOS>ATOM
      1  N          9.8120   20.6550   30.9340 N.3   201  SAH201     -0.1159
      2  CA         9.4250   20.8040   32.2790 C.3   201  SAH201      0.2168
      3  CB        10.0100   22.0730   32.8970 C.2   201  SAH201      0.0105
      4  CG        11.5030   22.3630   32.9590 C.2   201  SAH201      0.0284
      5  SD        12.0510   23.9960   33.3780 S.3   201  SAH201     -0.1108
      6  C          7.9450   20.6920   32.3420 C.2   201  SAH201      0.3860
      7  O          7.5960   20.5870   33.4490 O.co2 201  SAH201     -0.2437
      8  OXT        7.2550   20.7480   31.3610 O.co2 201  SAH201     -0.2437
      9  C5'       12.2810   23.4310   35.0390 C.3   201  SAH201      0.0945
     10  C4'       11.3630   24.0710   36.0640 C.3   201  SAH201      0.1634
     11  O4'       10.1070   23.5170   36.1170 O.3   201  SAH201     -0.3152
     12  C3'       11.8760   24.1570   37.4690 C.3   201  SAH201      0.2168
     13  O3'       12.7470   25.1840   37.6900 O.3   201  SAH201     -0.2175
     14  C2'       10.5970   24.3160   38.2080 C.3   201  SAH201      0.2569
     15  O2'       10.2340   25.6210   38.3420 O.3   201  SAH201     -0.2130
     16  C1'        9.5900   23.6220   37.3640 C.3   201  SAH201      0.3185
     17  N9         9.3630   22.2780   37.8390 N.pl3 201  SAH201     -0.1439
     18  C8         9.7460   21.1970   37.2310 C.3   201  SAH201      0.3377
     19  N7         9.3580   20.1400   37.8530 N.2   201  SAH201     -0.2095
     20  C5         8.7070   20.5230   38.8830 C.2   201  SAH201      0.2526
     21  C6         8.0810   19.8260   39.8620 C.2   201  SAH201      0.4393
     22  N6         8.0670   18.5440   39.9240 N.pl3 201  SAH201      0.2180
     23  N1         7.4620   20.5030   40.8070 N.2   201  SAH201      0.0021
     24  C2         7.4670   21.8390   40.7940 C.3   201  SAH201      0.5254
     25  N3         8.0730   22.4900   39.8280 N.2   201  SAH201     -0.0055
     26  C4         8.6970   21.8570   38.8890 C.2   201  SAH201      0.3518
@<TRIPOS>BOND
     1     1     2    1
     2     8     6   ar
     3     2     6    1
     4     2     3    1
     5     6     7   ar
     6     3     4    2
     7     4     5    1
     8     5     9    1
     9     9    10    1
    10    10    11    1
    11    10    12    1
    12    11    16    1
    13    18    17    1
    14    18    19    1
    15    16    17    1
    16    16    14    1
    17    12    13    1
    18    12    14    1
    19    17    26    1
    20    19    20    2
    21    14    15    1
    22    20    26    1
    23    20    21    1
    24    26    25    2
    25    25    24    1
    26    21    22    1
    27    21    23    2
    28    24    23    1
