@<TRIPOS>MOLECULE
2bb4_III_P_1.pdb
 15 15 0 0 0
SMALL
GASTEIGER

@<TRIPOS>ATOM
      1  N        -12.0070   19.1320   37.8260 N.3     6  PRO6       -0.2102
      2  CA       -10.8050   19.8860   38.2300 C.3     6  PRO6        0.1504
      3  C        -10.5140   20.9910   37.2140 C.2     6  PRO6        0.2572
      4  O        -10.8080   20.8340   36.0110 O.2     6  PRO6       -0.2718
      5  CB        -9.6920   18.8330   38.1840 C.3     6  PRO6        0.0282
      6  CG       -10.3710   17.5020   37.8920 C.3     6  PRO6        0.0208
      7  CD       -11.6640   17.8320   37.2250 C.3     6  PRO6        0.0893
      8  N         -9.9310   22.0930   37.6730 N.am    7  ILE7       -0.2033
      9  CA        -9.7000   23.2480   36.7980 C.3     7  ILE7        0.1282
     10  C         -8.2680   23.8440   36.8880 C.3     7  ILE7        0.2035
     11  O         -8.4260   25.2290   36.9260 O.3     7  ILE7       -0.2185
     12  CB       -10.7140   24.3620   37.0970 C.3     7  ILE7        0.0226
     13  CG1      -10.8850   24.5980   38.6210 C.3     7  ILE7        0.0018
     14  CG2      -12.0520   24.0390   36.4670 C.3     7  ILE7        0.0018
     15  CD1      -11.0800   26.0990   38.8820 C.3     7  ILE7        0.0001
@<TRIPOS>BOND
     1     4     3    2
     2    14    12    1
     3     9    10    1
     4     9    12    1
     5     9     8    1
     6    10    11    1
     7    12    13    1
     8     3     8   am
     9     3     2    1
    10     7     1    1
    11     7     6    1
    12     1     2    1
    13     6     5    1
    14     5     2    1
    15    13    15    1
