@<TRIPOS>MOLECULE
2bb7_QMS_A_1.pdb
 15 16 0 0 0
SMALL
GASTEIGER

@<TRIPOS>ATOM
      1  O2        -2.8350    1.5100   10.7030 O.2   305  QMS305     -0.1528
      2  S1        -4.0670    1.0680   10.0430 S.O2  305  QMS305      0.0751
      3  O1        -4.9790    0.6440   11.0990 O.2   305  QMS305     -0.1528
      4  C7        -4.7920    2.2890    9.2690 C.3   305  QMS305      0.2016
      5  N1        -3.6400   -0.1290    9.0770 N.pl3 305  QMS305     -0.0991
      6  C3        -4.4000   -0.6850    8.1030 C.ar  305  QMS305      0.1082
      7  C2        -5.7230   -0.2570    7.9080 C.ar  305  QMS305      0.0196
      8  C4        -3.8470   -1.7050    7.3170 C.ar  305  QMS305      0.0979
      9  N2        -2.5570   -2.1500    7.4830 N.ar  305  QMS305     -0.2425
     10  C8        -2.0470   -3.1180    6.7060 C.ar  305  QMS305      0.0989
     11  C9        -2.8090   -3.7120    5.6910 C.ar  305  QMS305      0.0207
     12  C10       -4.1150   -3.2830    5.4940 C.ar  305  QMS305      0.0031
     13  C5        -4.6430   -2.2790    6.3080 C.ar  305  QMS305      0.0190
     14  C6        -5.9560   -1.8430    6.1210 C.ar  305  QMS305      0.0016
     15  C1        -6.5020   -0.8510    6.9200 C.ar  305  QMS305      0.0015
@<TRIPOS>BOND
     1    12    11   ar
     2    12    13   ar
     3    11    10   ar
     4    14    13   ar
     5    14    15   ar
     6    13     8   ar
     7    10     9   ar
     8    15     7   ar
     9     8     9   ar
    10     8     6   ar
    11     7     6   ar
    12     6     5    1
    13     5     2    1
    14     4     2    1
    15     2     1    2
    16     2     3    2
