@<TRIPOS>MOLECULE
2bb9_AKC_A_1.pdb
 46 52 0 0 0
SMALL
GASTEIGER

@<TRIPOS>ATOM
      1  O01       13.1760   23.2550    4.2250 O.3   401  AKC401     -0.4346
      2  C02       14.1680   22.6800    4.8980 C.2   401  AKC401      0.4211
      3  O03       15.2420   23.2240    5.0270 O.2   401  AKC401     -0.2246
      4  NP4       13.8430   21.4570    5.3710 N.am  401  AKC401     -0.1675
      5  C05       14.8150   20.6370    6.1560 C.3   401  AKC401      0.1333
      6  C06       15.4910   19.5270    5.2980 C.3   401  AKC401      0.1745
      7  O07       14.6430   18.6420    4.7500 O.3   401  AKC401     -0.2212
      8  C08       16.2920   20.1720    4.1660 C.3   401  AKC401      0.0646
      9  C09       17.5960   19.4290    3.9070 C.3   401  AKC401      0.1419
     10  C10       18.2710   19.8400    2.6000 C.3   401  AKC401      0.0559
     11  C11       19.6960   19.3310    2.4190 C.ar  401  AKC401     -0.0199
     12  C12       19.8820   18.0110    1.8160 C.ar  401  AKC401     -0.0042
     13  C13       21.1920   17.4390    1.7070 C.ar  401  AKC401     -0.0003
     14  C14       22.3030   18.2130    2.2100 C.ar  401  AKC401     -0.0000
     15  C15       22.1490   19.5470    2.7810 C.ar  401  AKC401     -0.0003
     16  C16       20.8290   20.1460    2.8820 C.ar  401  AKC401     -0.0042
     17  C17       18.5540   19.6510    5.1070 C.2   401  AKC401      0.1764
     18  O18       18.9570   20.7120    5.4910 O.2   401  AKC401     -0.2937
     19  C19       20.0990   18.0680    6.6410 C.3   401  AKC401      0.0782
     20  C20       21.3040   17.3990    5.9200 C.3   401  AKC401      0.2133
     21  C22       21.9530   16.5360    7.0280 C.3   401  AKC401      0.1808
     22  C23       20.8860   16.3330    8.0260 C.ar  401  AKC401      0.0005
     23  C24       20.8890   15.3720    9.1040 C.ar  401  AKC401     -0.0026
     24  C25       19.6390   15.2560    9.8460 C.ar  401  AKC401     -0.0003
     25  C26       18.4920   16.0830    9.5450 C.ar  401  AKC401     -0.0003
     26  C27       18.5180   17.0260    8.4650 C.ar  401  AKC401     -0.0044
     27  C28       19.7480   17.1060    7.6990 C.ar  401  AKC401     -0.0201
     28  N29       17.4400   17.9870    3.9380 N.2   401  AKC401     -0.2695
     29  C30       18.1330   17.3860    4.9450 C.2   401  AKC401      0.0746
     30  C35       18.9680   18.3430    5.6410 C.3   401  AKC401      0.1079
     31  C36       14.0960   20.0070    7.3560 C.3   401  AKC401      0.0507
     32  C37       13.5310   21.0750    8.2950 C.ar  401  AKC401     -0.0204
     33  C38       14.4610   21.9240    9.0420 C.ar  401  AKC401     -0.0042
     34  C39       13.9220   23.0330    9.8140 C.ar  401  AKC401     -0.0003
     35  C40       12.4840   23.2350    9.8330 C.ar  401  AKC401     -0.0000
     36  C41       11.5350   22.3640    9.1500 C.ar  401  AKC401     -0.0003
     37  C42       12.0740   21.2550    8.3660 C.ar  401  AKC401     -0.0042
     38  C44       13.3660   24.6260    3.7310 C.3   401  AKC401      0.2024
     39  C45       12.0360   25.2370    3.3000 C.3   401  AKC401      0.1856
     40  O46       11.8280   24.7250    1.9800 O.3   401  AKC401     -0.3498
     41  C47       13.1200   24.7060    1.3270 C.3   401  AKC401      0.1461
     42  C48       14.0410   23.8660    2.2010 C.3   401  AKC401      0.0784
     43  O49       20.9570   16.2800    5.0770 O.3   401  AKC401     -0.4033
     44  N50       22.5670   15.5010    6.3560 N.2   401  AKC401     -0.1657
     45  C51       21.7580   15.2700    5.3100 C.1   401  AKC401      0.3129
     46  O52       21.6950   14.2710    4.6770 O.2   401  AKC401     -0.1832
@<TRIPOS>BOND
     1    41    40    1
     2    41    42    1
     3    13    12   ar
     4    13    14   ar
     5    12    11   ar
     6    40    39    1
     7    42    38    1
     8    14    15   ar
     9    11    10    1
    10    11    16   ar
    11    10     9    1
    12    15    16   ar
    13    39    38    1
    14    38     1    1
    15     9    28    1
    16     9     8    1
    17     9    17    1
    18    28    29    2
    19     8     6    1
    20     1     2    1
    21    46    45    2
    22     7     6    1
    23     2     3    2
    24     2     4   am
    25    29    30    1
    26    43    45    1
    27    43    20    1
    28    17    18    2
    29    17    30    1
    30     6     5    1
    31    45    44    2
    32     4     5    1
    33    30    19    1
    34    20    19    1
    35    20    21    1
    36     5    31    1
    37    44    21    1
    38    19    27    1
    39    21    22    1
    40    31    32    1
    41    27    22   ar
    42    27    26   ar
    43    22    23   ar
    44    32    37   ar
    45    32    33   ar
    46    37    36   ar
    47    26    25   ar
    48    33    34   ar
    49    23    24   ar
    50    36    35   ar
    51    25    24   ar
    52    34    35   ar
