@<TRIPOS>MOLECULE
2bbb_HH1_A_1.pdb
 46 51 0 0 0
SMALL
GASTEIGER

@<TRIPOS>ATOM
      1  O01       12.8760   22.9320    4.3100 O.3   301  HH1301     -0.4346
      2  C02       13.9040   22.3520    4.9250 C.2   301  HH1301      0.4211
      3  O03       14.9410   22.9190    5.1390 O.2   301  HH1301     -0.2246
      4  NP4       13.6540   21.0860    5.2950 N.am  301  HH1301     -0.1675
      5  C05       14.5960   20.3240    6.1320 C.3   301  HH1301      0.1333
      6  C06       15.2710   19.2060    5.3240 C.3   301  HH1301      0.1745
      7  O07       14.3590   18.3970    4.7680 O.3   301  HH1301     -0.2212
      8  C08       16.1560   19.7970    4.2210 C.3   301  HH1301      0.0646
      9  C09       17.5450   19.1160    4.1280 C.3   301  HH1301      0.1419
     10  C10       18.2830   19.4590    2.8270 C.3   301  HH1301      0.0559
     11  C11       19.6540   18.8610    2.6380 C.ar  301  HH1301     -0.0199
     12  C12       19.7440   17.5860    1.9400 C.ar  301  HH1301     -0.0042
     13  C13       21.0340   16.9620    1.7490 C.ar  301  HH1301     -0.0003
     14  C14       22.2070   17.6450    2.2720 C.ar  301  HH1301     -0.0000
     15  C15       22.1300   18.9280    2.9710 C.ar  301  HH1301     -0.0003
     16  C16       20.8360   19.5640    3.1470 C.ar  301  HH1301     -0.0042
     17  C17       18.3860   19.4580    5.3790 C.2   301  HH1301      0.1763
     18  O18       18.7810   20.5500    5.6710 O.2   301  HH1301     -0.2937
     19  C19       19.4380   18.2280    7.4560 C.3   301  HH1301      0.0350
     20  C20       20.9950   18.3710    7.3610 C.3   301  HH1301      0.0100
     21  C49       21.5380   16.4870    5.6560 C.3   301  HH1301      0.0929
     22  C22       21.6120   16.9660    7.1320 C.3   301  HH1301      0.0316
     23  C23       20.6660   16.2150    7.9700 C.ar  301  HH1301     -0.0259
     24  C24       20.9300   14.9410    8.6150 C.ar  301  HH1301     -0.0046
     25  C25       19.8520   14.3990    9.4090 C.ar  301  HH1301     -0.0003
     26  C26       18.5930   15.0870    9.5510 C.ar  301  HH1301     -0.0003
     27  C27       18.3240   16.3550    8.9080 C.ar  301  HH1301     -0.0046
     28  C28       19.4150   16.9050    8.1270 C.ar  301  HH1301     -0.0257
     29  N29       17.4900   17.6780    4.3150 N.2   301  HH1301     -0.2695
     30  C30       18.1160   17.0990    5.3810 C.2   301  HH1301      0.0745
     31  C35       18.6910   18.2310    6.1250 C.3   301  HH1301      0.1043
     32  C36       13.8320   19.7330    7.3350 C.3   301  HH1301      0.0507
     33  C37       13.2940   20.8300    8.2290 C.ar  301  HH1301     -0.0204
     34  C38       14.2560   21.5300    9.0870 C.ar  301  HH1301     -0.0042
     35  C39       13.7800   22.6220    9.9160 C.ar  301  HH1301     -0.0003
     36  C40       12.3670   22.9770    9.8370 C.ar  301  HH1301     -0.0000
     37  C41       11.3970   22.2490    9.0310 C.ar  301  HH1301     -0.0003
     38  C42       11.8710   21.1470    8.2100 C.ar  301  HH1301     -0.0042
     39  C44       13.0370   24.3340    3.9770 C.3   301  HH1301      0.2024
     40  C45       11.7140   24.9450    3.4900 C.3   301  HH1301      0.1856
     41  O46       11.4530   24.3640    2.1830 O.3   301  HH1301     -0.3498
     42  C47       12.7080   24.2050    1.5010 C.3   301  HH1301      0.1461
     43  C48       13.6830   24.4880    2.6230 C.3   301  HH1301      0.0784
     44  C1        21.8780   15.0040    5.4970 C.2   301  HH1301      0.2611
     45  N1        23.1320   14.6290    5.8260 N.am  301  HH1301     -0.0878
     46  O2        21.0270   14.2140    5.0920 O.2   301  HH1301     -0.2716
@<TRIPOS>BOND
     1    42    41    1
     2    42    43    1
     3    13    12   ar
     4    13    14   ar
     5    12    11   ar
     6    41    40    1
     7    14    15   ar
     8    43    39    1
     9    11    10    1
    10    11    16   ar
    11    10     9    1
    12    15    16   ar
    13    40    39    1
    14    39     1    1
    15     9     8    1
    16     9    29    1
    17     9    17    1
    18     8     6    1
    19     1     2    1
    20    29    30    2
    21     7     6    1
    22     2     3    2
    23     2     4   am
    24    46    44    2
    25     4     5    1
    26     6     5    1
    27    17    18    2
    28    17    31    1
    29    30    31    1
    30    44    21    1
    31    44    45   am
    32    21    22    1
    33    31    19    1
    34     5    32    1
    35    22    20    1
    36    22    23    1
    37    32    33    1
    38    20    19    1
    39    19    28    1
    40    23    28   ar
    41    23    24   ar
    42    28    27   ar
    43    38    33   ar
    44    38    37   ar
    45    33    34   ar
    46    24    25   ar
    47    27    26   ar
    48    37    36   ar
    49    34    35   ar
    50    25    26   ar
    51    36    35   ar
