@<TRIPOS>MOLECULE
2bbf_344_A_1.pdb
 15 17 0 0 0
SMALL
GASTEIGER

@<TRIPOS>ATOM
      1  N4        18.9510   17.8630   18.0720 N.2   900  344900     -0.2431
      2  C9        18.1470   17.5960   17.0150 C.3   900  344900      0.2505
      3  N5        16.9410   17.1950   17.4920 N.2   900  344900     -0.2467
      4  C1        16.9490   17.2020   18.8330 C.2   900  344900      0.0803
      5  C2        15.9660   16.8760   19.8060 C.3   900  344900      0.1076
      6  C3        16.3530   17.0150   21.1700 C.2   900  344900      0.1406
      7  N3        15.4620   16.7360   22.1690 N.2   900  344900     -0.3286
      8  C8        15.7420   16.8460   23.4270 C.1   900  344900      0.2515
      9  N2        14.8610   16.5790   24.3410 N.pl3 900  344900     -0.0226
     10  N1        16.9370   17.2440   23.8590 N.2   900  344900     -0.2501
     11  C7        17.9340   17.5560   23.0260 C.1   900  344900      0.2180
     12  O1        19.0290   17.9210   23.4260 O.2   900  344900     -0.2085
     13  C4        17.6760   17.4550   21.5240 C.2   900  344900      0.1236
     14  C5        18.6590   17.7720   20.5370 C.2   900  344900      0.0349
     15  C6        18.2420   17.6270   19.1850 C.2   900  344900      0.0926
@<TRIPOS>BOND
     1     2     3    1
     2     2     1    1
     3     3     4    2
     4     1    15    2
     5     4    15    1
     6     4     5    1
     7    15    14    1
     8     5     6    1
     9    14    13    2
    10     6    13    1
    11     6     7    2
    12    13    11    1
    13     7     8    2
    14    11    12    2
    15    11    10    2
    16     8    10    2
    17     8     9    1
