@<TRIPOS>MOLECULE
2bbh_DMU_A_1.pdb
 33 34 0 0 0
SMALL
GASTEIGER

@<TRIPOS>ATOM
      1  C1        17.1170   38.8190    4.3640 C.3   401  DMU401      0.2590
      2  C2        16.6420   40.2150    4.7330 C.3   401  DMU401      0.2472
      3  C3        16.7490   40.3170    6.2340 C.2   401  DMU401      0.1839
      4  C4        17.9650   39.7560    6.8750 C.2   401  DMU401      0.1842
      5  O5        19.0560   39.3400    5.9800 O.2   401  DMU401     -0.4494
      6  C6        18.5850   38.8600    4.6640 C.3   401  DMU401      0.3220
      7  O7        15.6170   40.9310    6.9320 O.2   401  DMU401     -0.4494
      8  O16       19.5060   38.4500    3.6150 O.3   401  DMU401     -0.3186
      9  C18       20.6350   37.7410    4.1540 C.3   401  DMU401      0.1460
     10  C19       20.3400   36.4550    4.8450 C.3   401  DMU401      0.0322
     11  C22       20.8620   35.4130    3.8970 C.3   401  DMU401      0.0026
     12  C25       21.9690   34.6780    4.5920 C.3   401  DMU401      0.0001
     13  C28       22.4830   33.6060    3.6660 C.3   401  DMU401      0.0000
     14  C31       23.0870   32.4870    4.4980 C.3   401  DMU401      0.0000
     15  C34       24.0370   31.6960    3.6220 C.3   401  DMU401      0.0000
     16  C37       24.5300   30.4680    4.3560 C.3   401  DMU401      0.0000
     17  C40       25.6060   29.7910    3.5160 C.3   401  DMU401      0.0000
     18  C43       26.1920   28.6380    4.3070 C.3   401  DMU401      0.0000
     19  O49       16.8140   38.5060    2.9940 O.3   401  DMU401     -0.2131
     20  O55       17.4310   41.2480    4.1210 O.3   401  DMU401     -0.2118
     21  C57       18.1030   39.5780    8.3880 C.3   401  DMU401      0.2483
     22  O61       18.5920   38.2700    8.7670 O.3   401  DMU401     -0.2116
     23  C5        13.3450   40.2830    5.8570 C.3   401  DMU401      0.2541
     24  C7        12.0660   41.0480    5.4760 C.3   401  DMU401      0.2211
     25  C8        12.2590   41.9410    4.2420 C.3   401  DMU401      0.2145
     26  C9        13.4330   42.8610    4.4480 C.3   401  DMU401      0.1846
     27  O1        14.6690   42.3560    5.0490 O.3   401  DMU401     -0.3157
     28  C10       14.5410   41.2080    5.9610 C.3   401  DMU401      0.3217
     29  O2        12.4590   41.1440    3.0640 O.3   401  DMU401     -0.2176
     30  O3        13.1650   39.5490    7.0850 O.3   401  DMU401     -0.2135
     31  O4        11.6040   41.8590    6.5700 O.3   401  DMU401     -0.2173
     32  C11       13.3290   44.3130    4.0310 C.3   401  DMU401      0.2142
     33  O6        14.3290   44.6010    3.0440 O.3   401  DMU401     -0.2176
@<TRIPOS>BOND
     1    19     1    1
     2    33    32    1
     3    29    25    1
     4    17    18    1
     5    17    16    1
     6     8     9    1
     7     8     6    1
     8    15    16    1
     9    15    14    1
    10    13    14    1
    11    13    12    1
    12    11    12    1
    13    11    10    1
    14    32    26    1
    15    20     2    1
    16     9    10    1
    17    25    26    1
    18    25    24    1
    19     1     6    1
    20     1     2    1
    21    26    27    1
    22     6     5    1
    23     2     3    1
    24    27    28    1
    25    24    23    1
    26    24    31    1
    27    23    28    1
    28    23    30    1
    29    28     7    1
    30     5     4    1
    31     3     4    2
    32     3     7    1
    33     4    21    1
    34    21    22    1
