@<TRIPOS>MOLECULE
2bbo_ATP_A_1.pdb
 31 33 0 0 0
SMALL
GASTEIGER

@<TRIPOS>ATOM
      1  PG        61.3330   33.7730   82.0890 P.3     1  ATP1        0.5373
      2  O1G       61.7260   32.7200   81.0770 O.2     1  ATP1       -0.2221
      3  O2G       59.8500   33.9820   82.2570 O.3     1  ATP1       -0.1143
      4  O3G       62.0640   33.6160   83.4030 O.3     1  ATP1       -0.1143
      5  PB        61.2780   35.9740   80.2280 P.3     1  ATP1        0.2277
      6  O1B       62.0020   35.5930   78.9620 O.2     1  ATP1       -0.5168
      7  O2B       59.7750   35.8510   80.2560 O.3     1  ATP1       -0.4368
      8  O3B       61.9170   35.1510   81.4610 O.3     1  ATP1       -0.2258
      9  PA        60.6560   38.6910   80.7890 P.3     1  ATP1        0.2189
     10  O1A       59.6950   38.3610   81.9100 O.3     1  ATP1       -0.4371
     11  O2A       60.1240   39.1090   79.4430 O.2     1  ATP1       -0.5170
     12  O3A       61.7140   37.4820   80.6070 O.3     1  ATP1       -0.2700
     13  O5'       61.5340   39.9120   81.3270 O.3     1  ATP1       -0.3112
     14  C5'       62.7910   40.3350   80.8010 C.3     1  ATP1        0.1813
     15  C4'       63.2460   41.4490   81.7400 C.3     1  ATP1        0.1821
     16  O4'       62.2660   42.4970   81.7460 O.3     1  ATP1       -0.3135
     17  C3'       63.3620   40.9350   83.1720 C.3     1  ATP1        0.2184
     18  O3'       64.6860   41.1980   83.6450 O.3     1  ATP1       -0.2174
     19  C2'       62.3030   41.6830   83.9740 C.3     1  ATP1        0.2570
     20  O2'       62.8010   42.1840   85.2220 O.3     1  ATP1       -0.2130
     21  C1'       61.8580   42.8310   83.0770 C.3     1  ATP1        0.3186
     22  N9        60.3850   43.0340   83.1420 N.pl3   1  ATP1       -0.1439
     23  C8        59.4420   42.1310   82.8100 C.3     1  ATP1        0.3377
     24  N7        58.1890   42.6340   82.9830 N.2     1  ATP1       -0.2095
     25  C5        58.3170   43.8960   83.4380 C.2     1  ATP1        0.2526
     26  C6        57.3960   44.9990   83.8270 C.2     1  ATP1        0.4393
     27  N6        56.0500   44.8510   83.7680 N.pl3   1  ATP1        0.2180
     28  N1        57.9470   46.1650   84.2470 N.2     1  ATP1        0.0021
     29  C2        59.2850   46.3350   84.3150 C.3     1  ATP1        0.5254
     30  N3        60.1760   45.3790   83.9750 N.2     1  ATP1       -0.0055
     31  C4        59.7670   44.1560   83.5380 C.2     1  ATP1        0.3518
@<TRIPOS>BOND
     1     6     5    2
     2    11     9    2
     3     5     7    1
     4     5    12    1
     5     5     8    1
     6    12     9    1
     7     9    13    1
     8     9    10    1
     9    14    13    1
    10    14    15    1
    11     2     1    2
    12     8     1    1
    13    15    16    1
    14    15    17    1
    15    16    21    1
    16     1     3    1
    17     1     4    1
    18    23    24    1
    19    23    22    1
    20    24    25    2
    21    21    22    1
    22    21    19    1
    23    22    31    1
    24    17    18    1
    25    17    19    1
    26    25    31    1
    27    25    26    1
    28    31    30    2
    29    27    26    1
    30    26    28    2
    31    19    20    1
    32    30    29    1
    33    28    29    1
