@<TRIPOS>MOLECULE
2bbq_UMP_A_1.pdb
 20 21 0 0 0
SMALL
GASTEIGER

@<TRIPOS>ATOM
      1  N1        17.6770   19.9780   31.1260 N.am  529  UMP529     -0.2018
      2  C2        18.4690   19.8810   32.2590 C.1   529  UMP529      0.2802
      3  N3        19.4850   18.9440   32.2330 N.2   529  UMP529     -0.2497
      4  C4        19.6800   17.9960   31.2690 C.1   529  UMP529      0.1941
      5  C5        18.6810   17.9680   30.2310 C.3   529  UMP529      0.1579
      6  C6        18.2430   19.3370   29.9370 C.3   529  UMP529      0.1249
      7  O2        18.3740   20.6790   33.1820 O.2   529  UMP529     -0.1922
      8  O4        20.6500   17.2450   31.3300 O.2   529  UMP529     -0.2133
      9  C1'       16.5580   20.8860   30.8960 C.3   529  UMP529      0.2048
     10  C2'       16.7330   22.3730   30.9380 C.3   529  UMP529      0.0871
     11  C3'       15.4140   22.9580   30.5200 C.3   529  UMP529      0.1857
     12  C4'       14.8680   21.8610   29.6170 C.3   529  UMP529      0.1774
     13  O3'       14.5920   23.0520   31.6670 O.3   529  UMP529     -0.2203
     14  O4'       15.2950   20.6670   30.2290 O.3   529  UMP529     -0.3342
     15  C5'       15.4170   21.7880   28.2310 C.3   529  UMP529      0.1858
     16  O5'       14.6150   22.7240   27.4360 O.3   529  UMP529     -0.2675
     17  P         15.2750   23.7730   26.4790 P.3   529  UMP529      0.5327
     18  OP1       14.2260   24.6630   25.9020 O.3   529  UMP529     -0.1145
     19  OP2       16.2430   24.5960   27.2360 O.3   529  UMP529     -0.1145
     20  OP3       15.9800   23.1670   25.3550 O.2   529  UMP529     -0.2224
@<TRIPOS>BOND
     1    20    17    2
     2    18    17    1
     3    17    19    1
     4    17    16    1
     5    16    15    1
     6    15    12    1
     7    12    14    1
     8    12    11    1
     9     6     5    1
    10     6     1    1
    11    14     9    1
    12     5     4    1
    13    11    10    1
    14    11    13    1
    15     9    10    1
    16     9     1    1
    17     1     2   am
    18     4     8    2
    19     4     3    2
    20     3     2    2
    21     2     7    2
