@<TRIPOS>MOLECULE
2bbq_PFG_B_1.pdb
 43 45 0 0 0
SMALL
GASTEIGER

@<TRIPOS>ATOM
      1  N1        48.4110   35.0050   22.8840 N.2   532  PFG532     -0.3245
      2  C2        48.5690   35.2490   24.2010 C.1   532  PFG532      0.2518
      3  NA2       49.5110   34.6370   24.9220 N.pl3 532  PFG532     -0.0226
      4  N3        47.7930   36.1110   24.8340 N.2   532  PFG532     -0.2501
      5  C4        46.8610   36.7870   24.1860 C.1   532  PFG532      0.2180
      6  O4        46.1760   37.7420   24.8850 O.2   532  PFG532     -0.2085
      7  C4A       46.6330   36.5780   22.8290 C.2   532  PFG532      0.1220
      8  C5        45.6360   37.2680   22.1300 C.2   532  PFG532     -0.0051
      9  C6        45.4630   37.0620   20.7610 C.3   532  PFG532      0.0646
     10  C7        46.2490   36.0990   20.1260 C.2   532  PFG532     -0.0177
     11  C8        47.2080   35.3840   20.8390 C.2   532  PFG532      0.0296
     12  C8A       47.4270   35.6310   22.1950 C.2   532  PFG532      0.1564
     13  C9        44.7680   38.0530   19.9010 C.3   532  PFG532      0.1004
     14  N10       44.5020   39.3560   20.5320 N.pl3 532  PFG532     -0.2959
     15  CP1       43.0740   39.6100   20.6120 C.3   532  PFG532      0.1695
     16  CP2       42.6250   39.1760   21.9450 C.1   532  PFG532     -0.0557
     17  CP3       42.2720   38.9070   23.0590 C.1   532  PFG532     -0.0124
     18  C11       47.4620   41.8680   22.0110 C.ar  532  PFG532      0.0551
     19  C12       46.1750   41.9590   22.5130 C.ar  532  PFG532      0.0058
     20  C13       45.1610   41.1190   22.0490 C.ar  532  PFG532      0.0147
     21  C14       45.4520   40.1780   21.0670 C.ar  532  PFG532      0.0486
     22  C15       46.7690   40.0990   20.5860 C.ar  532  PFG532      0.0147
     23  C16       47.7560   40.9260   21.0620 C.ar  532  PFG532      0.0058
     24  C         48.5040   42.8230   22.3430 C.2   532  PFG532      0.2652
     25  O         49.6760   42.6160   22.0250 O.2   532  PFG532     -0.2684
     26  NP1       48.1610   43.9730   22.9680 N.am  532  PFG532     -0.1918
     27  CA1       49.1250   45.0300   23.3820 C.3   532  PFG532      0.1985
     28  CB1       49.4810   45.9750   22.2200 C.3   532  PFG532      0.0429
     29  CG1       48.3300   46.6030   21.4840 C.3   532  PFG532      0.0892
     30  CD1       48.8140   47.1500   20.1610 C.2   532  PFG532      0.2419
     31  OE1       48.7210   46.4720   19.1350 O.2   532  PFG532     -0.2733
     32  CT1       48.5140   45.8520   24.4970 C.2   532  PFG532      0.3842
     33  O11       49.2720   46.3970   25.2840 O.co2 532  PFG532     -0.2437
     34  O21       47.2950   45.9060   24.6230 O.co2 532  PFG532     -0.2437
     35  NP2       48.5610   48.4510   20.0900 N.am  532  PFG532     -0.1956
     36  CA2       49.2560   49.3360   19.1150 C.3   532  PFG532      0.1982
     37  CB2       49.4130   50.6600   19.8210 C.3   532  PFG532      0.0415
     38  CG2       49.2580   51.8730   18.9590 C.3   532  PFG532      0.0746
     39  CD2       49.5000   53.1100   19.8090 C.2   532  PFG532      0.2075
     40  OE2       50.6350   53.5400   20.0270 O.2   532  PFG532     -0.2883
     41  CT2       50.6010   48.8070   18.5790 C.2   532  PFG532      0.3842
     42  O12       51.4610   48.4120   19.3890 O.co2 532  PFG532     -0.2437
     43  O22       50.7410   48.7540   17.3490 O.co2 532  PFG532     -0.2437
@<TRIPOS>BOND
     1    43    41   ar
     2    41    36    1
     3    41    42   ar
     4    38    39    1
     5    38    37    1
     6    36    37    1
     7    36    35    1
     8    31    30    2
     9    39    40    2
    10    13    14    1
    11    13     9    1
    12    35    30   am
    13    10     9    1
    14    10    11    2
    15    30    29    1
    16    14    15    1
    17    14    21    1
    18    22    23   ar
    19    22    21   ar
    20    15    16    1
    21     9     8    1
    22    11    12    1
    23    23    18   ar
    24    21    20   ar
    25    29    28    1
    26    16    17    3
    27    18    24    1
    28    18    19   ar
    29    25    24    2
    30    20    19   ar
    31     8     7    2
    32    12     7    1
    33    12     1    2
    34    28    27    1
    35    24    26   am
    36     7     5    1
    37     1     2    2
    38    26    27    1
    39    27    32    1
    40     5     4    2
    41     5     6    2
    42     2     4    2
    43     2     3    1
    44    32    34   ar
    45    32    33   ar
