@<TRIPOS>MOLECULE
2bbs_ATP_A_1.pdb
 31 33 0 0 0
SMALL
GASTEIGER

@<TRIPOS>ATOM
      1  PG        13.3570   28.6260  121.7350 P.3     1  ATP1        0.5373
      2  O1G       12.4100   29.4700  120.9100 O.2     1  ATP1       -0.2221
      3  O2G       14.8170   28.8340  121.3950 O.3     1  ATP1       -0.1143
      4  O3G       13.0160   28.6290  123.1810 O.3     1  ATP1       -0.1143
      5  PB        13.5300   26.1050  120.2820 P.3     1  ATP1        0.2277
      6  O1B       12.5240   26.0100  119.2030 O.2     1  ATP1       -0.5168
      7  O2B       14.9670   26.4500  119.9260 O.3     1  ATP1       -0.4368
      8  O3B       12.9170   27.0890  121.3950 O.3     1  ATP1       -0.2258
      9  PA        14.6580   23.6910  121.3510 P.3     1  ATP1        0.2189
     10  O1A       15.7630   24.3610  122.1480 O.3     1  ATP1       -0.4371
     11  O2A       15.0180   22.9600  120.0920 O.2     1  ATP1       -0.5170
     12  O3A       13.4840   24.7100  121.0320 O.3     1  ATP1       -0.2700
     13  O5'       13.7860   22.7350  122.3020 O.3     1  ATP1       -0.3112
     14  C5'       12.7960   21.8310  121.7920 C.3     1  ATP1        0.1813
     15  C4'       12.4090   20.8590  122.9010 C.3     1  ATP1        0.1821
     16  O4'       13.4590   19.9070  123.0670 O.3     1  ATP1       -0.3135
     17  C3'       12.2260   21.5260  124.2680 C.3     1  ATP1        0.2184
     18  O3'       11.1860   20.8400  124.9750 O.3     1  ATP1       -0.2174
     19  C2'       13.5260   21.2740  124.9970 C.3     1  ATP1        0.2570
     20  O2'       13.3550   21.1970  126.4200 O.3     1  ATP1       -0.2130
     21  C1'       13.9940   19.9480  124.4040 C.3     1  ATP1        0.3186
     22  N9        15.4750   19.8400  124.3410 N.pl3   1  ATP1       -0.1439
     23  C8        16.3430   20.7200  123.7790 C.3     1  ATP1        0.3377
     24  N7        17.6210   20.2810  123.8720 N.2     1  ATP1       -0.2095
     25  C5        17.5810   19.0930  124.5120 C.2     1  ATP1        0.2526
     26  C6        18.5500   18.0710  124.9500 C.2     1  ATP1        0.4393
     27  N6        19.8790   18.1980  124.7480 N.pl3   1  ATP1        0.2180
     28  N1        18.0830   16.9740  125.5650 N.2     1  ATP1        0.0021
     29  C2        16.7740   16.7820  125.8230 C.3     1  ATP1        0.5254
     30  N3        15.8200   17.6510  125.4430 N.2     1  ATP1       -0.0055
     31  C4        16.1610   18.8020  124.7970 C.2     1  ATP1        0.3518
@<TRIPOS>BOND
     1     6     5    2
     2     7     5    1
     3    11     9    2
     4     5    12    1
     5     5     8    1
     6     2     1    2
     7    12     9    1
     8     9    10    1
     9     9    13    1
    10     3     1    1
    11     8     1    1
    12     1     4    1
    13    14    13    1
    14    14    15    1
    15    15    16    1
    16    15    17    1
    17    16    21    1
    18    23    24    1
    19    23    22    1
    20    24    25    2
    21    17    18    1
    22    17    19    1
    23    22    21    1
    24    22    31    1
    25    21    19    1
    26    25    31    1
    27    25    26    1
    28    27    26    1
    29    31    30    2
    30    26    28    2
    31    19    20    1
    32    30    29    1
    33    28    29    1
