@<TRIPOS>MOLECULE
2bbt_ATP_A_1.pdb
 31 33 0 0 0
SMALL
GASTEIGER

@<TRIPOS>ATOM
      1  PG        20.7930   31.4480  100.3940 P.3     1  ATP1        0.5373
      2  O1G       20.2180   32.4120  101.3940 O.3     1  ATP1       -0.1143
      3  O2G       20.5380   29.9940  100.6930 O.3     1  ATP1       -0.1143
      4  O3G       20.5680   31.8150   98.9500 O.2     1  ATP1       -0.2221
      5  PB        23.2590   31.2070  101.8070 P.3     1  ATP1        0.2277
      6  O1B       23.0620   32.2470  102.8760 O.3     1  ATP1       -0.4368
      7  O2B       23.0300   29.7580  102.1480 O.2     1  ATP1       -0.5168
      8  O3B       22.3890   31.6460  100.5250 O.3     1  ATP1       -0.2258
      9  PA        25.7200   30.2020  100.7200 P.3     1  ATP1        0.2189
     10  O1A       24.9700   29.2010   99.8920 O.2     1  ATP1       -0.5170
     11  O2A       26.5140   29.7090  101.9050 O.3     1  ATP1       -0.4371
     12  O3A       24.7420   31.3940  101.1960 O.3     1  ATP1       -0.2700
     13  O5'       26.7350   30.9840   99.7470 O.3     1  ATP1       -0.3112
     14  C5'       27.4920   32.1180  100.1700 C.3     1  ATP1        0.1813
     15  C4'       28.5440   32.4430   99.1070 C.3     1  ATP1        0.1821
     16  O4'       29.4600   31.3510   98.9570 O.3     1  ATP1       -0.3135
     17  C3'       27.9360   32.6710   97.7270 C.3     1  ATP1        0.2184
     18  O3'       28.6860   33.6950   97.0670 O.3     1  ATP1       -0.2174
     19  C2'       28.1270   31.3510   97.0080 C.3     1  ATP1        0.2570
     20  O2'       28.1910   31.5060   95.5840 O.3     1  ATP1       -0.2130
     21  C1'       29.4350   30.8560   97.6140 C.3     1  ATP1        0.3186
     22  N9        29.5360   29.3780   97.6280 N.pl3   1  ATP1       -0.1439
     23  C8        28.6170   28.5180   98.1190 C.3     1  ATP1        0.3377
     24  N7        29.0290   27.2360   97.9750 N.2     1  ATP1       -0.2095
     25  C5        30.2410   27.2690   97.3770 C.2     1  ATP1        0.2526
     26  C6        31.2430   26.2730   96.9340 C.2     1  ATP1        0.4393
     27  N6        31.0180   24.9490   97.1070 N.pl3   1  ATP1        0.2180
     28  N1        32.3830   26.7270   96.3520 N.2     1  ATP1        0.0021
     29  C2        32.6200   28.0420   96.1710 C.3     1  ATP1        0.5254
     30  N3        31.7550   29.0030   96.5560 N.2     1  ATP1       -0.0055
     31  C4        30.5720   28.6850   97.1520 C.2     1  ATP1        0.3518
@<TRIPOS>BOND
     1    20    19    1
     2    29    28    1
     3    29    30    1
     4    28    26    2
     5    30    31    2
     6    26    27    1
     7    26    25    1
     8    19    21    1
     9    19    17    1
    10    18    17    1
    11    31    25    1
    12    31    22    1
    13    25    24    2
    14    21    22    1
    15    21    16    1
    16    22    23    1
    17    17    15    1
    18    24    23    1
    19     4     1    2
    20    16    15    1
    21    15    14    1
    22    13    14    1
    23    13     9    1
    24    10     9    2
    25     1     8    1
    26     1     3    1
    27     1     2    1
    28     8     5    1
    29     9    12    1
    30     9    11    1
    31    12     5    1
    32     5     7    2
    33     5     6    1
