@<TRIPOS>MOLECULE
2bc5_HEM_A_1.pdb
 43 50 0 0 0
SMALL
GASTEIGER

@<TRIPOS>ATOM
      1 FE          9.2990    5.5130   29.5460 Fe    150  HEM150      0.0000
      2  CHA       12.2120    5.3580   27.8660 C.2   150  HEM150      0.0000
      3  CHB        9.2520    9.0240   28.7930 C.2   150  HEM150      0.0000
      4  CHC        6.3980    5.8180   31.0580 C.2   150  HEM150      0.0000
      5  CHD        9.3250    2.1330   30.0370 C.2   150  HEM150      0.0000
      6  NA        10.4770    6.9660   28.5120 N.ar  150  HEM150      0.0000
      7  C1A       11.6800    6.6470   27.9340 C.ar  150  HEM150      0.0000
      8  C2A       12.2900    7.8370   27.3450 C.ar  150  HEM150      0.0000
      9  C3A       11.4240    8.8590   27.5500 C.ar  150  HEM150      0.0000
     10  C4A       10.3140    8.3130   28.3000 C.ar  150  HEM150      0.0000
     11  CMA       11.5890   10.2590   26.9920 C.3   150  HEM150      0.0000
     12  CAA       13.6790    7.9970   26.6810 C.3   150  HEM150      0.0000
     13  CBA       14.0280    7.1380   25.4810 C.3   150  HEM150      0.0000
     14  CGA       13.1640    7.4340   24.2690 C.2   150  HEM150      0.0000
     15  O1A       11.9250    7.4750   24.4160 O.co2 150  HEM150      0.0000
     16  O2A       13.7230    7.6140   23.1620 O.co2 150  HEM150      0.0000
     17  NB         8.0780    7.1320   29.8250 N.2   150  HEM150      0.0000
     18  C1B        8.2050    8.4850   29.5280 C.2   150  HEM150      0.0000
     19  C2B        7.1080    9.2700   30.1110 C.2   150  HEM150      0.0000
     20  C3B        6.3040    8.3610   30.7820 C.2   150  HEM150      0.0000
     21  C4B        6.9320    7.0270   30.5560 C.2   150  HEM150      0.0000
     22  CMB        6.9040   10.7740   30.0420 C.3   150  HEM150      0.0000
     23  CAB        5.1890    8.6450   31.6500 C.3   150  HEM150      0.0000
     24  CBB        4.1490    9.5700   31.2670 C.3   150  HEM150      0.0000
     25  NC         8.0340    4.1770   30.2930 N.ar  150  HEM150      0.0000
     26  C1C        6.8860    4.5210   30.9550 C.ar  150  HEM150      0.0000
     27  C2C        6.3100    3.3860   31.5920 C.ar  150  HEM150      0.0000
     28  C3C        7.1300    2.3320   31.3350 C.ar  150  HEM150      0.0000
     29  C4C        8.2070    2.8430   30.5130 C.ar  150  HEM150      0.0000
     30  CMC        5.0260    3.3510   32.3890 C.3   150  HEM150      0.0000
     31  CAC        7.0630    1.0070   31.8030 C.3   150  HEM150      0.0000
     32  CBC        5.8690    0.3370   32.1420 C.3   150  HEM150      0.0000
     33  ND        10.4930    4.0230   29.0140 N.2   150  HEM150      0.0000
     34  C1D       10.3960    2.6850   29.3270 C.2   150  HEM150      0.0000
     35  C2D       11.5500    1.9630   28.8360 C.2   150  HEM150      0.0000
     36  C3D       12.3300    2.8410   28.2030 C.2   150  HEM150      0.0000
     37  C4D       11.6910    4.1510   28.3370 C.2   150  HEM150      0.0000
     38  CMD       11.9380    0.5130   29.0590 C.3   150  HEM150      0.0000
     39  CAD       13.5530    2.4240   27.3960 C.3   150  HEM150      0.0000
     40  CBD       13.1070    2.3970   25.9460 C.3   150  HEM150      0.0000
     41  CGD       14.2120    2.0140   24.9940 C.2   150  HEM150      0.0000
     42  O1D       14.3330    0.8170   24.6690 O.co2 150  HEM150      0.0000
     43  O2D       14.9640    2.9170   24.5740 O.co2 150  HEM150      0.0000
@<TRIPOS>BOND
     1    16    14   ar
     2    14    15   ar
     3    14    13    1
     4    43    41   ar
     5    42    41   ar
     6    41    40    1
     7    13    12    1
     8    40    39    1
     9    12     8    1
    10    11     9    1
    11     8     9   ar
    12     8     7   ar
    13    39    36    1
    14     9    10   ar
    15     2     7    2
    16     2    37    1
    17     7     6   ar
    18    36    37    1
    19    36    35    2
    20    10     6   ar
    21    10     3    2
    22    37    33    2
    23     6     1    1
    24     3    18    1
    25    35    38    1
    26    35    34    1
    27    33    34    1
    28    33     1    1
    29    34     5    2
    30    18    17    2
    31    18    19    1
    32     1    17    1
    33     1    25    1
    34    17    21    1
    35     5    29    1
    36    22    19    1
    37    19    20    2
    38    25    29   ar
    39    25    26   ar
    40    29    28   ar
    41    21    20    1
    42    21     4    2
    43    20    23    1
    44    26     4    1
    45    26    27   ar
    46    24    23    1
    47    28    27   ar
    48    28    31    1
    49    27    30    1
    50    31    32    1
