@<TRIPOS>MOLECULE
2bc9_GNP_A_1.pdb
 32 34 0 0 0
SMALL
GASTEIGER

@<TRIPOS>ATOM
      1  PG         4.7560   12.3580   42.5540 P.3   593  GNP593      0.4884
      2  O1G        5.2050   12.9660   41.2820 O.2   593  GNP593     -0.2331
      3  O2G        4.8010   13.4360   43.7470 O.3   593  GNP593     -0.1240
      4  O3G        5.7280   11.1560   43.0040 O.3   593  GNP593     -0.1240
      5  N3B        3.2410   11.7780   42.4620 N.3   593  GNP593     -0.0163
      6  PB         2.7680   10.9000   43.7440 P.3   593  GNP593      0.4669
      7  O1B        3.5460    9.6410   43.7750 O.2   593  GNP593     -0.2351
      8  O2B        2.7700   11.7490   44.9560 O.3   593  GNP593     -0.1253
      9  O3A        1.2450   10.5360   43.3710 O.3   593  GNP593     -0.2360
     10  PA         0.0220   11.4930   43.7960 P.3   593  GNP593      0.2220
     11  O1A       -0.3940   11.1210   45.1670 O.3   593  GNP593     -0.4370
     12  O2A        0.4060   12.8980   43.5390 O.2   593  GNP593     -0.5170
     13  O5'       -1.1140   11.0700   42.7390 O.3   593  GNP593     -0.3111
     14  C5'       -0.9820   11.4850   41.3780 C.3   593  GNP593      0.1813
     15  C4'       -2.2820   11.2720   40.5980 C.3   593  GNP593      0.1799
     16  O4'       -2.6450    9.8860   40.7220 O.3   593  GNP593     -0.3326
     17  C3'       -3.4360   12.0680   41.2120 C.3   593  GNP593      0.2158
     18  O3'       -4.4730   12.2700   40.2490 O.3   593  GNP593     -0.2175
     19  C2'       -3.9050   11.1030   42.2980 C.3   593  GNP593      0.2310
     20  O2'       -5.2700   11.3840   42.6220 O.3   593  GNP593     -0.2158
     21  C1'       -3.8400    9.7920   41.5140 C.3   593  GNP593      0.2293
     22  N9        -3.7460    8.6090   42.3980 N.pl3 593  GNP593     -0.2354
     23  C8        -3.6280    8.6180   43.7210 C.3   593  GNP593      0.2246
     24  N7        -3.5190    7.3740   44.1750 N.2   593  GNP593     -0.2322
     25  C5        -3.5740    6.5520   43.1210 C.2   593  GNP593      0.2182
     26  C6        -3.5350    5.1760   42.9980 C.1   593  GNP593      0.2372
     27  O6        -3.4100    4.4530   43.9870 O.2   593  GNP593     -0.2069
     28  N1        -3.6480    4.6090   41.7190 N.2   593  GNP593     -0.2485
     29  C2        -3.7980    5.4480   40.6110 C.1   593  GNP593      0.2531
     30  N2        -3.9610    4.9120   39.4040 N.pl3 593  GNP593     -0.0226
     31  N3        -3.8230    6.7810   40.7730 N.2   593  GNP593     -0.3074
     32  C4        -3.7190    7.3380   41.9860 C.2   593  GNP593      0.2300
@<TRIPOS>BOND
     1    30    29    1
     2    18    17    1
     3    15    16    1
     4    15    17    1
     5    15    14    1
     6    29    31    2
     7    29    28    2
     8    16    21    1
     9    31    32    2
    10    17    19    1
    11     2     1    2
    12    14    13    1
    13    21    19    1
    14    21    22    1
    15    28    26    2
    16    32    22    1
    17    32    25    1
    18    19    20    1
    19    22    23    1
    20     5     1    1
    21     5     6    1
    22     1     4    1
    23     1     3    1
    24    13    10    1
    25    26    25    1
    26    26    27    2
    27    25    24    2
    28     9     6    1
    29     9    10    1
    30    12    10    2
    31    23    24    1
    32     6     7    2
    33     6     8    1
    34    10    11    1
