@<TRIPOS>MOLECULE
2bcc_HEM_C_1.pdb
 43 50 0 0 0
SMALL
GASTEIGER

@<TRIPOS>ATOM
      1  CHA       21.2440  137.4400   76.7900 C.2   381  HEM381      0.0000
      2  CHB       20.5080  132.7980   76.2890 C.2   381  HEM381      0.0000
      3  CHC       24.8240  131.9780   77.9450 C.2   381  HEM381      0.0000
      4  CHD       25.6070  136.6190   78.3320 C.2   381  HEM381      0.0000
      5  C1A       20.7030  136.2380   76.5470 C.ar  381  HEM381      0.0000
      6  C2A       19.3490  136.0710   76.1930 C.ar  381  HEM381      0.0000
      7  C3A       19.1150  134.7600   76.0970 C.ar  381  HEM381      0.0000
      8  C4A       20.3700  134.1450   76.3270 C.ar  381  HEM381      0.0000
      9  CMA       17.7870  134.0850   75.7920 C.3   381  HEM381      0.0000
     10  CAA       18.4130  137.1390   75.7900 C.3   381  HEM381      0.0000
     11  CBA       18.7540  137.3860   74.3380 C.3   381  HEM381      0.0000
     12  CGA       17.9310  138.4880   73.7470 C.2   381  HEM381      0.0000
     13  O1A       18.1010  139.6380   74.1890 O.co2 381  HEM381      0.0000
     14  O2A       17.1070  138.2040   72.8550 O.co2 381  HEM381      0.0000
     15  C1B       21.6290  132.1340   76.6800 C.2   381  HEM381      0.0000
     16  C2B       21.7490  130.6690   76.8030 C.2   381  HEM381      0.0000
     17  C3B       23.0240  130.4570   77.1260 C.2   381  HEM381      0.0000
     18  C4B       23.5880  131.7620   77.4580 C.2   381  HEM381      0.0000
     19  CMB       20.7520  129.5070   76.6700 C.3   381  HEM381      0.0000
     20  CAB       23.5710  129.1980   77.1030 C.2   381  HEM381      0.0000
     21  CBB       23.6650  128.4960   78.2700 C.2   381  HEM381      0.0000
     22  C1C       25.4050  133.1910   78.1700 C.ar  381  HEM381      0.0000
     23  C2C       26.6710  133.3200   78.8550 C.ar  381  HEM381      0.0000
     24  C3C       26.9610  134.6670   78.8770 C.ar  381  HEM381      0.0000
     25  C4C       25.7900  135.3030   78.3290 C.ar  381  HEM381      0.0000
     26  CMC       27.4980  132.1300   79.3660 C.3   381  HEM381      0.0000
     27  CAC       28.1400  135.2910   79.2440 C.3   381  HEM381      0.0000
     28  CBC       29.0350  134.8270   80.1920 C.3   381  HEM381      0.0000
     29  C1D       24.4890  137.2410   77.9350 C.2   381  HEM381      0.0000
     30  C2D       24.3980  138.6810   77.7140 C.2   381  HEM381      0.0000
     31  C3D       23.1240  138.9090   77.3690 C.2   381  HEM381      0.0000
     32  C4D       22.4930  137.6150   77.2480 C.2   381  HEM381      0.0000
     33  CMD       25.4650  139.7880   77.6350 C.3   381  HEM381      0.0000
     34  CAD       22.6780  140.3390   77.1120 C.3   381  HEM381      0.0000
     35  CBD       22.5690  140.9470   75.7210 C.3   381  HEM381      0.0000
     36  CGD       21.3380  140.4850   74.9870 C.2   381  HEM381      0.0000
     37  O1D       20.2280  140.6080   75.5420 O.co2 381  HEM381      0.0000
     38  O2D       21.4750  140.0120   73.8480 O.co2 381  HEM381      0.0000
     39  NA        21.3390  135.0470   76.6940 N.ar  381  HEM381      0.0000
     40  NB        22.7530  132.8040   77.1390 N.2   381  HEM381      0.0000
     41  NC        24.8330  134.4140   77.8840 N.ar  381  HEM381      0.0000
     42  ND        23.3580  136.5740   77.5270 N.2   381  HEM381      0.0000
     43 FE         23.0700  134.7080   77.2860 Fe    381  HEM381      0.0000
@<TRIPOS>BOND
     1    14    12   ar
     2    12    13   ar
     3    12    11    1
     4    38    36   ar
     5    11    10    1
     6    36    37   ar
     7    36    35    1
     8    35    34    1
     9    10     6    1
    10     9     7    1
    11     7     6   ar
    12     7     8   ar
    13     6     5   ar
    14     2     8    2
    15     2    15    1
    16     8    39   ar
    17     5    39   ar
    18     5     1    2
    19    19    16    1
    20    15    16    1
    21    15    40    2
    22    39    43    1
    23     1    32    1
    24    16    17    2
    25    20    17    1
    26    20    21    2
    27    34    31    1
    28    17    18    1
    29    40    43    1
    30    40    18    1
    31    32    31    1
    32    32    42    2
    33    43    42    1
    34    43    41    1
    35    31    30    2
    36    18     3    2
    37    42    29    1
    38    33    30    1
    39    30    29    1
    40    41    22   ar
    41    41    25   ar
    42    29     4    2
    43     3    22    1
    44    22    23   ar
    45    25     4    1
    46    25    24   ar
    47    23    24   ar
    48    23    26    1
    49    24    27    1
    50    27    28    1
