@<TRIPOS>MOLECULE
2bcc_III_I_2.pdb
 40 39 0 0 0
SMALL
GASTEIGER

@<TRIPOS>ATOM
      1  N         51.2090   79.3750   73.8070 N.3   202  UNK202     -0.1231
      2  CA        50.7740   78.4140   72.7490 C.3   202  UNK202      0.1694
      3  C         51.2360   78.8810   71.3630 C.2   202  UNK202      0.2592
      4  O         50.6450   78.5210   70.3370 O.2   202  UNK202     -0.2718
      5  CB        49.2600   78.2720   72.7820 C.3   202  UNK202      0.0304
      6  N         52.3120   79.6680   71.3580 N.am  203  UNK203     -0.1966
      7  CA        52.9150   80.2390   70.1480 C.3   203  UNK203      0.1728
      8  C         53.2410   79.2620   69.0130 C.2   203  UNK203      0.2616
      9  O         54.2880   78.6140   69.0160 O.2   203  UNK203     -0.2715
     10  CB        54.1830   81.0280   70.5280 C.3   203  UNK203      0.0334
     11  N         52.3440   79.1900   68.0350 N.am  204  UNK204     -0.1963
     12  CA        52.4960   78.3300   66.8600 C.3   204  UNK204      0.1728
     13  C         53.9440   77.9350   66.5470 C.2   204  UNK204      0.2617
     14  O         54.2830   76.7480   66.5390 O.2   204  UNK204     -0.2715
     15  CB        51.8780   79.0260   65.6410 C.3   204  UNK204      0.0334
     16  N         54.7810   78.9410   66.2870 N.am  205  UNK205     -0.1940
     17  CA        56.1800   78.7150   65.9580 C.3   205  UNK205      0.2014
     18  C         56.5130   79.2440   64.5680 C.2   205  UNK205      0.2639
     19  O         56.8980   78.4860   63.6750 O.2   205  UNK205     -0.2714
     20  N         56.3600   80.5530   64.3840 N.am  206  UNK206     -0.1963
     21  CA        56.6280   81.2130   63.0980 C.3   206  UNK206      0.1728
     22  C         58.0980   81.1820   62.7130 C.2   206  UNK206      0.2617
     23  O         58.6250   82.1530   62.1550 O.2   206  UNK206     -0.2715
     24  CB        56.1440   82.6700   63.1430 C.3   206  UNK206      0.0334
     25  N         58.7540   80.0660   63.0080 N.am  207  UNK207     -0.1940
     26  CA        60.1620   79.9350   62.6940 C.3   207  UNK207      0.2014
     27  C         60.4600   79.7060   61.2240 C.2   207  UNK207      0.2639
     28  O         60.8320   80.6370   60.4940 O.2   207  UNK207     -0.2714
     29  N         60.2930   78.4630   60.7840 N.am  208  UNK208     -0.1939
     30  CA        60.5690   78.1500   59.3970 C.3   208  UNK208      0.2014
     31  C         62.0680   78.1140   59.1670 C.2   208  UNK208      0.2639
     32  O         62.6320   77.0430   58.9300 O.2   208  UNK208     -0.2714
     33  N         62.7140   79.2800   59.2360 N.am  209  UNK209     -0.1939
     34  CA        64.1560   79.3520   59.0400 C.3   209  UNK209      0.2014
     35  C         64.6450   80.3420   57.9890 C.2   209  UNK209      0.2639
     36  O         64.6350   80.0450   56.7910 O.2   209  UNK209     -0.2714
     37  N         65.0950   81.5130   58.4390 N.am  210  UNK210     -0.1954
     38  CA        65.5820   82.5290   57.5190 C.3   210  UNK210      0.1869
     39  C         67.0690   82.4400   57.2280 C.2   210  UNK210      0.2309
     40  O         67.8190   83.3270   57.6860 O.2   210  UNK210     -0.2863
@<TRIPOS>BOND
     1    36    35    2
     2    39    38    1
     3    39    40    2
     4    38    37    1
     5    35    37   am
     6    35    34    1
     7    32    31    2
     8    34    33    1
     9    31    33   am
    10    31    30    1
    11    30    29    1
    12    28    27    2
    13    29    27   am
    14    27    26    1
    15    23    22    2
    16    26    25    1
    17    22    25   am
    18    22    21    1
    19    21    24    1
    20    21    20    1
    21    19    18    2
    22    20    18   am
    23    18    17    1
    24    15    12    1
    25    17    16    1
    26    16    13   am
    27    14    13    2
    28    13    12    1
    29    12    11    1
    30    11     8   am
    31     8     9    2
    32     8     7    1
    33     7    10    1
    34     7     6    1
    35     4     3    2
    36     6     3   am
    37     3     2    1
    38     2     5    1
    39     2     1    1
