@<TRIPOS>MOLECULE
2bcc_SIG_C_1.pdb
 35 36 0 0 0
SMALL
GASTEIGER

@<TRIPOS>ATOM
      1  C1         6.6480  135.4410   79.8700 C.ar  385  SIG385      0.1835
      2  C2         7.3520  134.2170   80.0340 C.ar  385  SIG385      0.2636
      3  C3         6.7300  133.0890   80.6950 C.ar  385  SIG385      0.1925
      4  C4         5.4160  133.2030   81.2090 C.ar  385  SIG385      0.1105
      5  C5         4.6860  134.4360   81.0730 C.ar  385  SIG385      0.1479
      6  C6         5.3150  135.5410   80.4060 C.ar  385  SIG385      0.0774
      7  O7         7.4270  131.8570   80.8480 O.2   385  SIG385     -0.4544
      8  C8         6.8850  130.7120   81.4730 C.ar  385  SIG385      0.1220
      9  C9         5.5660  130.7660   81.9970 C.ar  385  SIG385      0.0475
     10  C10        4.8150  132.0170   81.8750 C.ar  385  SIG385      0.2002
     11  O12        8.6440  134.1110   79.5280 O.3   385  SIG385     -0.2800
     12  O13        7.3550  136.4710   79.1830 O.3   385  SIG385     -0.4680
     13  O14        3.3660  134.4830   81.6120 O.3   385  SIG385     -0.4711
     14  O15        3.6810  132.0160   82.3440 O.2   385  SIG385     -0.2866
     15  C16        2.6060  135.6810   81.4880 C.3   385  SIG385      0.2525
     16  C20        7.9550  129.5430   81.4380 C.3   385  SIG385      0.0643
     17  C21        7.7390  128.0640   81.8710 C.3   385  SIG385      0.0079
     18  C22        8.5260  127.5240   83.1800 C.3   385  SIG385      0.0004
     19  C23       10.0520  127.2040   83.0800 C.3   385  SIG385      0.0000
     20  C24       10.9820  128.1120   83.7580 C.3   385  SIG385      0.0000
     21  C25       11.4150  127.6590   85.1800 C.3   385  SIG385      0.0003
     22  C26        6.7320  137.7310   78.9740 C.3   385  SIG385      0.2526
     23  C27        7.8780  126.2200   83.6620 C.3   385  SIG385      0.0000
     24  C28       10.4630  127.0290   81.6120 C.3   385  SIG385      0.0000
     25  C29       12.4960  128.5060   85.7570 C.3   385  SIG385      0.0047
     26  C30       12.4970  129.1140   86.9360 C.3   385  SIG385      0.0260
     27  C31       13.3030  130.3510   87.3000 C.2   385  SIG385     -0.0265
     28  C32       13.6660  130.6490   88.5550 C.2   385  SIG385     -0.0092
     29  C33        4.8200  129.6480   82.6860 C.3   385  SIG385      0.0373
     30  C34       11.8870  126.2170   85.1530 C.3   385  SIG385      0.0000
     31  C35       10.5020  129.5980   83.8140 C.3   385  SIG385      0.0000
     32  C36       14.4910  131.7880   89.0240 C.2   385  SIG385     -0.0264
     33  C37       15.8260  131.9330   88.7460 C.2   385  SIG385     -0.0300
     34  C38       16.7510  133.0340   89.1760 C.3   385  SIG385      0.0304
     35  C39       13.6620  132.7450   89.8530 C.3   385  SIG385      0.0307
@<TRIPOS>BOND
     1    22    12    1
     2    12     1    1
     3    11     2    1
     4     1     2   ar
     5     1     6   ar
     6     2     3   ar
     7     6     5   ar
     8     3     7   ar
     9     3     4   ar
    10     7     8   ar
    11     5     4   ar
    12     5    13    1
    13     4    10   ar
    14    16     8    1
    15    16    17    1
    16     8     9   ar
    17    15    13    1
    18    24    19    1
    19    17    18    1
    20    10     9   ar
    21    10    14    2
    22     9    29    1
    23    19    18    1
    24    19    20    1
    25    18    23    1
    26    20    31    1
    27    20    21    1
    28    30    21    1
    29    21    25    1
    30    25    26    1
    31    26    27    1
    32    27    28    2
    33    28    32    1
    34    33    32    2
    35    33    34    1
    36    32    35    1
