@<TRIPOS>MOLECULE
2bcc_U10_C_1.pdb
 29 29 0 0 0
SMALL
GASTEIGER

@<TRIPOS>ATOM
      1  C1        29.9710  111.3580   73.0930 C.2   383  U10383      0.0198
      2  C2        29.3880  110.0390   73.2460 C.2   383  U10383      0.2282
      3  C3        28.5090  109.5000   72.3270 C.2   383  U10383      0.2140
      4  C4        28.1920  110.2280   71.1500 C.2   383  U10383      0.2140
      5  C5        28.7450  111.5490   70.9330 C.2   383  U10383      0.2285
      6  C6        29.6770  112.1570   71.8820 C.2   383  U10383      0.0235
      7  C1M       30.9310  111.8610   74.1690 C.3   383  U10383      0.0343
      8  C3M       28.8650  107.0630   72.3920 C.3   383  U10383      0.2528
      9  C4M       27.7900  108.7260   69.2890 C.3   383  U10383      0.2528
     10  C7        30.2780  113.6080   71.5870 C.3   383  U10383      0.0548
     11  C8        30.4750  114.5040   72.7410 C.2   383  U10383     -0.0298
     12  C9        31.0070  115.7790   72.7960 C.2   383  U10383     -0.0475
     13  C10       31.0770  116.3740   74.1990 C.3   383  U10383      0.0260
     14  C11       31.4940  116.5990   71.5930 C.3   383  U10383      0.0264
     15  C12       31.3600  118.1290   71.7970 C.3   383  U10383      0.0297
     16  C13       32.1980  118.8290   70.8430 C.2   383  U10383     -0.0342
     17  C14       33.4300  119.6650   71.4780 C.2   383  U10383     -0.0478
     18  C15       34.2780  120.3930   70.4560 C.3   383  U10383      0.0260
     19  C16       33.7260  119.7390   72.9760 C.3   383  U10383      0.0263
     20  C17       34.8730  118.8400   73.5090 C.3   383  U10383      0.0297
     21  C18       35.9410  119.6880   74.0550 C.2   383  U10383     -0.0343
     22  C19       37.1200  119.3230   74.6220 C.2   383  U10383     -0.0482
     23  C20       38.1200  120.3500   75.1360 C.3   383  U10383      0.0260
     24  C21       37.5300  117.8480   74.7850 C.3   383  U10383      0.0217
     25  C22       38.7020  117.4190   73.9180 C.3   383  U10383      0.0047
     26  O2        29.5720  109.3200   74.2060 O.2   383  U10383     -0.2836
     27  O3        27.9980  108.2130   72.5660 O.2   383  U10383     -0.4652
     28  O4        27.3140  109.6740   70.2100 O.2   383  U10383     -0.4652
     29  O5        28.4190  112.1230   69.8920 O.2   383  U10383     -0.2835
@<TRIPOS>BOND
     1     9    28    1
     2    29     5    2
     3    28     4    1
     4    18    17    1
     5    16    17    2
     6    16    15    1
     7     5     4    1
     8     5     6    1
     9     4     3    2
    10    17    19    1
    11    10     6    1
    12    10    11    1
    13    14    15    1
    14    14    12    1
    15     6     1    2
    16     3    27    1
    17     3     2    1
    18     8    27    1
    19    11    12    2
    20    12    13    1
    21    19    20    1
    22     1     2    1
    23     1     7    1
    24     2    26    2
    25    20    21    1
    26    25    24    1
    27    21    22    2
    28    22    24    1
    29    22    23    1
