@<TRIPOS>MOLECULE
2bcg_GDP_Y_1.pdb
 28 30 0 0 0
SMALL
GASTEIGER

@<TRIPOS>ATOM
      1  PB        12.2560  -30.5770    4.8250 P.3   1207  GDP1207     0.5373
      2  O1B       13.3260  -30.6790    5.8830 O.3   1207  GDP1207    -0.1143
      3  O2B       12.7000  -31.0610    3.4350 O.2   1207  GDP1207    -0.2221
      4  O3B       10.9180  -31.1450    5.2810 O.3   1207  GDP1207    -0.1143
      5  O3A       12.0140  -28.9880    4.5700 O.3   1207  GDP1207    -0.2261
      6  PA        10.8870  -28.0760    5.2860 P.3   1207  GDP1207     0.2231
      7  O1A        9.5720  -28.2200    4.6360 O.2   1207  GDP1207    -0.5169
      8  O2A       10.9680  -28.2810    6.7530 O.3   1207  GDP1207    -0.4370
      9  O5'       11.4010  -26.6240    4.8810 O.3   1207  GDP1207    -0.3111
     10  C5'       12.7390  -26.2310    5.2010 C.3   1207  GDP1207     0.1813
     11  C4'       12.9250  -24.7180    5.0760 C.3   1207  GDP1207     0.1799
     12  O4'       12.8050  -24.3370    3.6820 O.3   1207  GDP1207    -0.3326
     13  C3'       11.9020  -23.8940    5.8420 C.3   1207  GDP1207     0.2158
     14  O3'       12.4620  -22.6640    6.3180 O.3   1207  GDP1207    -0.2175
     15  C2'       10.8590  -23.5910    4.7870 C.3   1207  GDP1207     0.2310
     16  O2'       10.0840  -22.4180    5.0850 O.3   1207  GDP1207    -0.2158
     17  C1'       11.7400  -23.3920    3.5540 C.3   1207  GDP1207     0.2293
     18  N9        11.0830  -23.7120    2.2860 N.pl3 1207  GDP1207    -0.2354
     19  C8        10.3670  -24.8300    1.9960 C.3   1207  GDP1207     0.2246
     20  N7         9.9190  -24.7910    0.7460 N.2   1207  GDP1207    -0.2322
     21  C5        10.3480  -23.6030    0.2080 C.2   1207  GDP1207     0.2182
     22  C6        10.1640  -22.9270   -1.0730 C.1   1207  GDP1207     0.2372
     23  O6         9.5470  -23.4810   -2.0160 O.2   1207  GDP1207    -0.2069
     24  N1        10.7840  -21.7280   -1.2100 N.2   1207  GDP1207    -0.2485
     25  C2        11.4680  -21.0910   -0.2150 C.1   1207  GDP1207     0.2531
     26  N2        12.0180  -19.8890   -0.5030 N.pl3 1207  GDP1207    -0.0226
     27  N3        11.6750  -21.6600    0.9990 N.2   1207  GDP1207    -0.3074
     28  C4        11.0990  -22.8760    1.2370 C.2   1207  GDP1207     0.2300
@<TRIPOS>BOND
     1    23    22    2
     2    24    22    2
     3    24    25    2
     4    22    21    1
     5    26    25    1
     6    25    27    2
     7    21    20    2
     8    21    28    1
     9    20    19    1
    10    27    28    2
    11    28    18    1
    12    19    18    1
    13    18    17    1
    14     3     1    2
    15    17    12    1
    16    17    15    1
    17    12    11    1
    18     5     1    1
    19     5     6    1
    20     7     6    2
    21    15    16    1
    22    15    13    1
    23     1     4    1
    24     1     2    1
    25     9    10    1
    26     9     6    1
    27    11    10    1
    28    11    13    1
    29     6     8    1
    30    13    14    1
