@<TRIPOS>MOLECULE
2bcg_GER_G_1.pdb
 20 19 0 0 0
SMALL
GASTEIGER

@<TRIPOS>ATOM
      1  C1       -16.1570  -64.8820   26.2110 C.3   4000  GER4000     0.0300
      2  C2       -15.9400  -66.0100   25.1820 C.2   4000  GER4000    -0.0342
      3  C3       -16.0100  -67.3710   25.5130 C.2   4000  GER4000    -0.0478
      4  C4       -16.3270  -67.8190   26.9520 C.3   4000  GER4000     0.0260
      5  C5       -15.7790  -68.4530   24.4310 C.3   4000  GER4000     0.0263
      6  C6       -14.3110  -68.5430   23.9650 C.3   4000  GER4000     0.0297
      7  C7       -13.5540  -69.4620   24.7080 C.2   4000  GER4000    -0.0342
      8  C8       -12.2910  -69.2430   25.2820 C.2   4000  GER4000    -0.0478
      9  C9       -11.6320  -67.8660   25.1440 C.3   4000  GER4000     0.0260
     10  C10      -11.5700  -70.3450   26.0970 C.3   4000  GER4000     0.0263
     11  C11      -10.5540  -71.2400   25.3520 C.3   4000  GER4000     0.0297
     12  C12      -10.4580  -72.4510   26.0550 C.2   4000  GER4000    -0.0342
     13  C13       -9.3920  -73.3200   26.3390 C.2   4000  GER4000    -0.0478
     14  C14       -7.9610  -73.0440   25.8500 C.3   4000  GER4000     0.0260
     15  C15       -9.6900  -74.5800   27.1740 C.3   4000  GER4000     0.0263
     16  C16       -8.9050  -75.8280   26.7480 C.3   4000  GER4000     0.0297
     17  C17       -9.7260  -76.9570   26.6820 C.2   4000  GER4000    -0.0342
     18  C18       -9.3890  -78.3070   26.5060 C.2   4000  GER4000    -0.0478
     19  C19       -7.9470  -78.8060   26.3490 C.3   4000  GER4000     0.0260
     20  C20      -10.5050  -79.3410   26.4680 C.3   4000  GER4000     0.0260
@<TRIPOS>BOND
     1     6     5    1
     2     6     7    1
     3     5     3    1
     4     7     8    2
     5     9     8    1
     6     2     3    2
     7     2     1    1
     8     8    10    1
     9    11    12    1
    10    11    10    1
    11     3     4    1
    12    14    13    1
    13    12    13    2
    14    13    15    1
    15    19    18    1
    16    20    18    1
    17    18    17    2
    18    17    16    1
    19    16    15    1
