@<TRIPOS>MOLECULE
2bcj_GDP_Q_1.pdb
 28 30 0 0 0
SMALL
GASTEIGER

@<TRIPOS>ATOM
      1  PB         3.0480  -38.8550  -16.7690 P.3   360  GDP360      0.5373
      2  O1B        1.9810  -37.8760  -17.1880 O.3   360  GDP360     -0.1143
      3  O2B        3.8510  -39.2580  -17.9800 O.2   360  GDP360     -0.2221
      4  O3B        3.9640  -38.1990  -15.7710 O.3   360  GDP360     -0.1143
      5  O3A        2.3460  -40.1310  -16.0740 O.3   360  GDP360     -0.2261
      6  PA         2.2340  -41.6240  -16.6890 P.3   360  GDP360      0.2231
      7  O1A        2.1270  -41.6510  -18.1930 O.2   360  GDP360     -0.5169
      8  O2A        3.3810  -42.4870  -16.2190 O.3   360  GDP360     -0.4370
      9  O5'        0.8710  -42.1360  -16.0160 O.3   360  GDP360     -0.3111
     10  C5'        0.7530  -42.1570  -14.5950 C.3   360  GDP360      0.1813
     11  C4'        0.3710  -43.5430  -14.0890 C.3   360  GDP360      0.1799
     12  O4'       -1.0500  -43.6530  -14.0850 O.3   360  GDP360     -0.3326
     13  C3'        0.8920  -44.6770  -14.9550 C.3   360  GDP360      0.2158
     14  O3'        1.2640  -45.7800  -14.1320 O.3   360  GDP360     -0.2175
     15  C2'       -0.2710  -45.0510  -15.8420 C.3   360  GDP360      0.2310
     16  O2'       -0.3560  -46.4530  -16.0730 O.3   360  GDP360     -0.2158
     17  C1'       -1.4890  -44.5740  -15.0790 C.3   360  GDP360      0.2293
     18  N9        -2.4600  -43.9280  -15.9890 N.pl3 360  GDP360     -0.2354
     19  C8        -2.2270  -42.9210  -16.8550 C.3   360  GDP360      0.2246
     20  N7        -3.3630  -42.5900  -17.5230 N.2   360  GDP360     -0.2322
     21  C5        -4.3460  -43.3950  -17.0790 C.2   360  GDP360      0.2182
     22  C6        -5.7900  -43.5840  -17.3540 C.1   360  GDP360      0.2372
     23  O6        -6.3730  -42.8730  -18.2000 O.2   360  GDP360     -0.2069
     24  N1        -6.4460  -44.5320  -16.6670 N.2   360  GDP360     -0.2485
     25  C2        -5.8300  -45.3090  -15.7510 C.1   360  GDP360      0.2531
     26  N2        -6.5350  -46.2550  -15.0880 N.pl3 360  GDP360     -0.0226
     27  N3        -4.5140  -45.1880  -15.4490 N.2   360  GDP360     -0.3074
     28  C4        -3.7410  -44.2680  -16.0650 C.2   360  GDP360      0.2300
@<TRIPOS>BOND
     1    23    22    2
     2     7     6    2
     3     3     1    2
     4    20    21    2
     5    20    19    1
     6    22    21    1
     7    22    24    2
     8     2     1    1
     9    21    28    1
    10    19    18    1
    11     1     5    1
    12     1     4    1
    13     6     8    1
    14     6     5    1
    15     6     9    1
    16    24    25    2
    17    16    15    1
    18    28    18    1
    19    28    27    2
    20     9    10    1
    21    18    17    1
    22    15    17    1
    23    15    13    1
    24    25    27    2
    25    25    26    1
    26    17    12    1
    27    13    14    1
    28    13    11    1
    29    10    11    1
    30    11    12    1
