@<TRIPOS>MOLECULE
2bcn_HEM_B_1.pdb
 43 50 0 0 0
SMALL
GASTEIGER

@<TRIPOS>ATOM
      1  CHA       -6.1350  -14.1790   14.2840 C.2   109  HEM109      0.0000
      2  CHB       -9.0300  -10.6100   15.6470 C.2   109  HEM109      0.0000
      3  CHC       -8.2490   -8.4020   11.4210 C.2   109  HEM109      0.0000
      4  CHD       -5.9220  -12.3340    9.8310 C.2   109  HEM109      0.0000
      5  C1A       -6.9230  -13.3760   15.1030 C.2   109  HEM109      0.0000
      6  C2A       -7.3010  -13.6710   16.4870 C.2   109  HEM109      0.0000
      7  C3A       -8.1570  -12.6700   16.8500 C.2   109  HEM109      0.0000
      8  C4A       -8.2850  -11.7840   15.6990 C.2   109  HEM109      0.0000
      9  CMA       -8.7930  -12.4870   18.2310 C.3   109  HEM109      0.0000
     10  CAA       -6.8190  -14.8310   17.3810 C.3   109  HEM109      0.0000
     11  CBA       -7.6290  -16.1190   17.2450 C.3   109  HEM109      0.0000
     12  CGA       -7.1840  -17.2210   18.1980 C.2   109  HEM109      0.0000
     13  O1A       -8.0150  -18.1020   18.5020 O.co2 109  HEM109      0.0000
     14  O2A       -6.0080  -17.2320   18.6260 O.co2 109  HEM109      0.0000
     15  C1B       -9.1250   -9.6640   14.6260 C.ar  109  HEM109      0.0000
     16  C2B       -9.9670   -8.4800   14.6470 C.ar  109  HEM109      0.0000
     17  C3B       -9.7210   -7.8060   13.4710 C.ar  109  HEM109      0.0000
     18  C4B       -8.7290   -8.6170   12.7340 C.ar  109  HEM109      0.0000
     19  CMB      -10.9790   -8.1340   15.7500 C.3   109  HEM109      0.0000
     20  CAB      -10.3930   -6.6660   13.0170 C.2   109  HEM109      0.0000
     21  CBB       -9.9430   -5.3810   13.1890 C.2   109  HEM109      0.0000
     22  C1C       -7.4620   -9.2240   10.5970 C.2   109  HEM109      0.0000
     23  C2C       -7.1820   -8.9750    9.1780 C.2   109  HEM109      0.0000
     24  C3C       -6.6080  -10.1340    8.6820 C.2   109  HEM109      0.0000
     25  C4C       -6.4820  -11.0400    9.8410 C.2   109  HEM109      0.0000
     26  CMC       -7.4290   -7.6640    8.4220 C.3   109  HEM109      0.0000
     27  CAC       -6.4390  -10.5120    7.3310 C.3   109  HEM109      0.0000
     28  CBC       -5.4010  -10.2050    6.4700 C.3   109  HEM109      0.0000
     29  C1D       -5.7890  -13.2590   10.8820 C.ar  109  HEM109      0.0000
     30  C2D       -5.0260  -14.4960   10.8390 C.ar  109  HEM109      0.0000
     31  C3D       -5.0160  -14.9840   12.1240 C.ar  109  HEM109      0.0000
     32  C4D       -5.8050  -14.0470   12.9270 C.ar  109  HEM109      0.0000
     33  CMD       -4.3780  -15.1110    9.5870 C.3   109  HEM109      0.0000
     34  CAD       -4.2720  -16.2350   12.6100 C.3   109  HEM109      0.0000
     35  CBD       -2.9620  -15.8540   13.2880 C.3   109  HEM109      0.0000
     36  CGD       -2.0460  -17.0310   13.5690 C.2   109  HEM109      0.0000
     37  O1D       -2.4040  -18.1900   13.2600 O.co2 109  HEM109      0.0000
     38  O2D       -0.9430  -16.7810   14.0910 O.co2 109  HEM109      0.0000
     39  NA        -7.5220  -12.2310   14.6550 N.2   109  HEM109      0.0000
     40  NB        -8.3970   -9.7420   13.4570 N.ar  109  HEM109      0.0000
     41  NC        -7.0100  -10.4600   10.9730 N.2   109  HEM109      0.0000
     42  ND        -6.2520  -13.0140   12.1480 N.ar  109  HEM109      0.0000
     43 FE         -7.4800  -11.4560   12.7170 Fe    109  HEM109      0.0000
@<TRIPOS>BOND
     1    28    27    1
     2    27    24    1
     3    26    23    1
     4    24    23    2
     5    24    25    1
     6    23    22    1
     7    33    30    1
     8     4    25    1
     9     4    29    2
    10    25    41    2
    11    22    41    1
    12    22     3    2
    13    30    29   ar
    14    30    31   ar
    15    29    42   ar
    16    41    43    1
    17     3    18    1
    18    31    34    1
    19    31    32   ar
    20    42    43    1
    21    42    32   ar
    22    34    35    1
    23    43    40    1
    24    43    39    1
    25    18    40   ar
    26    18    17   ar
    27    32     1    2
    28    20    21    2
    29    20    17    1
    30    37    36   ar
    31    35    36    1
    32    40    15   ar
    33    17    16   ar
    34    36    38   ar
    35     1     5    1
    36    15    16   ar
    37    15     2    1
    38    16    19    1
    39    39     5    2
    40    39     8    1
    41     5     6    1
    42     2     8    2
    43     8     7    1
    44     6     7    2
    45     6    10    1
    46     7     9    1
    47    11    10    1
    48    11    12    1
    49    12    13   ar
    50    12    14   ar
