@<TRIPOS>MOLECULE
2bcn_ZNH_A_1.pdb
 43 50 0 0 0
SMALL
GASTEIGER

@<TRIPOS>ATOM
      1 ZN         -1.2320   -0.0680   -9.9640 Zn    295  ZNH295      0.0000
      2  CHA       -3.9480    0.9990   -8.2970 C.2   295  ZNH295      0.0000
      3  CHB       -3.0200   -0.1850  -12.8800 C.2   295  ZNH295      0.0000
      4  CHC        1.5640   -0.7900  -11.7400 C.2   295  ZNH295      0.0000
      5  CHD        0.7310    0.7940   -7.2840 C.2   295  ZNH295      0.0000
      6  NA        -3.1390    0.4050  -10.5110 N.ar  295  ZNH295      0.0000
      7  C1A       -4.1460    0.7320   -9.6600 C.ar  295  ZNH295      0.0000
      8  C2A       -5.3880    0.7760  -10.3810 C.ar  295  ZNH295      0.0000
      9  C3A       -5.1140    0.4550  -11.6700 C.ar  295  ZNH295      0.0000
     10  C4A       -3.7080    0.2320  -11.7280 C.ar  295  ZNH295      0.0000
     11  CMA       -6.0940    0.2560  -12.8400 C.3   295  ZNH295      0.0000
     12  CAA       -6.7170    1.1940   -9.8230 C.3   295  ZNH295      0.0000
     13  CBA       -7.0030    2.6660   -9.6370 C.3   295  ZNH295      0.0000
     14  CGA       -8.3170    2.9010   -8.9500 C.2   295  ZNH295      0.0000
     15  O1A       -9.3450    2.3830   -9.4280 O.co2 295  ZNH295      0.0000
     16  O2A       -8.3280    3.6260   -7.9370 O.co2 295  ZNH295      0.0000
     17  NB        -0.7980   -0.4090  -11.9750 N.2   295  ZNH295      0.0000
     18  C1B       -1.6810   -0.5020  -13.0110 C.2   295  ZNH295      0.0000
     19  C2B       -1.0360   -1.0250  -14.1780 C.2   295  ZNH295      0.0000
     20  C3B        0.2830   -1.2910  -13.8670 C.2   295  ZNH295      0.0000
     21  C4B        0.3800   -0.8630  -12.4680 C.2   295  ZNH295      0.0000
     22  CMB       -1.7460   -1.1250  -15.5250 C.3   295  ZNH295      0.0000
     23  CAB        1.3520   -1.7940  -14.6630 C.3   295  ZNH295      0.0000
     24  CBB        1.3260   -2.8090  -15.6150 C.3   295  ZNH295      0.0000
     25  NC         0.8100    0.1000   -9.6040 N.ar  295  ZNH295      0.0000
     26  C1C        1.8020   -0.3100  -10.4420 C.ar  295  ZNH295      0.0000
     27  C2C        3.1030   -0.1620   -9.8470 C.ar  295  ZNH295      0.0000
     28  C3C        2.9190    0.3200   -8.5480 C.ar  295  ZNH295      0.0000
     29  C4C        1.4550    0.4470   -8.4240 C.ar  295  ZNH295      0.0000
     30  CMC        4.3860   -0.3630  -10.6890 C.3   295  ZNH295      0.0000
     31  CAC        3.8520    0.7660   -7.5780 C.3   295  ZNH295      0.0000
     32  CBC        5.1260    0.2810   -7.2660 C.3   295  ZNH295      0.0000
     33  ND        -1.5530    0.8470   -8.1290 N.2   295  ZNH295      0.0000
     34  C1D       -0.6430    0.9300   -7.1150 C.2   295  ZNH295      0.0000
     35  C2D       -1.2820    1.1140   -5.8490 C.2   295  ZNH295      0.0000
     36  C3D       -2.6100    1.2450   -6.1110 C.2   295  ZNH295      0.0000
     37  C4D       -2.7720    1.0380   -7.5480 C.2   295  ZNH295      0.0000
     38  CMD       -0.5960    1.0250   -4.4840 C.3   295  ZNH295      0.0000
     39  CAD       -3.5560    1.7240   -5.0110 C.3   295  ZNH295      0.0000
     40  CBD       -4.5420    2.8460   -5.1770 C.3   295  ZNH295      0.0000
     41  CGD       -5.5560    2.9330   -4.0550 C.2   295  ZNH295      0.0000
     42  O1D       -6.0190    4.0550   -3.7920 O.co2 295  ZNH295      0.0000
     43  O2D       -5.9260    1.8960   -3.4760 O.co2 295  ZNH295      0.0000
@<TRIPOS>BOND
     1    24    23    1
     2    22    19    1
     3    23    20    1
     4    19    20    2
     5    19    18    1
     6    20    21    1
     7    18     3    1
     8    18    17    2
     9     3    10    2
    10    11     9    1
    11    21    17    1
    12    21     4    2
    13    17     1    1
    14     4    26    1
    15    10     9   ar
    16    10     6   ar
    17     9     8   ar
    18    30    27    1
    19     6     1    1
    20     6     7   ar
    21    26    27   ar
    22    26    25   ar
    23     8    12    1
    24     8     7   ar
    25     1    25    1
    26     1    33    1
    27    27    28   ar
    28    12    13    1
    29     7     2    2
    30    13    14    1
    31    25    29   ar
    32    15    14   ar
    33    14    16   ar
    34    28    29   ar
    35    28    31    1
    36    29     5    1
    37     2    37    1
    38    33    37    2
    39    33    34    1
    40    31    32    1
    41    37    36    1
    42     5    34    2
    43    34    35    1
    44    36    35    2
    45    36    39    1
    46    35    38    1
    47    40    39    1
    48    40    41    1
    49    41    42   ar
    50    41    43   ar
