@<TRIPOS>MOLECULE
2bcv_TTP_A_1.pdb
 29 30 0 0 0
SMALL
GASTEIGER

@<TRIPOS>ATOM
      1  PA        15.3800   23.8720   14.4130 P.3   580  TTP580      0.2189
      2  O1A       15.9460   24.9810   13.6110 O.2   580  TTP580     -0.5170
      3  O2A       14.9820   22.6160   13.7360 O.3   580  TTP580     -0.4371
      4  O3A       16.3380   23.4950   15.5160 O.3   580  TTP580     -0.2700
      5  PB        17.6970   24.0560   15.8870 P.3   580  TTP580      0.2277
      6  O1B       17.8560   25.4210   15.3100 O.2   580  TTP580     -0.5168
      7  O2B       17.7970   23.8760   17.3520 O.3   580  TTP580     -0.4368
      8  O3B       18.7570   23.1680   15.2880 O.3   580  TTP580     -0.2258
      9  PG        19.4290   23.3330   13.9440 P.3   580  TTP580      0.5373
     10  O1G       20.6850   24.0990   14.1510 O.3   580  TTP580     -0.1143
     11  O2G       19.5000   21.9830   13.3330 O.3   580  TTP580     -0.1143
     12  O3G       18.5730   24.1480   13.0520 O.2   580  TTP580     -0.2221
     13  O5'       14.0650   24.4280   15.1240 O.3   580  TTP580     -0.3112
     14  C5'       14.0270   25.7390   15.6810 C.3   580  TTP580      0.1812
     15  C4'       13.4610   25.6920   17.0800 C.3   580  TTP580      0.1773
     16  O4'       12.0680   25.2740   17.0300 O.3   580  TTP580     -0.3339
     17  C3'       14.1120   24.6830   18.0100 C.3   580  TTP580      0.1857
     18  O3'       15.3090   25.2090   18.5770 O.3   580  TTP580     -0.2203
     19  C2'       13.0190   24.4650   19.0520 C.3   580  TTP580      0.0874
     20  C1'       11.7580   24.5090   18.1810 C.3   580  TTP580      0.2090
     21  N1        11.3300   23.1650   17.7460 N.am  580  TTP580     -0.1794
     22  C2        10.4110   22.5040   18.5240 C.1   580  TTP580      0.2844
     23  O2         9.9380   22.9790   19.5420 O.2   580  TTP580     -0.1918
     24  N3        10.0640   21.2550   18.0690 N.2   580  TTP580     -0.2455
     25  C4        10.5460   20.6130   16.9480 C.1   580  TTP580      0.2134
     26  O4        10.1490   19.4870   16.6760 O.2   580  TTP580     -0.2088
     27  C5        11.5120   21.3610   16.1760 C.2   580  TTP580      0.0891
     28  C5M       12.0980   20.7360   14.9490 C.3   580  TTP580      0.0462
     29  C6        11.8460   22.5900   16.6040 C.2   580  TTP580      0.0877
@<TRIPOS>BOND
     1    12     9    2
     2    11     9    1
     3     2     1    2
     4     3     1    1
     5     9    10    1
     6     9     8    1
     7     1    13    1
     8     1     4    1
     9    28    27    1
    10    13    14    1
    11     8     5    1
    12     6     5    2
    13     4     5    1
    14    14    15    1
    15     5     7    1
    16    27    29    2
    17    27    25    1
    18    29    21    1
    19    26    25    2
    20    25    24    2
    21    16    15    1
    22    16    20    1
    23    15    17    1
    24    21    20    1
    25    21    22   am
    26    17    18    1
    27    17    19    1
    28    24    22    2
    29    20    19    1
    30    22    23    2
