@<TRIPOS>MOLECULE
2bd0_NAP_A_1.pdb
 48 52 0 0 0
SMALL
GASTEIGER

@<TRIPOS>ATOM
      1  PA        12.2440   49.7220   48.5210 P.3   800  NAP800      0.2189
      2  O1A       13.3120   49.6150   49.5400 O.3   800  NAP800     -0.4371
      3  O2A       12.0200   51.0330   47.8730 O.2   800  NAP800     -0.5170
      4  O5B       10.8620   49.2070   49.1630 O.3   800  NAP800     -0.3112
      5  C5B       10.7750   47.8560   49.6230 C.3   800  NAP800      0.1813
      6  C4B        9.3670   47.5160   50.1160 C.3   800  NAP800      0.1820
      7  O4B        9.3780   46.1160   50.4470 O.3   800  NAP800     -0.3136
      8  C3B        9.0460   48.2780   51.4050 C.3   800  NAP800      0.2157
      9  O3B        7.6320   48.4470   51.5450 O.3   800  NAP800     -0.2175
     10  C2B        9.5740   47.3050   52.4570 C.3   800  NAP800      0.2314
     11  O2B        8.8960   47.5110   53.6990 O.3   800  NAP800     -0.2630
     12  C1B        9.0670   46.0000   51.8450 C.3   800  NAP800      0.3158
     13  N9A        9.7400   44.8370   52.4650 N.pl3 800  NAP800     -0.1439
     14  C8A       11.0300   44.5220   52.3580 C.3   800  NAP800      0.3377
     15  N7A       11.2920   43.4480   53.0990 N.2   800  NAP800     -0.2095
     16  C5A       10.1570   43.0740   53.6830 C.2   800  NAP800      0.2526
     17  C6A        9.8010   42.0540   54.5570 C.2   800  NAP800      0.4393
     18  N6A       10.7130   41.1870   54.9860 N.pl3 800  NAP800      0.2180
     19  N1A        8.5250   41.9570   54.9600 N.2   800  NAP800      0.0021
     20  C2A        7.6030   42.8090   54.5450 C.3   800  NAP800      0.5254
     21  N3A        7.9080   43.7950   53.7170 N.2   800  NAP800     -0.0055
     22  C4A        9.1640   43.9540   53.2730 C.2   800  NAP800      0.3518
     23  O3        12.5640   48.5980   47.4100 O.3   800  NAP800     -0.2703
     24  PN        12.1530   48.7050   45.8550 P.3   800  NAP800      0.2189
     25  O1N       13.2330   49.3960   45.1140 O.2   800  NAP800     -0.5170
     26  O2N       10.7680   49.2060   45.7070 O.3   800  NAP800     -0.4371
     27  O5D       12.1970   47.1600   45.4070 O.3   800  NAP800     -0.3112
     28  C5D       11.0100   46.3630   45.3920 C.3   800  NAP800      0.1813
     29  C4D       11.2740   45.0230   44.7000 C.3   800  NAP800      0.1799
     30  O4D       11.8130   45.3340   43.4000 O.3   800  NAP800     -0.3327
     31  C3D       12.3460   44.2070   45.4280 C.3   800  NAP800      0.2158
     32  O3D       12.1400   42.8030   45.2440 O.3   800  NAP800     -0.2175
     33  C2D       13.6260   44.6580   44.7280 C.3   800  NAP800      0.2309
     34  O2D       14.6420   43.6560   44.8170 O.3   800  NAP800     -0.2158
     35  C1D       13.1090   44.7220   43.2900 C.3   800  NAP800      0.2263
     36  N1N       13.9920   45.4550   42.3540 N.pl3 800  NAP800     -0.2787
     37  C2N       14.3540   46.7870   42.6060 C.3   800  NAP800      0.1244
     38  C3N       15.1730   47.4640   41.7080 C.2   800  NAP800      0.0544
     39  C7N       15.6040   48.9080   41.9790 C.2   800  NAP800      0.2818
     40  O7N       16.5120   49.4270   41.3300 O.2   800  NAP800     -0.2670
     41  N7N       14.9440   49.5270   42.9540 N.am  800  NAP800     -0.0839
     42  C4N       15.6250   46.8140   40.5640 C.2   800  NAP800      0.0033
     43  C5N       15.2690   45.4940   40.3040 C.2   800  NAP800      0.0157
     44  C6N       14.4510   44.8100   41.1970 C.2   800  NAP800      0.0633
     45  P2B        9.6000   48.3430   54.8820 P.3   800  NAP800      0.5328
     46  O1X       10.2340   49.6610   54.2110 O.2   800  NAP800     -0.2224
     47  O2X        8.3910   48.8270   55.8290 O.3   800  NAP800     -0.1145
     48  O3X       10.6050   47.5420   55.6170 O.3   800  NAP800     -0.1145
@<TRIPOS>BOND
     1    43    42    1
     2    43    44    2
     3    42    38    2
     4    44    36    1
     5    40    39    2
     6    38    39    1
     7    38    37    1
     8    39    41   am
     9    36    37    1
    10    36    35    1
    11    35    30    1
    12    35    33    1
    13    30    29    1
    14    29    28    1
    15    29    31    1
    16    33    34    1
    17    33    31    1
    18    25    24    2
    19    32    31    1
    20    28    27    1
    21    27    24    1
    22    26    24    1
    23    24    23    1
    24    23     1    1
    25     3     1    2
    26     1     4    1
    27     1     2    1
    28     4     5    1
    29     5     6    1
    30     6     7    1
    31     6     8    1
    32     7    12    1
    33     8     9    1
    34     8    10    1
    35    12    10    1
    36    12    13    1
    37    14    13    1
    38    14    15    1
    39    10    11    1
    40    13    22    1
    41    15    16    2
    42    22    16    1
    43    22    21    2
    44    16    17    1
    45    11    45    1
    46    21    20    1
    47    46    45    2
    48    20    19    1
    49    17    19    2
    50    17    18    1
    51    45    48    1
    52    45    47    1
