@<TRIPOS>MOLECULE
2bd0_BIO_D_1.pdb
 17 18 0 0 0
SMALL
GASTEIGER

@<TRIPOS>ATOM
      1  N1        37.4530   36.2700   13.4190 N.2   900  BIO900     -0.2672
      2  N2        38.4680   38.0300   12.2830 N.pl3 900  BIO900     -0.0220
      3  C2        37.6910   37.5770   13.3190 C.1   900  BIO900      0.2609
      4  N3        37.1810   38.4930   14.2190 N.2   900  BIO900     -0.2466
      5  C4        36.3950   38.0890   15.2750 C.1   900  BIO900      0.2569
      6  O4        35.9450   38.8970   16.0710 O.2   900  BIO900     -0.2052
      7  C4A       36.1150   36.6320   15.4130 C.2   900  BIO900      0.2989
      8  C8A       36.6880   35.7480   14.4250 C.1   900  BIO900      0.1401
      9  N8        36.4460   34.4150   14.5300 N.2   900  BIO900     -0.1992
     10  C7        35.6900   33.9220   15.5340 C.3   900  BIO900      0.1940
     11  C6        35.1320   34.7910   16.5040 C.2   900  BIO900      0.1466
     12  N5        35.3620   36.1210   16.4110 N.2   900  BIO900     -0.3830
     13  C9        34.2860   34.2210   17.6440 C.3   900  BIO900      0.2313
     14  O9        33.2540   33.3780   17.1110 O.3   900  BIO900     -0.2130
     15  C10       33.6510   35.3550   18.4810 C.3   900  BIO900      0.1888
     16  O10       34.6660   36.2070   19.0330 O.3   900  BIO900     -0.2200
     17  C11       32.8120   34.7730   19.6160 C.3   900  BIO900      0.0387
@<TRIPOS>BOND
     1     2     3    1
     2     3     1    2
     3     3     4    2
     4     1     8    2
     5     4     5    2
     6     8     9    2
     7     8     7    1
     8     9    10    1
     9     5     7    1
    10     5     6    2
    11     7    12    2
    12    10    11    1
    13    12    11    2
    14    11    13    1
    15    14    13    1
    16    13    15    1
    17    15    16    1
    18    15    17    1
