@<TRIPOS>MOLECULE
2bd3_III_P_1.pdb
 31 31 0 0 0
SMALL
GASTEIGER

@<TRIPOS>ATOM
      1  N        -18.0330   17.1460   39.9610 N.3     4  VAL4       -0.1231
      2  CA       -16.8580   18.0220   40.2820 C.3     4  VAL4        0.1692
      3  C        -15.8360   18.0900   39.1200 C.2     4  VAL4        0.2592
      4  O        -15.2980   17.0600   38.7030 O.2     4  VAL4       -0.2718
      5  CB       -16.2370   17.5960   41.6610 C.3     4  VAL4        0.0266
      6  CG1      -16.7210   16.1930   42.0840 C.3     4  VAL4        0.0020
      7  CG2      -14.7230   17.6770   41.6620 C.3     4  VAL4        0.0020
      8  N        -15.5870   19.2950   38.5930 N.am    5  GLU5       -0.1966
      9  CA       -14.6000   19.5120   37.5040 C.3     5  GLU5        0.1718
     10  C        -13.3050   20.2480   37.8910 C.2     5  GLU5        0.2458
     11  O        -13.3030   21.4700   38.0190 O.2     5  GLU5       -0.2730
     12  CB       -15.2420   20.2350   36.3300 C.3     5  GLU5        0.0428
     13  CG       -15.7410   19.3010   35.2430 C.3     5  GLU5        0.1163
     14  CD       -15.0040   19.4470   33.9330 C.2     5  GLU5        0.3649
     15  OE1      -15.6510   19.8640   32.9520 O.co2   5  GLU5       -0.2457
     16  OE2      -13.7930   19.1500   33.8750 O.co2   5  GLU5       -0.2457
     17  N        -12.1750   19.5180   37.9990 N.am    6  PRO6       -0.2716
     18  CA       -10.9370   20.2360   38.3820 C.3     6  PRO6        0.1535
     19  C        -10.6440   21.3630   37.3710 C.2     6  PRO6        0.2595
     20  O        -10.9840   21.2510   36.1820 O.2     6  PRO6       -0.2716
     21  CB        -9.8570   19.1540   38.2970 C.3     6  PRO6        0.0310
     22  CG       -10.5960   17.8270   38.3310 C.3     6  PRO6        0.0237
     23  CD       -11.9430   18.0810   37.7400 C.3     6  PRO6        0.0939
     24  N        -10.0410   22.4530   37.8290 N.am    7  ILE7       -0.2031
     25  CA        -9.7480   23.5660   36.9370 C.3     7  ILE7        0.1282
     26  C         -8.3230   24.1360   37.0980 C.3     7  ILE7        0.2035
     27  O         -8.4470   25.5240   37.1890 O.3     7  ILE7       -0.2185
     28  CB       -10.7620   24.7080   37.1310 C.3     7  ILE7        0.0226
     29  CG1      -10.8640   25.1050   38.6110 C.3     7  ILE7        0.0018
     30  CG2      -12.0950   24.3400   36.5470 C.3     7  ILE7        0.0018
     31  CD1      -11.1070   26.5710   38.7550 C.3     7  ILE7        0.0001
@<TRIPOS>BOND
     1    15    14   ar
     2    16    14   ar
     3    14    13    1
     4    13    12    1
     5    20    19    2
     6    12     9    1
     7    30    28    1
     8    25    26    1
     9    25    28    1
    10    25    24    1
    11    26    27    1
    12    28    29    1
    13    19    24   am
    14    19    18    1
    15     9    10    1
    16     9     8    1
    17    23    17    1
    18    23    22    1
    19    10    17   am
    20    10    11    2
    21    17    18    1
    22    21    22    1
    23    21    18    1
    24     8     3   am
    25    29    31    1
    26     4     3    2
    27     3     2    1
    28     1     2    1
    29     2     5    1
    30     5     7    1
    31     5     6    1
