@<TRIPOS>MOLECULE
2bdf_24A_A_1.pdb
 33 36 0 0 0
SMALL
GASTEIGER

@<TRIPOS>ATOM
      1  C0A        8.6020   18.6840   -6.7830 C.3   600  24A600      0.0233
      2  C1A        8.9730   17.5690   -5.8340 C.3   600  24A600      0.0951
      3  N9A       10.3010   17.0590   -6.1720 N.pl3 600  24A600     -0.2608
      4  C4A       10.4900   16.3270   -7.2360 C.2   600  24A600      0.2182
      5  N3A        9.7260   15.8550   -8.2220 N.2   600  24A600     -0.3269
      6  C2A       10.3260   15.1250   -9.1640 C.1   600  24A600      0.1154
      7  N1A       11.6440   14.8620   -9.1460 N.2   600  24A600     -0.3251
      8  C6A       12.5050   15.2970   -8.1920 C.2   600  24A600      0.2367
      9  C5A       11.8560   16.0660   -7.2050 C.2   600  24A600      0.1692
     10  N7A       12.4190   16.6300   -6.1420 N.2   600  24A600     -0.2402
     11  C8A       11.4240   17.2610   -5.4890 C.3   600  24A600      0.2221
     12  N6A       13.8420   15.0240   -8.2340 N.pl3 600  24A600     -0.1814
     13  CR1       14.5680   14.3750   -9.1980 C.ar  600  24A600      0.0732
     14  CR2       15.9510   14.5140   -9.1220 C.ar  600  24A600      0.0168
     15  CR3       16.8080   13.8560  -10.0380 C.ar  600  24A600      0.0065
     16  CR4       16.2850   13.0500  -11.0500 C.ar  600  24A600      0.0568
     17  CR5       14.9000   12.9110  -11.1360 C.ar  600  24A600      0.0065
     18  CR6       14.0490   13.5710  -10.2160 C.ar  600  24A600      0.0168
     19  PA        17.2610   12.3270  -12.0670 P.3   600  24A600      0.2814
     20  OA1       18.5680   12.9570  -12.4000 O.3   600  24A600     -0.1630
     21  OA2       16.6500   11.8840  -13.4900 O.2   600  24A600     -0.2821
     22  CAB       17.7680   10.9400  -11.6400 C.3   600  24A600      0.1520
     23  PB        18.7620    9.8300  -12.1310 P.3   600  24A600      0.1274
     24  OB1       18.0670    8.7510  -12.9150 O.2   600  24A600     -0.4595
     25  OB2       19.3920    9.1770  -10.7720 O.3   600  24A600     -0.3568
     26  OB3       20.0440   10.5320  -12.9000 O.3   600  24A600     -0.3568
     27  NS1        8.1110   12.1160  -13.4640 N.3   600  24A600     -0.1329
     28  CS1        9.0130   12.8280  -12.5800 C.3   600  24A600      0.0919
     29  CS2        9.1440   14.3530  -12.7560 C.3   600  24A600      0.0201
     30  CS3       10.0040   14.9720  -11.6430 C.3   600  24A600      0.0184
     31  CS4        9.4530   14.5780  -10.2630 C.3   600  24A600      0.1093
     32  CS5        9.3150   13.0630  -10.1150 C.3   600  24A600      0.0184
     33  CS6        8.4280   12.4880  -11.2130 C.3   600  24A600      0.0201
@<TRIPOS>BOND
     1    21    19    2
     2    27    28    1
     3    24    23    2
     4    26    23    1
     5    29    28    1
     6    29    30    1
     7    28    33    1
     8    20    19    1
     9    23    22    1
    10    23    25    1
    11    19    22    1
    12    19    16    1
    13    30    31    1
    14    33    32    1
    15    17    16   ar
    16    17    18   ar
    17    16    15   ar
    18    31    32    1
    19    31     6    1
    20    18    13   ar
    21    15    14   ar
    22    13    14   ar
    23    13    12    1
    24     6     7    2
    25     6     5    2
    26     7     8    2
    27    12     8    1
    28     5     4    2
    29     8     9    1
    30     4     9    1
    31     4     3    1
    32     9    10    2
    33     1     2    1
    34     3     2    1
    35     3    11    1
    36    10    11    1
