@<TRIPOS>MOLECULE
2bdg_PBZ_A_1.pdb
 10 10 0 0 0
SMALL
GASTEIGER

@<TRIPOS>ATOM
      1  N2        35.3800   41.2490   -1.6020 N.pl3 301  PBZ301      0.2047
      2  N3        33.6910   40.3490   -0.3310 N.pl3 301  PBZ301      0.2047
      3  C7        34.1380   41.2750   -1.1540 C.2   301  PBZ301      0.4766
      4  C4        33.1950   42.3810   -1.6140 C.ar  301  PBZ301      0.0976
      5  C2        30.9110   43.3320   -1.7500 C.ar  301  PBZ301      0.0183
      6  C3        31.7970   42.3100   -1.3130 C.ar  301  PBZ301      0.0094
      7  C5        33.6880   43.5020   -2.3640 C.ar  301  PBZ301      0.0094
      8  C6        32.7980   44.5230   -2.8020 C.ar  301  PBZ301      0.0183
      9  C1        31.4080   44.4390   -2.4980 C.ar  301  PBZ301      0.0891
     10  N1        30.5320   45.4460   -2.9420 N.pl3 301  PBZ301     -0.1281
@<TRIPOS>BOND
     1    10     9    1
     2     8     9   ar
     3     8     7   ar
     4     9     5   ar
     5     7     4   ar
     6     5     6   ar
     7     4     6   ar
     8     4     3    1
     9     1     3    2
    10     3     2    1
