@<TRIPOS>MOLECULE
2bdh_PBZ_A_1.pdb
 10 10 0 0 0
SMALL
GASTEIGER

@<TRIPOS>ATOM
      1  N2        27.9300   33.8140   20.7120 N.pl3 303  PBZ303      0.2047
      2  N3        25.6560   33.5140   20.4270 N.pl3 303  PBZ303      0.2047
      3  C7        26.8510   33.0280   20.7060 C.2   303  PBZ303      0.4766
      4  C4        26.9890   31.5250   20.9920 C.ar  303  PBZ303      0.0976
      5  C2        26.0510   29.2400   20.9100 C.ar  303  PBZ303      0.0183
      6  C3        25.9260   30.6280   20.6640 C.ar  303  PBZ303      0.0094
      7  C5        28.1790   30.9960   21.5770 C.ar  303  PBZ303      0.0094
      8  C6        28.3030   29.6030   21.8240 C.ar  303  PBZ303      0.0183
      9  C1        27.2400   28.7270   21.4860 C.ar  303  PBZ303      0.0891
     10  N1        27.3660   27.3490   21.7210 N.pl3 303  PBZ303     -0.1281
@<TRIPOS>BOND
     1     2     3    2
     2     6     5   ar
     3     6     4   ar
     4     3     1    1
     5     3     4    1
     6     5     9   ar
     7     4     7   ar
     8     9    10    1
     9     9     8   ar
    10     7     8   ar
