@<TRIPOS>MOLECULE
2bdi_PBZ_A_1.pdb
 10 10 0 0 0
SMALL
GASTEIGER

@<TRIPOS>ATOM
      1  N2        -1.9910    2.9110  -59.7990 N.pl3 701  PBZ701      0.2047
      2  N3        -3.9510    3.0300  -58.3520 N.pl3 701  PBZ701      0.2047
      3  C7        -2.9240    3.6820  -59.0780 C.2   701  PBZ701      0.4766
      4  C4        -2.8370    5.3140  -59.1830 C.ar  701  PBZ701      0.0976
      5  C2        -3.7010    7.4140  -58.4320 C.ar  701  PBZ701      0.0183
      6  C3        -3.6780    6.0490  -58.3970 C.ar  701  PBZ701      0.0094
      7  C5        -1.9220    6.0850  -60.0990 C.ar  701  PBZ701      0.0094
      8  C6        -1.9580    7.5300  -60.1210 C.ar  701  PBZ701      0.0183
      9  C1        -2.9150    8.1410  -59.2180 C.ar  701  PBZ701      0.0891
     10  N1        -3.1080    9.4320  -59.0490 N.pl3 701  PBZ701     -0.1281
@<TRIPOS>BOND
     1     8     7   ar
     2     8     9   ar
     3     7     4   ar
     4     1     3    2
     5     9    10    1
     6     9     5   ar
     7     4     3    1
     8     4     6   ar
     9     3     2    1
    10     5     6   ar
