@<TRIPOS>MOLECULE
2bdj_HET_A_1.pdb
 34 38 0 0 0
SMALL
GASTEIGER

@<TRIPOS>ATOM
      1  N9A       17.0690    2.1400   26.1050 N.pl3 800  HET800     -0.2605
      2  C8A       18.1970    1.4350   26.2480 C.3   800  HET800      0.2221
      3  N7A       19.1170    2.2550   25.7630 N.2   800  HET800     -0.2402
      4  C5A       18.6500    3.5300   25.2770 C.2   800  HET800      0.1692
      5  C6A       19.1210    4.7110   24.7170 C.2   800  HET800      0.2367
      6  N6A       20.4280    4.8380   24.5160 N.pl3 800  HET800     -0.1814
      7  N1A       18.2230    5.6640   24.4230 N.2   800  HET800     -0.3251
      8  C2A       16.8940    5.6030   24.6160 C.1   800  HET800      0.1154
      9  N3A       16.3710    4.4830   25.1720 N.2   800  HET800     -0.3269
     10  C4A       17.1600    3.4380   25.5180 C.2   800  HET800      0.2182
     11  C1A       15.7220    1.7180   26.5030 C.3   800  HET800      0.0997
     12  CT0       15.0720    2.6080   27.4620 C.3   800  HET800      0.0480
     13  CT1       13.6770    2.0520   27.8160 C.ar  800  HET800     -0.0173
     14  CT2       13.4000    1.7130   29.1920 C.ar  800  HET800     -0.0040
     15  CT3       12.1030    1.1830   29.5460 C.ar  800  HET800      0.0030
     16  CT4       11.1000    0.9980   28.5230 C.ar  800  HET800      0.0420
     17  CT5       11.3660    1.3330   27.1510 C.ar  800  HET800      0.1954
     18  CT6       12.6510    1.8590   26.7930 C.ar  800  HET800      0.0378
     19  OH        10.4090    1.1500   26.2080 O.3   800  HET800     -0.2866
     20  CR1       21.1460    5.7590   24.0730 C.ar  800  HET800      0.0732
     21  CR2       22.5510    5.7410   23.9120 C.ar  800  HET800      0.0167
     22  CR3       23.2150    6.8620   23.4240 C.ar  800  HET800      0.0042
     23  CR4       22.4780    8.0230   23.0910 C.ar  800  HET800      0.0297
     24  CR5       21.0780    8.0720   23.2360 C.ar  800  HET800      0.0042
     25  CR6       20.4090    6.9450   23.7270 C.ar  800  HET800      0.0167
     26  PA        23.3330    9.4870   22.4770 P.3   800  HET800      0.1353
     27  OA1       24.3630    9.7910   23.5950 O.2   800  HET800     -0.3149
     28  CA2       23.9430    8.9390   21.1580 C.3   800  HET800      0.0720
     29  CA3       22.3830   10.6100   22.1840 C.3   800  HET800      0.0720
     30  CS1       15.9510    6.6860   24.2550 C.3   800  HET800      0.1092
     31  CS2       16.2520    7.1620   22.7930 C.3   800  HET800      0.0170
     32  CS3       16.2990    8.6980   22.7830 C.3   800  HET800      0.0012
     33  CS4       16.0220    9.1620   24.2130 C.3   800  HET800      0.0012
     34  CS5       16.0690    7.9310   25.1540 C.3   800  HET800      0.0170
@<TRIPOS>BOND
     1    28    26    1
     2    29    26    1
     3    26    23    1
     4    26    27    2
     5    32    31    1
     6    32    33    1
     7    31    30    1
     8    23    24   ar
     9    23    22   ar
    10    24    25   ar
    11    22    21   ar
    12    25    20   ar
    13    21    20   ar
    14    20     6    1
    15    33    34    1
    16    30     8    1
    17    30    34    1
    18     7     8    2
    19     7     5    2
    20     6     5    1
    21     8     9    2
    22     5     4    1
    23     9    10    2
    24     4    10    1
    25     4     3    2
    26    10     1    1
    27     3     2    1
    28     1     2    1
    29     1    11    1
    30    19    17    1
    31    11    12    1
    32    18    17   ar
    33    18    13   ar
    34    17    16   ar
    35    12    13    1
    36    13    14   ar
    37    16    15   ar
    38    14    15   ar
