@<TRIPOS>MOLECULE
2bdl_4PR_A_1.pdb
 39 41 0 0 0
SMALL
GASTEIGER

@<TRIPOS>ATOM
      1  C1        73.6880   93.3360  163.1710 C.3   301  4PR301      0.0000
      2  C2        74.8140   94.2470  162.7650 C.3   301  4PR301      0.0001
      3  C3        75.4970   94.7630  164.0060 C.3   301  4PR301      0.0019
      4  C4        76.9670   94.4400  163.9220 C.3   301  4PR301      0.0249
      5  C5        77.7540   95.2610  164.9210 C.3   301  4PR301      0.1380
      6  N1        77.8600   96.5960  164.3880 N.am  301  4PR301     -0.1674
      7  C6        77.3860   97.6910  165.0670 C.2   301  4PR301      0.4211
      8  O1        76.7810   97.6850  166.1280 O.2   301  4PR301     -0.2246
      9  O2        77.7080   98.8080  164.3680 O.3   301  4PR301     -0.4355
     10  C7        77.2310  100.0130  164.9500 C.3   301  4PR301      0.1916
     11  C8        75.8370  100.2550  164.4240 C.3   301  4PR301      0.1385
     12  N2        76.0300  101.1070  163.2860 N.am  301  4PR301     -0.2588
     13  C9        77.3380  101.7040  163.2270 C.3   301  4PR301      0.0986
     14  C10       78.0740  101.1610  164.4330 C.3   301  4PR301      0.0570
     15  C11       78.2030  102.2490  165.4760 C.3   301  4PR301      0.0054
     16  C12       79.4580  100.6890  164.0530 C.3   301  4PR301      0.0054
     17  C13       74.9900  101.4140  162.4370 C.2   301  4PR301      0.3277
     18  O3        73.8350  101.0580  162.6400 O.2   301  4PR301     -0.2504
     19  N3        75.3870  102.1560  161.3500 N.am  301  4PR301     -0.1580
     20  C14       74.7040  102.0470  160.1560 C.ar  301  4PR301      0.1243
     21  C15       74.6450  100.9520  159.2600 C.ar  301  4PR301      0.1159
     22  C16       75.3000   99.6420  159.3680 C.3   301  4PR301      0.0571
     23  N4        73.8750  101.2310  158.2020 N.ar  301  4PR301     -0.0804
     24  O4        73.4180  102.5330  158.4030 O.2   301  4PR301     -0.3567
     25  C17       73.9200  103.0140  159.5740 C.ar  301  4PR301      0.1697
     26  C18       73.5430  104.3850  159.9520 C.3   301  4PR301      0.0768
     27  C19       79.1750   94.7640  164.9490 C.3   301  4PR301      0.2488
     28  O5        80.0290   95.1870  163.9000 O.3   301  4PR301     -0.2113
     29  C20       79.2640   93.2730  165.1390 C.2   301  4PR301      0.2739
     30  O6        78.8120   92.7640  166.1540 O.2   301  4PR301     -0.2705
     31  N5        79.8630   92.6270  164.0760 N.am  301  4PR301     -0.2005
     32  C21       80.0080   91.1840  164.0450 C.3   301  4PR301      0.1176
     33  C22       80.8940   90.7620  162.8960 C.3   301  4PR301      0.0283
     34  C23       78.7020   90.4690  163.9270 C.ar  301  4PR301     -0.0026
     35  C24       78.5010   89.2980  164.6270 C.ar  301  4PR301     -0.0026
     36  C25       77.3040   88.6240  164.5300 C.ar  301  4PR301     -0.0003
     37  C26       76.2970   89.1200  163.7330 C.ar  301  4PR301     -0.0000
     38  C27       76.4930   90.2870  163.0320 C.ar  301  4PR301     -0.0003
     39  C28       77.6910   90.9590  163.1270 C.ar  301  4PR301     -0.0026
@<TRIPOS>BOND
     1    23    24   ar
     2    23    21   ar
     3    24    25   ar
     4    21    22    1
     5    21    20   ar
     6    25    26    1
     7    25    20   ar
     8    20    19    1
     9    19    17   am
    10    17    18    2
    11    17    12   am
    12     2     1    1
    13     2     3    1
    14    33    32    1
    15    38    39   ar
    16    38    37   ar
    17    39    34   ar
    18    13    12    1
    19    13    14    1
    20    12    11    1
    21    37    36   ar
    22    28    27    1
    23     4     3    1
    24     4     5    1
    25    34    32    1
    26    34    35   ar
    27    32    31    1
    28    16    14    1
    29    31    29   am
    30     9    10    1
    31     9     7    1
    32     6     5    1
    33     6     7   am
    34    11    10    1
    35    14    10    1
    36    14    15    1
    37    36    35   ar
    38     5    27    1
    39    27    29    1
    40     7     8    2
    41    29    30    2
