@<TRIPOS>MOLECULE
2bdm_HEM_A_1.pdb
 43 50 0 0 0
SMALL
GASTEIGER

@<TRIPOS>ATOM
      1  CHA       86.6080   36.3960   11.3320 C.2   500  HEM500      0.0000
      2  CHB       83.8990   32.5760   10.6940 C.2   500  HEM500      0.0000
      3  CHC       86.6110   31.3060    7.0580 C.2   500  HEM500      0.0000
      4  CHD       89.4220   35.0290    7.8300 C.2   500  HEM500      0.0000
      5  C1A       85.6220   35.4500   11.5700 C.2   500  HEM500      0.0000
      6  C2A       84.6180   35.5300   12.5320 C.2   500  HEM500      0.0000
      7  C3A       83.7810   34.4660   12.2840 C.2   500  HEM500      0.0000
      8  C4A       84.3230   33.7930   11.1790 C.2   500  HEM500      0.0000
      9  CMA       82.4750   34.0750   13.0740 C.3   500  HEM500      0.0000
     10  CAA       84.4910   36.5980   13.6310 C.3   500  HEM500      0.0000
     11  CBA       83.7080   37.8190   13.2640 C.3   500  HEM500      0.0000
     12  CGA       83.5790   38.7900   14.4160 C.2   500  HEM500      0.0000
     13  O1A       84.5740   39.3480   14.8890 O.co2 500  HEM500      0.0000
     14  O2A       82.4730   38.9960   14.9050 O.co2 500  HEM500      0.0000
     15  C1B       84.3160   31.8360    9.6050 C.ar  500  HEM500      0.0000
     16  C2B       83.7420   30.6180    9.1310 C.ar  500  HEM500      0.0000
     17  C3B       84.6100   30.2020    8.0850 C.ar  500  HEM500      0.0000
     18  C4B       85.6250   31.2090    8.0320 C.ar  500  HEM500      0.0000
     19  CMB       82.4750   29.9760    9.6770 C.3   500  HEM500      0.0000
     20  CAB       84.5520   29.0510    7.2340 C.3   500  HEM500      0.0000
     21  CBB       83.4550   28.0990    6.9190 C.3   500  HEM500      0.0000
     22  C1C       87.6330   32.2240    6.8580 C.2   500  HEM500      0.0000
     23  C2C       88.6440   32.0740    5.9360 C.2   500  HEM500      0.0000
     24  C3C       89.5830   33.0860    6.2180 C.2   500  HEM500      0.0000
     25  C4C       89.0320   33.7880    7.3260 C.2   500  HEM500      0.0000
     26  CMC       88.7160   30.9920    4.8120 C.3   500  HEM500      0.0000
     27  CAC       90.7840   33.4250    5.6380 C.3   500  HEM500      0.0000
     28  CBC       91.1170   33.6030    4.2760 C.3   500  HEM500      0.0000
     29  C1D       88.8800   35.7820    8.8200 C.ar  500  HEM500      0.0000
     30  C2D       89.4020   37.0030    9.2900 C.ar  500  HEM500      0.0000
     31  C3D       88.5600   37.4300   10.2870 C.ar  500  HEM500      0.0000
     32  C4D       87.5800   36.4340   10.3630 C.ar  500  HEM500      0.0000
     33  CMD       90.6720   37.7320    8.7910 C.3   500  HEM500      0.0000
     34  CAD       88.5860   38.7110   11.1890 C.3   500  HEM500      0.0000
     35  CBD       87.7520   39.8760   10.5210 C.3   500  HEM500      0.0000
     36  CGD       87.6090   41.2390   11.2780 C.2   500  HEM500      0.0000
     37  O1D       87.4920   42.2930   10.6790 O.co2 500  HEM500      0.0000
     38  O2D       87.6020   41.2450   12.5210 O.co2 500  HEM500      0.0000
     39  NA        85.4140   34.3780   10.7550 N.2   500  HEM500      0.0000
     40  NB        85.4220   32.1480    8.9350 N.ar  500  HEM500      0.0000
     41  NC        87.8600   33.2340    7.6780 N.2   500  HEM500      0.0000
     42  ND        87.7990   35.4770    9.4780 N.ar  500  HEM500      0.0000
     43 FE         86.6060   33.8260    9.1830 Fe    500  HEM500      0.0000
@<TRIPOS>BOND
     1    28    27    1
     2    26    23    1
     3    27    24    1
     4    23    24    2
     5    23    22    1
     6    24    25    1
     7    22     3    2
     8    22    41    1
     9    21    20    1
    10     3    18    1
    11    20    17    1
    12    25    41    2
    13    25     4    1
    14    41    43    1
    15     4    29    2
    16    18    17   ar
    17    18    40   ar
    18    17    16   ar
    19    33    30    1
    20    29    30   ar
    21    29    42   ar
    22    40    43    1
    23    40    15   ar
    24    16    15   ar
    25    16    19    1
    26    43    42    1
    27    43    39    1
    28    30    31   ar
    29    42    32   ar
    30    15     2    1
    31    31    32   ar
    32    31    34    1
    33    32     1    2
    34    35    34    1
    35    35    36    1
    36    37    36   ar
    37     2     8    2
    38    39     8    1
    39    39     5    2
    40     8     7    1
    41    36    38   ar
    42     1     5    1
    43     5     6    1
    44     7     6    2
    45     7     9    1
    46     6    10    1
    47    11    10    1
    48    11    12    1
    49    12    13   ar
    50    12    14   ar
