@<TRIPOS>MOLECULE
2bdm_TMI_A_1.pdb
 24 27 0 0 0
SMALL
GASTEIGER

@<TRIPOS>ATOM
      1  CBB       92.3790   30.5510   13.3910 C.ar  501  TMI501     -0.0021
      2  CBC       92.8160   29.2350   13.5080 C.ar  501  TMI501     -0.0003
      3  CBD       92.1990   28.2280   12.7710 C.ar  501  TMI501     -0.0000
      4  CBE       91.1460   28.5350   11.9150 C.ar  501  TMI501     -0.0003
      5  CBF       90.7120   29.8520   11.7970 C.ar  501  TMI501     -0.0021
      6  CBA       91.3260   30.8610   12.5350 C.ar  501  TMI501      0.0025
      7  CAA       90.8500   32.3110   12.4030 C.3   501  TMI501      0.1321
      8  NAB       89.4740   32.3680   11.8830 N.ar  501  TMI501     -0.3020
      9  CAF       88.4160   31.8010   12.4570 C.ar  501  TMI501      0.0985
     10  CAE       87.3630   32.1040   11.7000 C.ar  501  TMI501      0.1193
     11  NAD       87.7710   32.8500   10.6750 N.ar  501  TMI501     -0.2223
     12  CAC       89.0860   33.0140   10.7860 C.ar  501  TMI501      0.1791
     13  CCA       91.8010   33.1310   11.5240 C.ar  501  TMI501      0.0025
     14  CCB       91.9120   34.5020   11.7330 C.ar  501  TMI501     -0.0021
     15  CCC       92.6940   35.2760   10.8790 C.ar  501  TMI501     -0.0003
     16  CCF       92.4860   32.5400   10.4660 C.ar  501  TMI501     -0.0021
     17  CCE       93.2680   33.3170    9.6150 C.ar  501  TMI501     -0.0003
     18  CCD       93.3720   34.6910    9.8130 C.ar  501  TMI501     -0.0000
     19  CDA       94.1500   35.4700    8.9600 C.ar  501  TMI501     -0.0000
     20  CDB       94.8670   36.5580    9.4540 C.ar  501  TMI501     -0.0000
     21  CDC       95.6820   37.3080    8.6120 C.ar  501  TMI501      0.0000
     22  CDD       95.7850   36.9750    7.2650 C.ar  501  TMI501      0.0000
     23  CDE       95.0690   35.8920    6.7620 C.ar  501  TMI501      0.0000
     24  CDF       94.2550   35.1450    7.6090 C.ar  501  TMI501     -0.0000
@<TRIPOS>BOND
     1    23    22   ar
     2    23    24   ar
     3    22    21   ar
     4    24    19   ar
     5    21    20   ar
     6    19    20   ar
     7    19    18    1
     8    17    18   ar
     9    17    16   ar
    10    18    15   ar
    11    16    13   ar
    12    11    12   ar
    13    11    10   ar
    14    12     8   ar
    15    15    14   ar
    16    13    14   ar
    17    13     7    1
    18    10     9   ar
    19     5     4   ar
    20     5     6   ar
    21     8     7    1
    22     8     9   ar
    23     4     3   ar
    24     7     6    1
    25     6     1   ar
    26     3     2   ar
    27     1     2   ar
