@<TRIPOS>MOLECULE
2bdm_CM5_A_1.pdb
 34 36 0 0 0
SMALL
GASTEIGER

@<TRIPOS>ATOM
      1  C7        95.1940   36.0500   15.0240 C.3   504  CM5504      0.0000
      2  C8        95.1650   35.3960   16.4080 C.3   504  CM5504      0.0000
      3  C9        96.5840   35.2150   16.9530 C.3   504  CM5504      0.0000
      4  C10       97.3190   36.5570   16.9940 C.3   504  CM5504      0.0000
      5  C11       97.3460   37.1990   15.6040 C.3   504  CM5504      0.0000
      6  C6        95.9220   37.3950   15.0740 C.3   504  CM5504      0.0000
      7  C5        95.9530   38.0420   13.6880 C.3   504  CM5504      0.0000
      8  C4        94.5510   38.5200   13.3020 C.3   504  CM5504      0.0001
      9  C3        94.4690   39.1100   11.8930 C.3   504  CM5504      0.0026
     10  C2        95.3570   40.3410   11.6980 C.3   504  CM5504      0.0322
     11  C1        94.7580   41.2350   10.6100 C.3   504  CM5504      0.1449
     12  O12       93.5410   41.7700   11.1520 O.3   504  CM5504     -0.3286
     13  C13       92.6510   42.2790   10.1480 C.3   504  CM5504      0.2695
     14  C18       91.3630   42.7230   10.8480 C.3   504  CM5504      0.2404
     15  O22       90.7280   41.5780   11.4230 O.3   504  CM5504     -0.2149
     16  C17       90.4060   43.3800    9.8510 C.3   504  CM5504      0.2167
     17  O21       89.3140   43.9640   10.5640 O.3   504  CM5504     -0.2175
     18  O14       93.2340   43.3810    9.4310 O.3   504  CM5504     -0.3257
     19  C15       92.3530   43.8670    8.4040 C.3   504  CM5504      0.1803
     20  C19       93.0720   44.8900    7.5200 C.3   504  CM5504      0.2141
     21  O20       93.5040   46.0000    8.3120 O.3   504  CM5504     -0.2176
     22  C16       91.1130   44.4740    9.0460 C.3   504  CM5504      0.1804
     23  O23       90.2090   44.9920    8.0580 O.3   504  CM5504     -0.3257
     24  C24       89.4490   46.0890    8.5900 C.3   504  CM5504      0.2695
     25  O25       90.1230   47.3230    8.2930 O.3   504  CM5504     -0.3256
     26  C26       90.3540   47.5270    6.8870 C.3   504  CM5504      0.1835
     27  C30       91.0420   48.8870    6.7450 C.3   504  CM5504      0.2142
     28  O31       91.3170   49.1630    5.3690 O.3   504  CM5504     -0.2176
     29  C27       89.0310   47.5380    6.1150 C.3   504  CM5504      0.2144
     30  O32       89.2930   47.5570    4.7090 O.3   504  CM5504     -0.2176
     31  C28       88.2080   46.2870    6.4320 C.3   504  CM5504      0.2198
     32  O33       86.9160   46.4080    5.8310 O.3   504  CM5504     -0.2174
     33  C29       88.0610   46.1250    7.9460 C.3   504  CM5504      0.2406
     34  O34       87.3490   44.9220    8.2440 O.3   504  CM5504     -0.2149
@<TRIPOS>BOND
     1    30    29    1
     2    28    27    1
     3    32    31    1
     4    29    31    1
     5    29    26    1
     6    31    33    1
     7    27    26    1
     8    26    25    1
     9    20    21    1
    10    20    19    1
    11    33    34    1
    12    33    24    1
    13    23    24    1
    14    23    22    1
    15    25    24    1
    16    19    22    1
    17    19    18    1
    18    22    16    1
    19    18    13    1
    20    16    17    1
    21    16    14    1
    22    13    14    1
    23    13    12    1
    24    11    12    1
    25    11    10    1
    26    14    15    1
    27    10     9    1
    28     9     8    1
    29     8     7    1
    30     7     6    1
    31     1     6    1
    32     1     2    1
    33     6     5    1
    34     5     4    1
    35     2     3    1
    36     3     4    1
