@<TRIPOS>MOLECULE
2bdo_BTN_A_1.pdb
 30 31 0 0 0
SMALL
GASTEIGER

@<TRIPOS>ATOM
      1  C11      -14.7800   -9.6760    2.0960 C.2   222  BTN222      0.1981
      2  O11      -15.0770  -10.7700    1.6140 O.2   222  BTN222     -0.2890
      3  C10      -15.0120   -9.4490    3.5770 C.3   222  BTN222      0.0134
      4  C9       -13.8720   -8.6880    4.2340 C.3   222  BTN222     -0.0459
      5  C8       -12.5300   -9.3470    3.9580 C.3   222  BTN222     -0.0516
      6  C7       -11.4210   -8.7220    4.7890 C.3   222  BTN222     -0.0394
      7  C2       -10.0220   -8.9400    4.2040 C.3   222  BTN222      0.0255
      8  S1        -9.3510  -10.6460    4.3670 S.3   222  BTN222     -0.1536
      9  C6        -7.6230  -10.0270    4.2560 C.3   222  BTN222      0.0143
     10  C5        -7.6190   -8.6970    5.0010 C.3   222  BTN222      0.0529
     11  N1        -7.4710   -8.8660    6.4430 N.am  222  BTN222     -0.2940
     12  C3        -8.5040   -8.4210    7.1600 C.2   222  BTN222      0.3002
     13  O3        -8.6140   -8.4540    8.3850 O.2   222  BTN222     -0.2528
     14  N2        -9.3970   -7.9380    6.2980 N.am  222  BTN222     -0.2937
     15  C4        -8.9920   -8.0350    4.9010 C.3   222  BTN222      0.0555
     16 H101      -15.1170  -10.4090    4.0600 H     222  BTN222      0.0346
     17 H102      -15.9220   -8.8840    3.7010 H     222  BTN222      0.0346
     18  H91      -14.0380   -8.6630    5.3020 H     222  BTN222      0.0269
     19  H92      -13.8530   -7.6810    3.8480 H     222  BTN222      0.0269
     20  H81      -12.2930   -9.2310    2.9100 H     222  BTN222      0.0266
     21  H82      -12.5990  -10.3970    4.1990 H     222  BTN222      0.0266
     22  H71      -11.4560   -9.1530    5.7790 H     222  BTN222      0.0276
     23  H72      -11.6070   -7.6620    4.8600 H     222  BTN222      0.0276
     24  H2       -10.0360   -8.6890    3.1540 H     222  BTN222      0.0431
     25  H61       -7.3140   -9.8560    3.2350 H     222  BTN222      0.0395
     26  H62       -6.9190  -10.6930    4.7290 H     222  BTN222      0.0395
     27  H5        -6.8590   -8.0300    4.6220 H     222  BTN222      0.0525
     28  HN1       -6.6770   -9.2720    6.8520 H     222  BTN222      0.1506
     29  HN2      -10.2520   -7.5500    6.5790 H     222  BTN222      0.1506
     30  H4        -8.9340   -7.0660    4.4360 H     222  BTN222      0.0528
@<TRIPOS>BOND
     1     2     1    2
     2     1     3    1
     3    20     5    1
     4    24     7    1
     5    25     9    1
     6     3    17    1
     7     3    16    1
     8     3     4    1
     9    19     4    1
    10     5    21    1
    11     5     4    1
    12     5     6    1
    13     7     8    1
    14     7     6    1
    15     7    15    1
    16     4    18    1
    17     9     8    1
    18     9    26    1
    19     9    10    1
    20    30    15    1
    21    27    10    1
    22     6    23    1
    23     6    22    1
    24    15    10    1
    25    15    14    1
    26    10    11    1
    27    14    29    1
    28    14    12   am
    29    11    28    1
    30    11    12   am
    31    12    13    2
