@<TRIPOS>MOLECULE
2bdy_UNB_A_1.pdb
 36 39 0 0 0
SMALL
GASTEIGER

@<TRIPOS>ATOM
      1  C1        20.7730  -15.7630   25.1970 C.ar  401  UNB401      0.0189
      2  C2        19.7560  -14.7970   25.2590 C.ar  401  UNB401      0.1270
      3  C3        22.0820  -15.3890   25.5670 C.ar  401  UNB401      0.0013
      4  C4        20.4800  -17.0900   24.7620 C.ar  401  UNB401      0.0013
      5  S5        18.1500  -15.2810   24.7380 S.O2  401  UNB401      0.0929
      6  C6        20.0510  -13.5120   25.6510 C.ar  401  UNB401      0.0202
      7  C7        22.3460  -14.0680   25.9880 C.ar  401  UNB401      0.0001
      8  C8        23.0970  -16.3770   25.5030 C.ar  401  UNB401      0.0000
      9  C9        21.4850  -18.0050   24.7050 C.ar  401  UNB401      0.0000
     10  N10       18.2180  -15.5590   23.1080 N.pl3 401  UNB401     -0.0933
     11  O11       17.7240  -16.5010   25.3350 O.2   401  UNB401     -0.1483
     12  O12       17.3620  -14.0810   24.8500 O.2   401  UNB401     -0.1483
     13  C13       21.3500  -13.1390   26.0200 C.ar  401  UNB401      0.0014
     14  C14       22.7840  -17.6480   25.0760 C.ar  401  UNB401      0.0000
     15  C15       18.9290  -14.6790   22.2620 C.ar  401  UNB401      0.1294
     16  C16       18.3360  -13.4950   21.8220 C.ar  401  UNB401      0.2084
     17  C17       20.2390  -14.9730   21.8500 C.ar  401  UNB401      0.0210
     18  C18       19.0350  -12.6410   20.9820 C.ar  401  UNB401      0.0234
     19  O19       17.0700  -13.1930   22.2140 O.3   401  UNB401     -0.2855
     20  C20       20.9530  -14.1300   21.0190 C.ar  401  UNB401     -0.0030
     21  C21       20.3370  -12.9520   20.5700 C.ar  401  UNB401     -0.0222
     22  C22       18.3560  -11.3540   20.5110 C.3   401  UNB401      0.1160
     23  C23       21.1040  -12.0310   19.6640 C.3   401  UNB401      0.0308
     24  C24       17.0430  -11.6320   19.8090 C.2   401  UNB401      0.2462
     25  N25       16.0100  -10.8010   20.0620 N.am  401  UNB401     -0.2003
     26  O26       16.9330  -12.5650   19.0390 O.2   401  UNB401     -0.2730
     27  C27       14.6970  -10.9980   19.4510 C.3   401  UNB401      0.1415
     28  C28       13.7410  -10.8880   20.5970 C.ar  401  UNB401     -0.0006
     29  C29       13.2000   -9.6630   20.9560 C.ar  401  UNB401     -0.0023
     30  C30       13.4110  -12.0140   21.3230 C.ar  401  UNB401     -0.0023
     31  C31       12.3390   -9.5790   22.0380 C.ar  401  UNB401      0.0077
     32  C32       12.5430  -11.9540   22.3940 C.ar  401  UNB401      0.0077
     33  C33       11.9680  -10.7180   22.7430 C.ar  401  UNB401      0.0975
     34  C34       11.0290  -10.6170   23.8790 C.2   401  UNB401      0.4766
     35  N35       10.3170  -11.7390   24.2800 N.pl3 401  UNB401      0.2047
     36  N36       10.8500   -9.4770   24.4980 N.pl3 401  UNB401      0.2047
@<TRIPOS>BOND
     1    26    24    2
     2    27    25    1
     3    27    28    1
     4    23    21    1
     5    24    25   am
     6    24    22    1
     7    22    18    1
     8    21    18   ar
     9    21    20   ar
    10    28    29   ar
    11    28    30   ar
    12    29    31   ar
    13    18    16   ar
    14    20    17   ar
    15    30    32   ar
    16    16    19    1
    17    16    15   ar
    18    17    15   ar
    19    31    33   ar
    20    15    10    1
    21    32    33   ar
    22    33    34    1
    23    10     5    1
    24    34    35    2
    25    34    36    1
    26     9     4   ar
    27     9    14   ar
    28     5    12    2
    29     5     2    1
    30     5    11    2
    31     4     1   ar
    32    14     8   ar
    33     1     2   ar
    34     1     3   ar
    35     2     6   ar
    36     8     3   ar
    37     3     7   ar
    38     6    13   ar
    39     7    13   ar
