@<TRIPOS>MOLECULE
2bdz_E64_A_1.pdb
 25 24 0 0 0
SMALL
GASTEIGER

@<TRIPOS>ATOM
      1  C1        26.1490   30.1150   34.0360 C.2   501  E64501      0.3680
      2  O1        25.5830   29.0350   34.2550 O.co2 501  E64501     -0.2455
      3  O2        25.5230   31.1940   33.9070 O.co2 501  E64501     -0.2455
      4  C2        27.6640   30.1350   33.8720 C.3   501  E64501      0.1564
      5  C3        28.4280   29.3030   34.9000 C.3   501  E64501      0.2403
      6  O3        28.5980   30.1410   36.0210 O.3   501  E64501     -0.2126
      7  C4        29.7890   28.8660   34.3710 C.2   501  E64501      0.2728
      8  O4        30.0910   27.6820   34.3070 O.2   501  E64501     -0.2706
      9  N1        30.6190   29.8210   33.9610 N.am  501  E64501     -0.1956
     10  C6        32.0010   29.5900   33.5370 C.3   501  E64501      0.1728
     11  C7        32.3800   30.6280   32.4620 C.3   501  E64501      0.0311
     12  C8        33.7910   30.4700   31.8820 C.3   501  E64501      0.0022
     13  C9        33.9530   29.1660   31.0830 C.3   501  E64501      0.0001
     14  C10       34.1740   31.7110   31.0560 C.3   501  E64501      0.0001
     15  C11       32.9120   29.6550   34.7260 C.2   501  E64501      0.2612
     16  O5        32.8800   30.6390   35.4620 O.2   501  E64501     -0.2715
     17  N2        33.7160   28.5930   34.9330 N.am  501  E64501     -0.2040
     18  C12       34.7890   28.5940   35.9200 C.3   501  E64501      0.1153
     19  C13       34.3850   27.9080   37.2230 C.3   501  E64501      0.0271
     20  C14       33.0460   28.4380   37.7720 C.3   501  E64501      0.0487
     21  C15       33.2520   29.5170   38.8360 C.3   501  E64501      0.2205
     22  N3        34.1380   29.0760   39.9110 N.pl3 501  E64501     -0.0865
     23  C16       33.6700   28.5730   41.0580 C.cat 501  E64501      0.5346
     24  N4        34.4020   28.6500   42.1590 N.pl3 501  E64501      0.1354
     25  N5        32.4730   28.0000   41.1170 N.pl3 501  E64501      0.1354
@<TRIPOS>BOND
     1    14    12    1
     2    13    12    1
     3    12    11    1
     4    11    10    1
     5    10     9    1
     6    10    15    1
     7     4     1    1
     8     4     5    1
     9     3     1   ar
    10     9     7   am
    11     1     2   ar
    12     8     7    2
    13     7     5    1
    14    15    17   am
    15    15    16    2
    16     5     6    1
    17    17    18    1
    18    18    19    1
    19    19    20    1
    20    20    21    1
    21    21    22    1
    22    22    23    2
    23    23    25    1
    24    23    24    1
