@<TRIPOS>MOLECULE
2be2_R22_A_1.pdb
 26 28 0 0 0
SMALL
GASTEIGER

@<TRIPOS>ATOM
      1  C1'       50.0430  -24.8530   26.3340 C.ar  4002  R224002     0.1443
      2  C2'       49.3600  -25.1490   25.1100 C.ar  4002  R224002     0.0332
      3  C3'       49.4690  -24.2870   23.9850 C.ar  4002  R224002    -0.0191
      4  C4'       50.2670  -23.1040   24.0700 C.ar  4002  R224002    -0.0083
      5  C5'       50.9590  -22.7960   25.2790 C.ar  4002  R224002    -0.0191
      6  C6'       50.8530  -23.6580   26.3950 C.ar  4002  R224002     0.0332
      7  O7'       49.8920  -25.7870   27.3890 O.3   4002  R224002    -0.4561
      8  C8'       48.7290  -24.6270   22.7140 C.3   4002  R224002     0.0311
      9  C9'       51.7990  -21.5620   25.3650 C.3   4002  R224002     0.0311
     10  N1        52.8340  -25.8690   30.3150 N.2   4002  R224002    -0.3401
     11  C2        51.6990  -25.1870   30.6560 C.1   4002  R224002     0.1963
     12  C3        50.6190  -25.1700   29.6130 C.3   4002  R224002     0.2261
     13  C4        50.8530  -25.8090   28.4020 C.2   4002  R224002     0.1479
     14  C5        52.0430  -26.4910   28.1310 C.2   4002  R224002     0.0472
     15  C6        53.0060  -26.5300   29.0760 C.2   4002  R224002     0.1216
     16  C7        54.3560  -27.2340   28.9890 C.3   4002  R224002     0.0672
     17  O8        51.6780  -24.6730   31.7770 O.2   4002  R224002    -0.2130
     18  I9        48.8480  -24.2680   30.0000 I     4002  R224002    -0.0476
     19  C10       52.3150  -27.2160   26.8530 C.3   4002  R224002     0.0893
     20  S11       50.9560  -27.8230   25.7860 S.3   4002  R224002    -0.1271
     21  C12       51.3110  -29.5310   25.4540 C.3   4002  R224002     0.1221
     22  C13       51.1490  -30.3590   26.6820 C.ar  4002  R224002     0.1339
     23  O14       50.6650  -31.5950   26.4330 O.2   4002  R224002    -0.4538
     24  C15       50.5870  -32.2040   27.6500 C.ar  4002  R224002     0.1792
     25  C16       51.0170  -31.3780   28.6480 C.ar  4002  R224002     0.0435
     26  C17       51.3830  -30.1690   28.0130 C.ar  4002  R224002     0.0371
@<TRIPOS>BOND
     1     8     3    1
     2     3     4   ar
     3     3     2   ar
     4     4     5   ar
     5     2     1   ar
     6     5     9    1
     7     5     6   ar
     8    21    20    1
     9    21    22    1
    10    20    19    1
    11     1     6   ar
    12     1     7    1
    13    23    22   ar
    14    23    24   ar
    15    22    26   ar
    16    19    14    1
    17     7    13    1
    18    24    25   ar
    19    26    25   ar
    20    14    13    2
    21    14    15    1
    22    13    12    1
    23    16    15    1
    24    15    10    2
    25    12    18    1
    26    12    11    1
    27    10    11    2
    28    11    17    2
