@<TRIPOS>MOLECULE
2be5_TGT_D_1.pdb
 26 27 0 0 0
SMALL
GASTEIGER

@<TRIPOS>ATOM
      1  C1       -17.5930  162.9880    6.7380 C.3   9001  TGT9001     0.1833
      2  C2       -16.5470  162.0770    7.5510 C.3   9001  TGT9001     0.1648
      3  C3       -17.0470  161.8370    9.0750 C.3   9001  TGT9001     0.2194
      4  C4       -17.3530  163.2730    9.8020 C.3   9001  TGT9001     0.2031
      5  C5       -18.7960  163.4640   10.4200 C.3   9001  TGT9001     0.2643
      6  C6       -19.4040  164.7320    7.9250 C.3   9001  TGT9001     0.1011
      7  C7       -17.9090  164.3980    7.5410 C.3   9001  TGT9001     0.2223
      8  C8       -19.1190  162.4270   11.4600 C.2   9001  TGT9001     0.3006
      9  C9       -17.3760  165.6010    6.6710 C.2   9001  TGT9001     0.3918
     10  C10      -16.0930  160.0460   10.6040 C.2   9001  TGT9001     0.3176
     11  C11      -16.1060  160.2430   12.1040 C.3   9001  TGT9001     0.1212
     12  O1       -17.1460  164.4110    8.8250 O.3   9001  TGT9001    -0.3394
     13  O2       -18.8370  164.7100   11.0320 O.3   9001  TGT9001    -0.2023
     14  O3       -19.7470  161.3110   11.1250 O.2   9001  TGT9001    -0.2679
     15  O4       -17.8310  165.7750    5.3940 O.co2 9001  TGT9001    -0.2429
     16  O5       -16.4500  166.4900    7.1670 O.co2 9001  TGT9001    -0.2429
     17  O6       -18.8510  162.2450    6.4890 O.3   9001  TGT9001    -0.2681
     18  O7       -20.6350  161.0860    4.9120 O.3   9001  TGT9001    -0.1145
     19  O8       -19.2250  163.1920    4.0160 O.2   9001  TGT9001    -0.2224
     20  O9       -21.1640  163.4410    5.6670 O.3   9001  TGT9001    -0.1145
     21  O10      -15.9550  161.0480    9.7080 O.3   9001  TGT9001    -0.4480
     22  O11      -16.2790  158.5890   10.0970 O.2   9001  TGT9001    -0.2501
     23  N1       -18.7590  162.6080   12.8110 N.am  9001  TGT9001    -0.0848
     24  N2       -15.1930  162.7840    7.5550 N.3   9001  TGT9001    -0.1263
     25  P1       -19.9410  162.5370    5.3770 P.3   9001  TGT9001     0.5327
     26  S1       -20.1180  163.4960    9.0990 S.3   9001  TGT9001    -0.0977
@<TRIPOS>BOND
     1    19    25    2
     2    18    25    1
     3    25    20    1
     4    25    17    1
     5    15     9   ar
     6    17     1    1
     7     9    16   ar
     8     9     7    1
     9     1     7    1
    10     1     2    1
    11     7     6    1
    12     7    12    1
    13     2    24    1
    14     2     3    1
    15     6    26    1
    16    12     4    1
    17     3    21    1
    18     3     4    1
    19    26     5    1
    20    21    10    1
    21     4     5    1
    22    22    10    2
    23     5    13    1
    24     5     8    1
    25    10    11    1
    26    14     8    2
    27     8    23   am
