@<TRIPOS>MOLECULE
2be9_CTP_B_1.pdb
 29 30 0 0 0
SMALL
GASTEIGER

@<TRIPOS>ATOM
      1  N1       125.3240   65.0930   43.4260 N.am  401  CTP401     -0.2009
      2  C2       124.5090   66.2140   43.4030 C.1   401  CTP401      0.2713
      3  N3       124.7080   67.2340   44.3190 N.2   401  CTP401     -0.3072
      4  C4       125.7540   67.1560   45.2180 C.2   401  CTP401      0.2123
      5  C5       126.5570   66.0200   45.2550 C.3   401  CTP401      0.1014
      6  C6       126.4230   65.0760   44.2440 C.3   401  CTP401      0.1151
      7  O2       123.6100   66.3200   42.5720 O.2   401  CTP401     -0.1929
      8  N4       125.9880   68.1670   46.0400 N.pl3 401  CTP401     -0.0969
      9  C1'      124.9830   63.9350   42.5660 C.3   401  CTP401      0.2360
     10  C2'      126.0950   63.6250   41.5710 C.3   401  CTP401      0.2316
     11  O2'      125.7320   64.1020   40.3000 O.3   401  CTP401     -0.2157
     12  C3'      126.2080   62.1100   41.6250 C.3   401  CTP401      0.2158
     13  C4'      125.7330   61.7760   43.0230 C.3   401  CTP401      0.1799
     14  O4'      124.7560   62.7460   43.3210 O.3   401  CTP401     -0.3322
     15  O3'      125.3280   61.5130   40.6950 O.3   401  CTP401     -0.2175
     16  C5'      126.8100   62.0650   44.0450 C.3   401  CTP401      0.1813
     17  O5'      127.6570   60.9760   44.2600 O.3   401  CTP401     -0.3112
     18  PA       129.1820   61.3580   44.5360 P.3   401  CTP401      0.2189
     19  O1A      129.2970   62.8610   44.6610 O.2   401  CTP401     -0.5170
     20  O2A      129.7210   60.6340   45.7470 O.3   401  CTP401     -0.4371
     21  O3A      129.8510   60.9240   43.1450 O.3   401  CTP401     -0.2700
     22  PB       130.2610   59.3890   42.9140 P.3   401  CTP401      0.2277
     23  O1B      131.3130   59.0300   43.9430 O.3   401  CTP401     -0.4368
     24  O2B      130.7380   59.1580   41.4950 O.2   401  CTP401     -0.5168
     25  O3B      128.9180   58.5310   43.2020 O.3   401  CTP401     -0.2258
     26  PG       128.8560   56.9150   43.0940 P.3   401  CTP401      0.5373
     27  O1G      130.1540   56.3380   43.6220 O.3   401  CTP401     -0.1143
     28  O2G      128.6690   56.4990   41.6490 O.2   401  CTP401     -0.2221
     29  O3G      127.7260   56.3940   43.9640 O.3   401  CTP401     -0.1143
@<TRIPOS>BOND
     1    11    10    1
     2    15    12    1
     3    24    22    2
     4    10    12    1
     5    10     9    1
     6    12    13    1
     7    28    26    2
     8     9    14    1
     9     9     1    1
    10     7     2    2
    11    22    21    1
    12    22    25    1
    13    22    23    1
    14    13    14    1
    15    13    16    1
    16    26    25    1
    17    26    27    1
    18    26    29    1
    19    21    18    1
    20     2     1   am
    21     2     3    2
    22     1     6    1
    23    16    17    1
    24     6     5    1
    25    17    18    1
    26     3     4    2
    27    18    19    2
    28    18    20    1
    29     4     5    1
    30     4     8    1
