@<TRIPOS>MOLECULE
2bed_736_B_1.pdb
 32 36 0 0 0
SMALL
GASTEIGER

@<TRIPOS>ATOM
      1  C1       185.9370  127.8630   31.8270 C.ar  2001  7362001     0.0985
      2  N2       186.8300  128.8640   31.6440 N.ar  2001  7362001    -0.2478
      3  C3       188.1260  128.7740   32.0570 C.ar  2001  7362001     0.0627
      4  C4       188.6020  127.5960   32.7160 C.ar  2001  7362001     0.0151
      5  C5       187.6780  126.5400   32.9080 C.ar  2001  7362001     0.0028
      6  C6       186.3340  126.6630   32.4680 C.ar  2001  7362001     0.0207
      7  C9       189.0210  129.9510   31.7940 C.3   2001  7362001     0.0626
      8  C10      190.2490  129.6520   30.9710 C.ar  2001  7362001    -0.0157
      9  C11      191.2500  128.6940   31.3930 C.ar  2001  7362001     0.0106
     10  C12      191.1640  127.9720   32.7110 C.2   2001  7362001     0.0477
     11  C13      190.0000  127.4620   33.2390 C.2   2001  7362001     0.0157
     12  C18      190.4210  130.3520   29.7390 C.ar  2001  7362001    -0.0030
     13  C19      191.5670  130.1200   28.9280 C.ar  2001  7362001     0.0111
     14  C20      192.5560  129.1840   29.3450 C.ar  2001  7362001     0.0577
     15  C21      192.3910  128.4680   30.5630 C.ar  2001  7362001     0.0123
     16  C24      189.3540  130.7120   33.1190 C.3   2001  7362001     0.0125
     17  C25      190.2730  131.9090   32.8760 C.3   2001  7362001     0.0199
     18  C26      190.4450  132.7760   34.1040 C.3   2001  7362001     0.0954
     19  N27      189.1180  133.1940   34.5830 N.3   2001  7362001    -0.1594
     20  C28      188.3360  132.0350   35.0310 C.3   2001  7362001     0.0954
     21  C29      188.0760  131.1290   33.8480 C.3   2001  7362001     0.0199
     22 CL40      193.9760  128.9400   28.3890 Cl    2001  7362001    -0.0822
     23  S1       188.9180  134.7300   35.3610 S.O2  2001  7362001     0.0457
     24  N1       192.4340  127.7980   33.4510 N.pl3 2001  7362001    -0.3046
     25  C2       192.9810  129.0700   33.9340 C.3   2001  7362001     0.1096
     26  C7       192.4000  126.8280   34.5540 C.3   2001  7362001     0.1096
     27  C8       194.4120  128.8420   34.3890 C.3   2001  7362001     0.1101
     28  C14      193.8200  126.5750   35.0230 C.3   2001  7362001     0.1101
     29  N3       194.4340  127.8390   35.4650 N.3   2001  7362001    -0.2144
     30  O1       187.5460  134.7480   35.7770 O.2   2001  7362001    -0.1572
     31  C15      189.1910  136.0080   34.1470 C.3   2001  7362001     0.1960
     32  O2       189.9580  134.7710   36.3450 O.2   2001  7362001    -0.1572
@<TRIPOS>BOND
     1    22    14    1
     2    13    14   ar
     3    13    12   ar
     4    14    15   ar
     5    12     8   ar
     6    15     9   ar
     7     8     9   ar
     8     8     7    1
     9     9    10    1
    10     2     1   ar
    11     2     3   ar
    12     7     3    1
    13     7    16    1
    14     1     6   ar
    15     3     4   ar
    16     6     5   ar
    17    10    11    2
    18    10    24    1
    19     4     5   ar
    20     4    11    1
    21    17    16    1
    22    17    18    1
    23    16    21    1
    24    24    25    1
    25    24    26    1
    26    21    20    1
    27    25    27    1
    28    18    19    1
    29    31    23    1
    30    27    29    1
    31    26    28    1
    32    19    20    1
    33    19    23    1
    34    28    29    1
    35    23    30    2
    36    23    32    2
