@<TRIPOS>MOLECULE
2bed_FPP_B_1.pdb
 24 23 0 0 0
SMALL
GASTEIGER

@<TRIPOS>ATOM
      1  C1       197.1110  125.3650   31.5440 C.3   1001  FPP1001     0.1491
      2  O1       196.9590  126.6500   32.2320 O.3   1001  FPP1001    -0.3138
      3  C2       195.7920  124.6300   31.5220 C.3   1001  FPP1001     0.0325
      4  C3       194.9740  124.6220   30.4530 C.3   1001  FPP1001     0.0025
      5  C4       195.5330  124.5550   29.0520 C.3   1001  FPP1001     0.0001
      6  C5       193.4660  124.6860   30.6210 C.3   1001  FPP1001     0.0001
      7  C6       192.9780  123.5360   31.5070 C.3   1001  FPP1001     0.0000
      8  C7       191.4750  123.3990   31.3760 C.3   1001  FPP1001     0.0000
      9  C8       190.6990  123.0530   32.4140 C.3   1001  FPP1001     0.0003
     10  C10      191.0040  123.5640   33.7980 C.3   1001  FPP1001     0.0000
     11  C9       189.5170  122.1350   32.2170 C.3   1001  FPP1001     0.0046
     12  C11      188.2440  122.9370   32.1390 C.3   1001  FPP1001     0.0254
     13  C12      187.0760  121.9980   32.0120 C.2   1001  FPP1001    -0.0346
     14  C13      186.0090  122.2750   31.2480 C.2   1001  FPP1001    -0.0478
     15  C14      184.7540  121.4520   31.3810 C.3   1001  FPP1001     0.0260
     16  C15      186.0520  123.4090   30.2560 C.3   1001  FPP1001     0.0260
     17  PA       198.1310  127.1620   33.1310 P.3   1001  FPP1001     0.2230
     18  O1A      198.1850  128.6550   33.2020 O.3   1001  FPP1001    -0.4370
     19  O2A      199.4190  126.5530   32.5070 O.2   1001  FPP1001    -0.5169
     20  O3A      197.9890  126.5010   34.5450 O.3   1001  FPP1001    -0.2261
     21  PB       198.8110  125.3810   35.2710 P.3   1001  FPP1001     0.5373
     22  O1B      198.2100  124.9950   36.5920 O.3   1001  FPP1001    -0.1143
     23  O2B      198.8420  124.2020   34.2510 O.2   1001  FPP1001    -0.2221
     24  O3B      200.2400  125.9710   35.4200 O.3   1001  FPP1001    -0.1143
@<TRIPOS>BOND
     1     5     4    1
     2    16    14    1
     3     4     6    1
     4     4     3    1
     5     6     7    1
     6    14    15    1
     7    14    13    2
     8     8     7    1
     9     8     9    1
    10     3     1    1
    11     1     2    1
    12    13    12    1
    13    12    11    1
    14    11     9    1
    15     2    17    1
    16     9    10    1
    17    19    17    2
    18    17    18    1
    19    17    20    1
    20    23    21    2
    21    20    21    1
    22    21    24    1
    23    21    22    1
