@<TRIPOS>MOLECULE
2bef_ADP_A_1.pdb
 27 29 0 0 0
SMALL
GASTEIGER

@<TRIPOS>ATOM
      1  PB        43.8910  -10.4260   76.3730 P.3   158  ADP158      0.5373
      2  O1B       45.2900  -10.4340   76.9200 O.3   158  ADP158     -0.1143
      3  O2B       43.3820   -9.1070   76.1180 O.3   158  ADP158     -0.1143
      4  O3B       43.5910  -11.4410   75.3180 O.2   158  ADP158     -0.2221
      5  PA        43.1600  -11.9490   78.8640 P.3   158  ADP158      0.2231
      6  O1A       44.5880  -12.3500   78.9120 O.2   158  ADP158     -0.5169
      7  O2A       42.5020  -11.3010   80.0120 O.3   158  ADP158     -0.4370
      8  O3A       42.9690  -10.9340   77.6110 O.3   158  ADP158     -0.2261
      9  O5'       42.2940  -13.2130   78.4590 O.3   158  ADP158     -0.3111
     10  C5'       42.5900  -14.1080   77.3920 C.3   158  ADP158      0.1813
     11  C4'       41.4480  -14.4470   76.4910 C.3   158  ADP158      0.1821
     12  O4'       40.4940  -14.9570   77.3010 O.3   158  ADP158     -0.3135
     13  C3'       40.6820  -13.2650   75.9880 C.3   158  ADP158      0.2184
     14  O3'       41.3700  -12.8560   74.8490 O.3   158  ADP158     -0.2174
     15  C2'       39.3200  -13.7470   75.5930 C.3   158  ADP158      0.2570
     16  O2'       39.3900  -14.5920   74.4530 O.3   158  ADP158     -0.2130
     17  C1'       39.1500  -14.5810   76.8280 C.3   158  ADP158      0.3186
     18  N9        38.4970  -13.7950   77.8570 N.pl3 158  ADP158     -0.1439
     19  C8        39.0000  -12.8620   78.7560 C.3   158  ADP158      0.3377
     20  N7        38.1290  -12.5120   79.6850 N.2   158  ADP158     -0.2095
     21  C5        36.9860  -13.2110   79.3530 C.2   158  ADP158      0.2526
     22  C6        35.7090  -13.2740   79.9650 C.2   158  ADP158      0.4393
     23  N6        35.4000  -12.6480   81.1200 N.pl3 158  ADP158      0.2180
     24  N1        34.8170  -14.1360   79.4250 N.2   158  ADP158      0.0021
     25  C2        35.1660  -14.8740   78.3290 C.3   158  ADP158      0.5254
     26  N3        36.3290  -14.9130   77.6500 N.2   158  ADP158     -0.0055
     27  C4        37.2160  -14.0410   78.2690 C.2   158  ADP158      0.3518
@<TRIPOS>BOND
     1    16    15    1
     2    14    13    1
     3     4     1    2
     4    15    13    1
     5    15    17    1
     6    13    11    1
     7     3     1    1
     8     1     2    1
     9     1     8    1
    10    11    12    1
    11    11    10    1
    12    17    12    1
    13    17    18    1
    14    10     9    1
    15     8     5    1
    16    26    27    2
    17    26    25    1
    18    18    27    1
    19    18    19    1
    20    27    21    1
    21    25    24    1
    22     9     5    1
    23    19    20    1
    24     5     6    2
    25     5     7    1
    26    21    20    2
    27    21    22    1
    28    24    22    2
    29    22    23    1
