@<TRIPOS>MOLECULE
2bej_ADP_A_1.pdb
 27 29 0 0 0
SMALL
GASTEIGER

@<TRIPOS>ATOM
      1  PB         6.4450   26.5550   37.5070 P.3   500  ADP500      0.5373
      2  O1B        6.1840   25.8900   36.1860 O.2   500  ADP500     -0.2221
      3  O2B        7.8260   26.3150   38.0670 O.3   500  ADP500     -0.1143
      4  O3B        5.3480   26.3060   38.5130 O.3   500  ADP500     -0.1143
      5  PA         5.7570   28.8540   35.9160 P.3   500  ADP500      0.2231
      6  O1A        4.4860   28.1580   35.4890 O.3   500  ADP500     -0.4370
      7  O2A        6.8310   28.9810   34.8670 O.2   500  ADP500     -0.5169
      8  O3A        6.3750   28.1440   37.2370 O.3   500  ADP500     -0.2261
      9  O5'        5.4470   30.3060   36.4780 O.3   500  ADP500     -0.3111
     10  C5'        4.4460   30.5510   37.4660 C.3   500  ADP500      0.1813
     11  C4'        3.8340   31.9140   37.1590 C.3   500  ADP500      0.1821
     12  O4'        4.8440   32.9330   37.2380 O.3   500  ADP500     -0.3135
     13  C3'        3.2930   31.9420   35.7390 C.3   500  ADP500      0.2184
     14  O3'        2.0990   32.7330   35.6970 O.3   500  ADP500     -0.2174
     15  C2'        4.3570   32.6650   34.9470 C.3   500  ADP500      0.2570
     16  O2'        3.7880   33.3510   33.8310 O.3   500  ADP500     -0.2130
     17  C1'        4.9890   33.5970   35.9710 C.3   500  ADP500      0.3186
     18  N9         6.4150   33.8560   35.6300 N.pl3 500  ADP500     -0.1439
     19  C8         7.3690   32.9320   35.3810 C.3   500  ADP500      0.3377
     20  N7         8.5580   33.5190   35.0930 N.2   500  ADP500     -0.2095
     21  C5         8.3750   34.8490   35.1600 C.2   500  ADP500      0.2526
     22  C6         9.2150   36.0610   34.9830 C.2   500  ADP500      0.4393
     23  N6        10.5280   35.9670   34.6630 N.pl3 500  ADP500      0.2180
     24  N1         8.6280   37.2680   35.1460 N.2   500  ADP500      0.0021
     25  C2         7.3240   37.3920   35.4720 C.3   500  ADP500      0.5254
     26  N3         6.5050   36.3380   35.6530 N.2   500  ADP500     -0.0055
     27  C4         6.9620   35.0640   35.5190 C.2   500  ADP500      0.3518
@<TRIPOS>BOND
     1    16    15    1
     2    23    22    1
     3     7     5    2
     4    15    13    1
     5    15    17    1
     6    22    24    2
     7    22    21    1
     8    20    21    2
     9    20    19    1
    10    24    25    1
    11    21    27    1
    12    19    18    1
    13    25    26    1
    14     6     5    1
    15    27    18    1
    16    27    26    2
    17    18    17    1
    18    14    13    1
    19    13    11    1
    20     5     9    1
    21     5     8    1
    22    17    12    1
    23     2     1    2
    24     9    10    1
    25    11    12    1
    26    11    10    1
    27     8     1    1
    28     1     3    1
    29     1     4    1
