@<TRIPOS>MOLECULE
2bek_ATP_A_1.pdb
 31 33 0 0 0
SMALL
GASTEIGER

@<TRIPOS>ATOM
      1  PG        33.3420   21.4520   42.4230 P.3   500  ATP500      0.5373
      2  O1G       33.2090   20.0520   42.8950 O.3   500  ATP500     -0.1143
      3  O2G       33.9860   22.3680   43.3790 O.3   500  ATP500     -0.1143
      4  O3G       33.9710   21.4940   41.0610 O.2   500  ATP500     -0.2221
      5  PB        31.4880   23.3460   41.3370 P.3   500  ATP500      0.2277
      6  O1B       31.1520   24.5490   42.1180 O.3   500  ATP500     -0.4368
      7  O2B       31.2200   22.9450   39.9640 O.2   500  ATP500     -0.5168
      8  O3B       31.8370   22.0660   42.2790 O.3   500  ATP500     -0.2258
      9  PA        28.7450   22.1960   40.9620 P.3   500  ATP500      0.2189
     10  O1A       28.3890   22.8200   39.6820 O.2   500  ATP500     -0.5170
     11  O2A       29.0910   20.7520   40.9830 O.3   500  ATP500     -0.4371
     12  O3A       29.9500   23.0590   41.6430 O.3   500  ATP500     -0.2700
     13  O5'       27.5440   22.4710   41.9460 O.3   500  ATP500     -0.3112
     14  C5'       27.3840   21.7920   43.2220 C.3   500  ATP500      0.1813
     15  C4'       26.1500   20.9060   43.2300 C.3   500  ATP500      0.1821
     16  O4'       24.9930   21.7790   43.2560 O.3   500  ATP500     -0.3135
     17  C3'       25.9740   19.9980   42.0160 C.3   500  ATP500      0.2184
     18  O3'       25.4060   18.7770   42.5170 O.3   500  ATP500     -0.2174
     19  C2'       25.0400   20.7830   41.1460 C.3   500  ATP500      0.2570
     20  O2'       24.2400   19.9520   40.3030 O.3   500  ATP500     -0.2130
     21  C1'       24.1430   21.5630   42.1230 C.3   500  ATP500      0.3186
     22  N9        23.7190   22.8990   41.6490 N.pl3 500  ATP500     -0.1439
     23  C8        24.4390   23.8620   40.9810 C.3   500  ATP500      0.3377
     24  N7        23.8710   25.0290   40.9410 N.2   500  ATP500     -0.2095
     25  C5        22.6160   24.7640   41.4520 C.2   500  ATP500      0.2526
     26  C6        21.4700   25.5800   41.6520 C.2   500  ATP500      0.4393
     27  N6        21.5110   26.8780   41.3920 N.pl3 500  ATP500      0.2180
     28  N1        20.3270   25.0040   42.1200 N.2   500  ATP500      0.0021
     29  C2        20.3490   23.7160   42.4950 C.3   500  ATP500      0.5254
     30  N3        21.3650   22.8340   42.3580 N.2   500  ATP500     -0.0055
     31  C4        22.4930   23.4500   41.8440 C.2   500  ATP500      0.3518
@<TRIPOS>BOND
     1    10     9    2
     2     7     5    2
     3    20    19    1
     4    24    23    1
     5    24    25    2
     6     9    11    1
     7     9    12    1
     8     9    13    1
     9    23    22    1
    10     4     1    2
    11    19    17    1
    12    19    21    1
    13     5    12    1
    14     5     6    1
    15     5     8    1
    16    27    26    1
    17    25    26    1
    18    25    31    1
    19    22    31    1
    20    22    21    1
    21    26    28    2
    22    31    30    2
    23    13    14    1
    24    17    18    1
    25    17    15    1
    26    28    29    1
    27    21    16    1
    28     8     1    1
    29    30    29    1
    30     1     2    1
    31     1     3    1
    32    14    15    1
    33    15    16    1
