@<TRIPOS>MOLECULE
2bel_CBO_A_1.pdb
 41 45 0 0 0
SMALL
GASTEIGER

@<TRIPOS>ATOM
      1  C1         7.3040   24.6540   16.5020 C.3   1270  CBO1270     0.0041
      2  C2         7.8080   26.0520   16.8060 C.3   1270  CBO1270     0.0436
      3  C3         9.1200   26.0090   17.5620 C.3   1270  CBO1270     0.1686
      4  C4        10.2310   25.2620   16.8180 C.3   1270  CBO1270     0.0369
      5  C5         9.6950   23.8570   16.4990 C.3   1270  CBO1270     0.0038
      6  C6        10.7480   22.9110   15.8860 C.3   1270  CBO1270     0.0001
      7  C7        10.2710   21.4770   16.1110 C.3   1270  CBO1270     0.0007
      8  C8         8.8580   21.1690   15.5470 C.3   1270  CBO1270     0.0100
      9  C9         7.8570   22.2970   15.9100 C.3   1270  CBO1270     0.0622
     10  C10        8.3370   23.7780   15.7750 C.3   1270  CBO1270     0.0071
     11  C11        6.5260   22.0150   15.2560 C.2   1270  CBO1270     0.1721
     12  C12        6.0760   20.6040   15.1670 C.2   1270  CBO1270     0.0289
     13  C13        6.8660   19.5820   15.5100 C.2   1270  CBO1270    -0.0423
     14  C14        8.2750   19.8250   16.0870 C.3   1270  CBO1270     0.0156
     15  C15        9.2400   18.6440   15.7970 C.3   1270  CBO1270     0.0038
     16  C16        8.5690   17.2640   15.8030 C.3   1270  CBO1270     0.0006
     17  C17        7.3060   17.1460   14.9140 C.3   1270  CBO1270     0.0035
     18  C18        6.2750   18.1950   15.3510 C.3   1270  CBO1270     0.0189
     19  C19        8.3700   24.2310   14.3060 C.3   1270  CBO1270     0.0004
     20  C20        5.5560   17.8130   16.6720 C.3   1270  CBO1270     0.0147
     21  C21        4.9430   16.4050   16.6700 C.3   1270  CBO1270     0.0941
     22  C22        6.0570   15.3930   16.3390 C.3   1270  CBO1270     0.0107
     23  C23        6.7920   15.6970   15.0290 C.3   1270  CBO1270     0.0008
     24  C24       10.7650   26.0570   15.6070 C.3   1270  CBO1270     0.0036
     25  C25       11.3820   25.1050   17.8350 C.3   1270  CBO1270     0.0036
     26  C26        9.0210   21.0180   14.0220 C.3   1270  CBO1270     0.0007
     27  C27        8.1010   19.8220   17.6360 C.3   1270  CBO1270     0.0041
     28  C28        7.6080   17.3280   13.4070 C.3   1270  CBO1270     0.0003
     29  C29        8.8870   28.1150   18.8280 C.2   1270  CBO1270     0.3174
     30  C30        9.5060   29.4740   19.0350 C.3   1270  CBO1270     0.1213
     31  C31       10.9250   29.4520   18.4430 C.3   1270  CBO1270     0.1257
     32  C32       11.8750   28.5880   19.2670 C.2   1270  CBO1270     0.3654
     33  C33        3.7590   16.3130   15.7230 C.2   1270  CBO1270     0.3638
     34  C34        4.3460   16.0720   18.0310 C.3   1270  CBO1270     0.0113
     35  O3         9.5660   27.3310   17.8060 O.3   1270  CBO1270    -0.4523
     36  O11        5.8220   22.9150   14.7880 O.2   1270  CBO1270    -0.2914
     37  O29        7.9100   27.7010   19.4630 O.2   1270  CBO1270    -0.2501
     38  O32       13.0950   28.6790   18.9810 O.co2 1270  CBO1270    -0.2456
     39  O33       11.4400   27.8240   20.1880 O.co2 1270  CBO1270    -0.2456
     40  O34        3.1360   17.3620   15.4680 O.co2 1270  CBO1270    -0.2457
     41  O35        3.3870   15.1940   15.2560 O.co2 1270  CBO1270    -0.2457
@<TRIPOS>BOND
     1    28    17    1
     2    26     8    1
     3    19    10    1
     4    36    11    2
     5    17    23    1
     6    17    18    1
     7    17    16    1
     8    23    22    1
     9    12    11    1
    10    12    13    2
    11    41    33   ar
    12    11     9    1
    13    18    13    1
    14    18    20    1
    15    40    33   ar
    16    13    14    1
    17     8     9    1
    18     8    14    1
    19     8     7    1
    20    24     4    1
    21    33    21    1
    22    10     9    1
    23    10     5    1
    24    10     1    1
    25    15    16    1
    26    15    14    1
    27     6     7    1
    28     6     5    1
    29    14    27    1
    30    22    21    1
    31     5     4    1
    32     1     2    1
    33    21    20    1
    34    21    34    1
    35     2     3    1
    36     4     3    1
    37     4    25    1
    38     3    35    1
    39    35    29    1
    40    31    30    1
    41    31    32    1
    42    29    30    1
    43    29    37    2
    44    38    32   ar
    45    32    39   ar
