@<TRIPOS>MOLECULE
2bel_NAP_A_1.pdb
 48 52 0 0 0
SMALL
GASTEIGER

@<TRIPOS>ATOM
      1  PA         1.0970   13.0510   20.6540 P.3   1269  NAP1269     0.2189
      2  O1A        2.1440   12.2640   19.9820 O.2   1269  NAP1269    -0.5170
      3  O2A        1.2500   13.2660   22.0970 O.3   1269  NAP1269    -0.4371
      4  O5B       -0.3190   12.3500   20.4140 O.3   1269  NAP1269    -0.3112
      5  C5B       -0.7200   11.9110   19.1320 C.3   1269  NAP1269     0.1813
      6  C4B       -2.0930   11.2210   19.2730 C.3   1269  NAP1269     0.1820
      7  O4B       -2.5140   10.6970   18.0180 O.3   1269  NAP1269    -0.3136
      8  C3B       -2.0680   10.0500   20.2600 C.3   1269  NAP1269     0.2157
      9  O3B       -3.2910    9.9260   20.9990 O.3   1269  NAP1269    -0.2175
     10  C2B       -1.9000    8.8580   19.3560 C.3   1269  NAP1269     0.2314
     11  O2B       -2.4030    7.7300   20.0050 O.3   1269  NAP1269    -0.2630
     12  C1B       -2.7210    9.2960   18.1270 C.3   1269  NAP1269     0.3158
     13  N9A       -2.3590    8.5640   16.8840 N.pl3 1269  NAP1269    -0.1439
     14  C8A       -1.0920    8.3260   16.3980 C.3   1269  NAP1269     0.3377
     15  N7A       -1.1620    7.6010   15.2540 N.2   1269  NAP1269    -0.2095
     16  C5A       -2.4730    7.3690   15.0060 C.2   1269  NAP1269     0.2526
     17  C6A       -3.0950    6.6950   13.9720 C.2   1269  NAP1269     0.4393
     18  N6A       -2.3910    6.1210   12.9910 N.pl3 1269  NAP1269     0.2180
     19  N1A       -4.4610    6.6250   13.9900 N.2   1269  NAP1269     0.0021
     20  C2A       -5.1910    7.2180   15.0040 C.3   1269  NAP1269     0.5254
     21  N3A       -4.5730    7.8940   16.0310 N.2   1269  NAP1269    -0.0055
     22  C4A       -3.2290    7.9710   16.0160 C.2   1269  NAP1269     0.3518
     23  O3         1.0000   14.4280   19.8200 O.3   1269  NAP1269    -0.2703
     24  PN         0.8170   15.9140   20.4180 P.3   1269  NAP1269     0.2189
     25  O1N        2.1870   16.4130   20.7070 O.2   1269  NAP1269    -0.5170
     26  O2N       -0.2720   15.8480   21.4310 O.3   1269  NAP1269    -0.4371
     27  O5D        0.2030   16.6810   19.1410 O.3   1269  NAP1269    -0.3112
     28  C5D       -1.2000   16.6180   18.8920 C.3   1269  NAP1269     0.1813
     29  C4D       -1.5220   17.5910   17.7590 C.3   1269  NAP1269     0.1799
     30  O4D       -0.8560   18.8090   17.9980 O.3   1269  NAP1269    -0.3327
     31  C3D       -1.0650   17.0810   16.4030 C.3   1269  NAP1269     0.2158
     32  O3D       -1.9820   17.4960   15.4040 O.3   1269  NAP1269    -0.2175
     33  C2D        0.2790   17.7420   16.2540 C.3   1269  NAP1269     0.2309
     34  O2D        0.6930   17.9830   14.9490 O.3   1269  NAP1269    -0.2158
     35  C1D       -0.0430   19.0700   16.8970 C.3   1269  NAP1269     0.2263
     36  N1N        1.1850   19.7610   17.2280 N.pl3 1269  NAP1269    -0.2787
     37  C2N        1.9260   19.4130   18.3100 C.3   1269  NAP1269     0.1244
     38  C3N        3.0830   20.1150   18.5570 C.2   1269  NAP1269     0.0544
     39  C7N        3.8570   19.8460   19.7970 C.2   1269  NAP1269     0.2818
     40  O7N        5.0340   20.5770   20.0110 O.2   1269  NAP1269    -0.2670
     41  N7N        3.3960   18.9500   20.6570 N.am  1269  NAP1269    -0.0839
     42  C4N        3.4690   21.1670   17.7520 C.2   1269  NAP1269     0.0033
     43  C5N        2.6810   21.5160   16.6710 C.2   1269  NAP1269     0.0157
     44  C6N        1.5190   20.8150   16.4270 C.2   1269  NAP1269     0.0633
     45  P2B       -2.0760    6.1970   19.6100 P.3   1269  NAP1269     0.5328
     46  O1X       -0.5890    6.0910   19.4290 O.3   1269  NAP1269    -0.1145
     47  O2X       -2.5350    5.3130   20.7570 O.3   1269  NAP1269    -0.1145
     48  O3X       -2.8630    5.8400   18.3550 O.2   1269  NAP1269    -0.2224
@<TRIPOS>BOND
     1    18    17    1
     2    17    19    2
     3    17    16    1
     4    19    20    1
     5    34    33    1
     6    20    21    1
     7    16    15    2
     8    16    22    1
     9    15    14    1
    10    32    31    1
    11    22    21    2
    12    22    13    1
    13    33    31    1
    14    33    35    1
    15    14    13    1
    16    31    29    1
    17    44    43    2
    18    44    36    1
    19    43    42    1
    20    13    12    1
    21    35    36    1
    22    35    30    1
    23    36    37    1
    24    42    38    2
    25    29    30    1
    26    29    28    1
    27     7    12    1
    28     7     6    1
    29    12    10    1
    30    37    38    1
    31    48    45    2
    32    38    39    1
    33    28    27    1
    34     5     6    1
    35     5     4    1
    36    27    24    1
    37     6     8    1
    38    10    11    1
    39    10     8    1
    40    46    45    1
    41    45    11    1
    42    45    47    1
    43    39    40    2
    44    39    41   am
    45    23    24    1
    46    23     1    1
    47     2     1    2
    48     8     9    1
    49     4     1    1
    50    24    25    2
    51    24    26    1
    52     1     3    1
