@<TRIPOS>MOLECULE
2beo_GLN_A_1.pdb
 10 9 0 0 0
SMALL
GASTEIGER

@<TRIPOS>ATOM
      1  N         37.6360   67.5400    8.0060 N.3   1240  GLN1240    -0.1208
      2  CA        37.8440   66.7440    9.2610 C.3   1240  GLN1240     0.1948
      3  C         38.3450   65.3210    8.9980 C.2   1240  GLN1240     0.3819
      4  O         38.5450   64.5410    9.9430 O.co2 1240  GLN1240    -0.2441
      5  CB        36.5630   66.6750   10.0950 C.3   1240  GLN1240     0.0403
      6  CG        36.1670   67.9810   10.7710 C.3   1240  GLN1240     0.0906
      7  CD        35.1720   67.7710   11.9190 C.2   1240  GLN1240     0.2608
      8  OE1       34.9220   66.6310   12.3540 O.2   1240  GLN1240    -0.2717
      9  NE2       34.6180   68.8740   12.4300 N.am  1240  GLN1240    -0.0878
     10  OXT       38.5530   64.9150    7.8480 O.co2 1240  GLN1240    -0.2441
@<TRIPOS>BOND
     1    10     3   ar
     2     1     2    1
     3     3     2    1
     4     3     4   ar
     5     2     5    1
     6     5     6    1
     7     6     7    1
     8     7     8    2
     9     7     9   am
