@<TRIPOS>MOLECULE
2ber_SLB_A_1.pdb
 21 21 0 0 0
SMALL
GASTEIGER

@<TRIPOS>ATOM
      1  C1        22.4920   10.2750   19.1680 C.2   1648  SLB1648     0.4179
      2  C2        23.5460   10.5970   20.1820 C.3   1648  SLB1648     0.3156
      3  C3        23.8430   12.1050   20.2670 C.3   1648  SLB1648     0.1056
      4  C4        25.0870   12.3890   21.1150 C.3   1648  SLB1648     0.1798
      5  C5        26.2460   11.5900   20.5040 C.3   1648  SLB1648     0.1558
      6  C6        25.8370   10.1270   20.6330 C.3   1648  SLB1648     0.1780
      7  C7        26.9300    9.1610   20.0610 C.3   1648  SLB1648     0.2400
      8  C8        26.5980    7.6910   20.2100 C.2   1648  SLB1648     0.2163
      9  C9        27.7010    6.7700   19.6500 C.3   1648  SLB1648     0.2486
     10  C10       28.6060   11.9340   20.8050 C.2   1648  SLB1648     0.2420
     11  C11       29.7480   12.3370   21.7090 C.3   1648  SLB1648     0.0964
     12  N5        27.4430   11.8900   21.3480 N.am  1648  SLB1648    -0.2019
     13  O1A       22.4110    9.1130   18.7150 O.co2 1648  SLB1648    -0.2401
     14  O1B       21.6890   11.1550   18.8630 O.co2 1648  SLB1648    -0.2401
     15  O2        23.0130   10.0780   21.4820 O.3   1648  SLB1648    -0.1830
     16  O4        25.3740   13.8070   21.1400 O.3   1648  SLB1648    -0.2210
     17  O6        24.7280    9.9220   19.7510 O.3   1648  SLB1648    -0.3217
     18  O7        27.3780    9.6370   18.7710 O.3   1648  SLB1648    -0.2123
     19  O8        25.6980    7.2710   20.9860 O.2   1648  SLB1648    -0.2905
     20  O9        27.2180    5.5370   19.0320 O.3   1648  SLB1648    -0.2118
     21  O10       28.8290   11.7210   19.6130 O.2   1648  SLB1648    -0.2733
@<TRIPOS>BOND
     1    13     1   ar
     2    18     7    1
     3    14     1   ar
     4    20     9    1
     5     1     2    1
     6    21    10    2
     7     9     8    1
     8    17     2    1
     9    17     6    1
    10     7     8    1
    11     7     6    1
    12     2     3    1
    13     2    15    1
    14     8    19    2
    15     3     4    1
    16     5     6    1
    17     5     4    1
    18     5    12    1
    19    10    12   am
    20    10    11    1
    21     4    16    1
