@<TRIPOS>MOLECULE
2bes_RES_A_1.pdb
 14 13 0 0 0
SMALL
GASTEIGER

@<TRIPOS>ATOM
      1  O7        30.5130  -11.4690   16.4630 O.3   200  RES200     -0.1145
      2  P         29.2420  -12.2410   16.2280 P.3   200  RES200      0.5327
      3  O5        28.8470  -13.1710   17.3450 O.3   200  RES200     -0.1145
      4  O6        29.1700  -12.8640   14.8550 O.2   200  RES200     -0.2224
      5  O4        28.0880  -11.1230   16.2340 O.3   200  RES200     -0.2674
      6  C4        28.0510  -10.1170   15.2250 C.3   200  RES200      0.1895
      7  C3        26.6670   -9.4860   15.2190 C.3   200  RES200      0.2182
      8  O3        26.4600   -8.7970   16.4440 O.3   200  RES200     -0.2172
      9  C2        26.4800   -8.5020   14.0680 C.3   200  RES200      0.2291
     10  O2        26.8220   -9.1040   12.8270 O.3   200  RES200     -0.2134
     11  C1        25.0430   -8.0730   14.0590 C.2   200  RES200      0.1201
     12  O1        24.1510   -8.9040   13.9880 O.2   200  RES200     -0.5373
     13  N         24.8010   -6.7720   14.1530 N.am  200  RES200     -0.2003
     14  ON        23.4690   -6.3490   14.1590 O.3   200  RES200     -0.4026
@<TRIPOS>BOND
     1    10     9    1
     2    12    11    2
     3    11     9    1
     4    11    13   am
     5     9     7    1
     6    13    14    1
     7     4     2    2
     8     7     6    1
     9     7     8    1
    10     6     5    1
    11     2     5    1
    12     2     1    1
    13     2     3    1
