@<TRIPOS>MOLECULE
2bet_DEZ_A_1.pdb
 13 12 0 0 0
SMALL
GASTEIGER

@<TRIPOS>ATOM
      1  OH2       24.1070   -8.3050   13.5310 O.co2 200  DEZ200     -0.2427
      2  C1        25.0340   -7.6120   14.0020 C.2   200  DEZ200      0.3973
      3  OH1       24.8490   -6.4650   14.4670 O.co2 200  DEZ200     -0.2427
      4  C2        26.4250   -8.1840   14.0110 C.3   200  DEZ200      0.2864
      5  O2        26.7170   -8.7520   12.7400 O.3   200  DEZ200     -0.2080
      6  C3        26.5450   -9.2500   15.1010 C.3   200  DEZ200      0.2233
      7  O3        26.3880   -8.6390   16.3760 O.3   200  DEZ200     -0.2171
      8  C4        27.8900   -9.9740   15.0320 C.3   200  DEZ200      0.1897
      9  O4        28.0860  -10.7870   16.1950 O.3   200  DEZ200     -0.2674
     10  P         29.0650  -12.0680   16.1970 P.3   200  DEZ200      0.5327
     11  O1P       30.4360  -11.5360   16.5150 O.3   200  DEZ200     -0.1145
     12  O2P       28.9700  -12.6380   14.8070 O.2   200  DEZ200     -0.2224
     13  O3P       28.4780  -12.9540   17.2640 O.3   200  DEZ200     -0.1145
@<TRIPOS>BOND
     1     5     4    1
     2     1     2   ar
     3     2     4    1
     4     2     3   ar
     5     4     6    1
     6    12    10    2
     7     8     6    1
     8     8     9    1
     9     6     7    1
    10     9    10    1
    11    10    11    1
    12    10    13    1
