@<TRIPOS>MOLECULE
2beu_THV_A_1.pdb
 31 32 0 0 0
SMALL
GASTEIGER

@<TRIPOS>ATOM
      1  O2B       70.4420    5.0030    4.4770 O.2   601  THV601     -0.2221
      2  PB        69.1130    5.2430    5.2280 P.3   601  THV601      0.5373
      3  O3B       68.0680    4.1480    4.8180 O.3   601  THV601     -0.1143
      4  O1B       68.5200    6.5970    5.1090 O.3   601  THV601     -0.1143
      5  O3A       69.3660    4.9860    6.7940 O.3   601  THV601     -0.2261
      6  PA        69.1570    3.6070    7.7340 P.3   601  THV601      0.2230
      7  O1A       69.4760    4.0270    9.1020 O.3   601  THV601     -0.4370
      8  O2A       67.8240    3.0900    7.4840 O.2   601  THV601     -0.5169
      9  O5G       70.2660    2.6580    7.1680 O.3   601  THV601     -0.3134
     10  C5B       71.6290    2.8140    7.5310 C.3   601  THV601      0.1544
     11  C5A       72.4270    2.0910    6.4490 C.3   601  THV601      0.0661
     12  C5        73.9130    2.2840    6.6750 C.2   601  THV601      0.0167
     13  C4        74.9200    1.4450    7.2020 C.2   601  THV601      0.0281
     14  C4A       74.6530   -0.0020    7.7540 C.3   601  THV601      0.0473
     15  S1        74.6940    3.7240    6.1450 S.3   601  THV601     -0.0904
     16  C2        76.3080    3.2100    6.4630 C.3   601  THV601      0.1836
     17  C8        77.5780    4.0810    6.3060 C.2   601  THV601      0.1788
     18  O9        78.7070    3.5620    6.4980 O.2   601  THV601     -0.2934
     19  C9        77.4490    5.4810    5.6020 C.3   601  THV601      0.0603
     20  C10       77.4920    6.6080    6.6360 C.3   601  THV601      0.0078
     21  C11       78.5110    5.7190    4.5240 C.3   601  THV601      0.0078
     22  N3        76.1920    2.0180    7.1650 N.pl3 601  THV601     -0.2933
     23  C35       77.3850    1.3420    7.7410 C.3   601  THV601      0.1240
     24  C5'       77.4040    1.5630    9.2830 C.2   601  THV601      0.0654
     25  C6'       77.2650    0.4340   10.1410 C.2   601  THV601      0.1115
     26  N1'       77.2820    0.5100   11.4700 N.2   601  THV601     -0.1861
     27  C2'       77.4370    1.6970   12.1120 C.1   601  THV601      0.0663
     28  C2A       77.4650    1.8840   13.6500 C.3   601  THV601      0.1291
     29  N3'       77.5750    2.8510   11.3420 N.2   601  THV601     -0.3368
     30  C4'       77.5930    2.8180    9.9280 C.2   601  THV601      0.2292
     31  N4'       77.6970    4.0080    9.3040 N.pl3 601  THV601     -0.0925
@<TRIPOS>BOND
     1     1     2    2
     2    21    19    1
     3     3     2    1
     4     4     2    1
     5     2     5    1
     6    19    17    1
     7    19    20    1
     8    15    16    1
     9    15    12    1
    10    17    16    1
    11    17    18    2
    12    11    12    1
    13    11    10    1
    14    16    22    1
    15    12    13    2
    16     5     6    1
    17    22    13    1
    18    22    23    1
    19     9    10    1
    20     9     6    1
    21    13    14    1
    22     8     6    2
    23     6     7    1
    24    23    24    1
    25    24    30    1
    26    24    25    2
    27    31    30    1
    28    30    29    2
    29    25    26    1
    30    29    27    2
    31    26    27    2
    32    27    28    1
