@<TRIPOS>MOLECULE
2beu_III_C_1.pdb
 28 28 0 0 0
SMALL
GASTEIGER

@<TRIPOS>ATOM
      1  N         86.2280   -4.0260   -3.0020 N.3   299  ALA299     -0.1231
      2  CA        85.5890   -2.7180   -3.3500 C.3   299  ALA299      0.1694
      3  C         84.0700   -2.6840   -3.1140 C.2   299  ALA299      0.2592
      4  O         83.3380   -3.6460   -3.4250 O.2   299  ALA299     -0.2718
      5  CB        85.9080   -2.3170   -4.7780 C.3   299  ALA299      0.0304
      6  N         83.6100   -1.5530   -2.5790 N.am  300  TYR300     -0.1962
      7  CA        82.2390   -1.4170   -2.1070 C.3   300  TYR300      0.1771
      8  C         81.2240   -1.5020   -3.2690 C.2   300  TYR300      0.2619
      9  O         81.2900   -0.7320   -4.2380 O.2   300  TYR300     -0.2715
     10  CB        82.0960   -0.1340   -1.2730 C.3   300  TYR300      0.0574
     11  CG        80.8510   -0.0400   -0.3950 C.ar  300  TYR300     -0.0198
     12  CD1       79.6060   -0.4750   -0.8510 C.ar  300  TYR300     -0.0009
     13  CD2       80.9070    0.5350    0.8670 C.ar  300  TYR300     -0.0009
     14  CE1       78.4460   -0.3530   -0.0580 C.ar  300  TYR300      0.0417
     15  CE2       79.7610    0.6530    1.6630 C.ar  300  TYR300      0.0417
     16  CZ        78.5460    0.2060    1.1880 C.ar  300  TYR300      0.1957
     17  OH        77.4340    0.3180    1.9420 O.3   300  TYR300     -0.2866
     18  N         80.3190   -2.4840   -3.1600 N.am  301  ARG301     -0.1977
     19  CA        79.2080   -2.6980   -4.1050 C.3   301  ARG301      0.1597
     20  C         77.8550   -2.2770   -3.4900 C.2   301  ARG301      0.2287
     21  O         77.5830   -2.4960   -2.3020 O.2   301  ARG301     -0.2864
     22  CB        79.1600   -4.1630   -4.5800 C.3   301  ARG301      0.0334
     23  CG        77.7630   -4.6370   -5.1510 C.3   301  ARG301      0.0492
     24  CD        76.7270   -5.1480   -4.0740 C.3   301  ARG301      0.2205
     25  NE        77.2170   -6.4930   -3.4310 N.pl3 301  ARG301     -0.0865
     26  CZ        76.6390   -7.7090   -3.6930 C.cat 301  ARG301      0.5346
     27  NH1       75.5410   -7.7520   -4.5850 N.pl3 301  ARG301      0.1354
     28  NH2       77.0930   -8.8420   -3.0460 N.pl3 301  ARG301      0.1354
@<TRIPOS>BOND
     1    23    22    1
     2    23    24    1
     3     5     2    1
     4    27    26    1
     5    22    19    1
     6     9     8    2
     7    19    20    1
     8    19    18    1
     9    24    25    1
    10    26    25    2
    11    26    28    1
    12    20    21    2
    13     4     3    2
    14     2     3    1
    15     2     1    1
    16     8    18   am
    17     8     7    1
    18     3     6   am
    19     6     7    1
    20     7    10    1
    21    10    11    1
    22    12    11   ar
    23    12    14   ar
    24    11    13   ar
    25    14    16   ar
    26    13    15   ar
    27    16    15   ar
    28    16    17    1
