@<TRIPOS>MOLECULE
2bev_III_C_1.pdb
 28 28 0 0 0
SMALL
GASTEIGER

@<TRIPOS>ATOM
      1  N         85.9270   -4.2280   -3.2150 N.3   299  ALA299     -0.1231
      2  CA        85.2180   -2.9620   -3.5050 C.3   299  ALA299      0.1694
      3  C         83.7150   -3.0240   -3.1800 C.2   299  ALA299      0.2592
      4  O         83.0410   -4.0500   -3.3110 O.2   299  ALA299     -0.2718
      5  CB        85.4700   -2.4700   -4.9410 C.3   299  ALA299      0.0304
      6  N         83.2150   -1.8860   -2.7390 N.am  300  TYR300     -0.1962
      7  CA        81.9390   -1.8050   -2.0760 C.3   300  TYR300      0.1771
      8  C         80.8160   -1.6780   -3.0980 C.2   300  TYR300      0.2619
      9  O         80.9600   -0.9770   -4.0970 O.2   300  TYR300     -0.2715
     10  CB        81.9990   -0.5770   -1.1830 C.3   300  TYR300      0.0574
     11  CG        80.7730   -0.3000   -0.3630 C.ar  300  TYR300     -0.0198
     12  CD1       79.7230    0.4340   -0.8930 C.ar  300  TYR300     -0.0009
     13  CD2       80.6740   -0.7180    0.9450 C.ar  300  TYR300     -0.0009
     14  CE1       78.5800    0.7410   -0.1300 C.ar  300  TYR300      0.0417
     15  CE2       79.5770   -0.3970    1.7080 C.ar  300  TYR300      0.0417
     16  CZ        78.5250    0.3270    1.1530 C.ar  300  TYR300      0.1957
     17  OH        77.4090    0.6280    1.8630 O.3   300  TYR300     -0.2866
     18  N         79.6990   -2.3600   -2.8230 N.am  301  ARG301     -0.1977
     19  CA        78.4790   -2.3020   -3.6580 C.3   301  ARG301      0.1597
     20  C         77.2280   -2.2760   -2.7660 C.2   301  ARG301      0.2287
     21  O         77.2220   -2.8450   -1.6700 O.2   301  ARG301     -0.2864
     22  CB        78.3840   -3.4890   -4.6080 C.3   301  ARG301      0.0334
     23  CG        78.2930   -4.7860   -3.8530 C.3   301  ARG301      0.0492
     24  CD        77.0740   -5.6020   -4.1850 C.3   301  ARG301      0.2205
     25  NE        76.9680   -6.6920   -3.2280 N.pl3 301  ARG301     -0.0865
     26  CZ        76.4410   -7.8830   -3.5010 C.cat 301  ARG301      0.5346
     27  NH1       75.9620   -8.1680   -4.7120 N.pl3 301  ARG301      0.1354
     28  NH2       76.3980   -8.7840   -2.5500 N.pl3 301  ARG301      0.1354
@<TRIPOS>BOND
     1     5     2    1
     2    27    26    1
     3    22    23    1
     4    22    19    1
     5    24    23    1
     6    24    25    1
     7     9     8    2
     8    19    18    1
     9    19    20    1
    10     2     1    1
    11     2     3    1
    12    26    25    2
    13    26    28    1
    14     4     3    2
    15     3     6   am
    16     8    18   am
    17     8     7    1
    18    20    21    2
    19     6     7    1
    20     7    10    1
    21    10    11    1
    22    12    11   ar
    23    12    14   ar
    24    11    13   ar
    25    14    16   ar
    26    13    15   ar
    27    16    15   ar
    28    16    17    1
