@<TRIPOS>MOLECULE
2bev_THY_A_1.pdb
 32 33 0 0 0
SMALL
GASTEIGER

@<TRIPOS>ATOM
      1  O2B       70.2460    4.8530    4.4200 O.2   601  THY601     -0.2221
      2  PB        68.8080    5.0420    5.1430 P.3   601  THY601      0.5373
      3  O3B       67.6770    4.0790    4.7330 O.3   601  THY601     -0.1143
      4  O1B       68.3400    6.4560    5.0380 O.3   601  THY601     -0.1143
      5  O3A       69.0220    4.8340    6.7850 O.3   601  THY601     -0.2261
      6  PA        68.9030    3.5300    7.7040 P.3   601  THY601      0.2230
      7  O1A       69.1880    4.0190    9.0830 O.3   601  THY601     -0.4370
      8  O2A       67.6010    2.8570    7.4240 O.2   601  THY601     -0.5169
      9  O5G       70.0030    2.5410    7.1000 O.3   601  THY601     -0.3134
     10  C5B       71.4010    2.7420    7.4260 C.3   601  THY601      0.1544
     11  C5A       72.2330    1.8180    6.4920 C.3   601  THY601      0.0661
     12  C5        73.7180    2.1060    6.7040 C.2   601  THY601      0.0167
     13  C4        74.7410    1.2950    7.2200 C.2   601  THY601      0.0281
     14  C4A       74.4510   -0.1250    7.7690 C.3   601  THY601      0.0473
     15  S1        74.4410    3.5570    6.1640 S.3   601  THY601     -0.0904
     16  C2        76.0600    3.1220    6.6340 C.3   601  THY601      0.1836
     17  C8        77.2860    3.8290    6.1740 C.2   601  THY601      0.1788
     18  O9        78.4100    3.4910    6.6240 O.2   601  THY601     -0.2934
     19  C9        77.1190    5.2970    5.7150 C.3   601  THY601      0.0602
     20  C11       77.0740    6.2220    6.9520 C.3   601  THY601      0.0078
     21  C10       78.2360    5.7320    4.7650 C.3   601  THY601      0.0074
     22  C12       78.0880    7.2470    4.5340 C.3   601  THY601      0.0004
     23  N3        75.9870    1.8700    7.1900 N.pl3 601  THY601     -0.2933
     24  C35       77.1510    1.2210    7.7800 C.3   601  THY601      0.1240
     25  C5'       77.1230    1.4200    9.3330 C.2   601  THY601      0.0654
     26  C6'       76.9910    0.2860   10.1790 C.2   601  THY601      0.1115
     27  N1'       77.0380    0.4640   11.5200 N.2   601  THY601     -0.1861
     28  C2'       77.1540    1.6740   12.1370 C.1   601  THY601      0.0663
     29  C2A       77.1910    1.8190   13.6720 C.3   601  THY601      0.1291
     30  N3'       77.2710    2.8210   11.3760 N.2   601  THY601     -0.3368
     31  C4'       77.2710    2.6880    9.9670 C.2   601  THY601      0.2292
     32  N4'       77.4560    3.8490    9.3230 N.pl3 601  THY601     -0.0925
@<TRIPOS>BOND
     1     1     2    2
     2    22    21    1
     3     3     2    1
     4    21    19    1
     5     4     2    1
     6     2     5    1
     7    19    17    1
     8    19    20    1
     9    15    16    1
    10    15    12    1
    11    17    18    2
    12    17    16    1
    13    11    12    1
    14    11    10    1
    15    16    23    1
    16    12    13    2
    17     5     6    1
    18     9    10    1
    19     9     6    1
    20    23    13    1
    21    23    24    1
    22    13    14    1
    23     8     6    2
    24     6     7    1
    25    24    25    1
    26    32    31    1
    27    25    31    1
    28    25    26    2
    29    31    30    2
    30    26    27    1
    31    30    28    2
    32    27    28    2
    33    28    29    1
