@<TRIPOS>MOLECULE
2bew_THW_A_1.pdb
 34 36 0 0 0
SMALL
GASTEIGER

@<TRIPOS>ATOM
      1  C10       77.0950    5.9710    6.4700 C.ar  601  THW601      0.0029
      2  C12       77.2450    7.2670    6.0090 C.ar  601  THW601      0.0001
      3  C14       77.9580    7.4800    4.8510 C.ar  601  THW601      0.0000
      4  C13       78.5520    6.4030    4.1880 C.ar  601  THW601      0.0001
      5  C11       78.4220    5.1030    4.6400 C.ar  601  THW601      0.0029
      6  C9        77.6740    4.9110    5.7920 C.ar  601  THW601      0.0373
      7  C8        77.5110    3.5010    6.3590 C.2   601  THW601      0.2017
      8  O9        78.5610    2.8640    6.0170 O.2   601  THW601     -0.2886
      9  C2        76.1300    3.0550    6.6290 C.3   601  THW601      0.1880
     10  S1        74.5220    3.5470    6.2580 S.3   601  THW601     -0.0900
     11  C5        73.6570    2.0990    6.7040 C.2   601  THW601      0.0167
     12  C5A       72.1180    1.8850    6.5120 C.3   601  THW601      0.0661
     13  C5B       71.3490    2.8200    7.4700 C.3   601  THW601      0.1544
     14  O5G       69.9790    2.5000    7.1800 O.3   601  THW601     -0.3134
     15  PA        68.8780    3.5380    7.7060 P.3   601  THW601      0.2230
     16  O1A       69.1690    3.9840    9.0510 O.3   601  THW601     -0.4370
     17  O2A       67.5520    2.9020    7.4130 O.2   601  THW601     -0.5169
     18  O3A       68.9690    4.8560    6.7680 O.3   601  THW601     -0.2261
     19  PB        68.7950    5.0360    5.1360 P.3   601  THW601      0.5373
     20  O1B       67.6050    4.0160    4.7690 O.3   601  THW601     -0.1143
     21  O2B       68.3020    6.4580    5.0150 O.3   601  THW601     -0.1143
     22  O3B       70.1340    4.8950    4.4740 O.2   601  THW601     -0.2221
     23  C4        74.6720    1.2900    7.1920 C.2   601  THW601      0.0282
     24  C4A       74.4350   -0.1460    7.7070 C.3   601  THW601      0.0473
     25  N3        75.9230    1.7950    7.1470 N.pl3 601  THW601     -0.2930
     26  C35       77.0230    1.0910    7.7550 C.3   601  THW601      0.1240
     27  C5'       77.0590    1.4180    9.3160 C.2   601  THW601      0.0654
     28  C6'       76.9320    0.3450   10.2320 C.2   601  THW601      0.1115
     29  N1'       76.9770    0.5250   11.5750 N.2   601  THW601     -0.1861
     30  C2'       77.1940    1.7290   12.1350 C.1   601  THW601      0.0663
     31  C2A       77.2210    1.9480   13.6580 C.3   601  THW601      0.1291
     32  N3'       77.2640    2.8090   11.3320 N.2   601  THW601     -0.3368
     33  C4'       77.1960    2.6810    9.9380 C.2   601  THW601      0.2292
     34  N4'       77.3940    3.8210    9.2590 N.pl3 601  THW601     -0.0925
@<TRIPOS>BOND
     1     4     5   ar
     2     4     3   ar
     3    22    19    2
     4     5     6   ar
     5    20    19    1
     6     3     2   ar
     7    21    19    1
     8    19    18    1
     9     6     7    1
    10     6     1   ar
    11     2     1   ar
    12     8     7    2
    13    10     9    1
    14    10    11    1
    15     7     9    1
    16    12    11    1
    17    12    13    1
    18     9    25    1
    19    11    23    2
    20    18    15    1
    21    25    23    1
    22    25    26    1
    23    14    13    1
    24    14    15    1
    25    23    24    1
    26    17    15    2
    27    15    16    1
    28    26    27    1
    29    34    33    1
    30    27    33    1
    31    27    28    2
    32    33    32    2
    33    28    29    1
    34    32    30    2
    35    29    30    2
    36    30    31    1
