@<TRIPOS>MOLECULE
2bew_III_C_1.pdb
 28 28 0 0 0
SMALL
GASTEIGER

@<TRIPOS>ATOM
      1  N         85.5210   -4.5400   -3.9360 N.3   299  ALA299     -0.1231
      2  CA        84.9340   -3.1760   -4.0720 C.3   299  ALA299      0.1694
      3  C         83.5400   -3.1140   -3.4200 C.2   299  ALA299      0.2592
      4  O         82.7500   -4.0800   -3.4120 O.2   299  ALA299     -0.2718
      5  CB        84.9070   -2.6950   -5.5440 C.3   299  ALA299      0.0304
      6  N         83.2740   -1.9570   -2.8410 N.am  300  TYR300     -0.1962
      7  CA        82.0530   -1.7730   -2.1160 C.3   300  TYR300      0.1771
      8  C         80.9000   -1.7040   -3.1090 C.2   300  TYR300      0.2619
      9  O         80.9840   -1.0040   -4.1290 O.2   300  TYR300     -0.2715
     10  CB        82.1670   -0.5190   -1.2760 C.3   300  TYR300      0.0574
     11  CG        80.9740   -0.2550   -0.4070 C.ar  300  TYR300     -0.0198
     12  CD1       79.9450    0.5440   -0.8640 C.ar  300  TYR300     -0.0009
     13  CD2       80.8740   -0.7660    0.8670 C.ar  300  TYR300     -0.0009
     14  CE1       78.8290    0.8250   -0.0740 C.ar  300  TYR300      0.0417
     15  CE2       79.7910   -0.4820    1.6550 C.ar  300  TYR300      0.0417
     16  CZ        78.7590    0.3190    1.1760 C.ar  300  TYR300      0.1957
     17  OH        77.6300    0.6350    1.8970 O.3   300  TYR300     -0.2866
     18  N         79.8320   -2.4300   -2.7700 N.am  301  ARG301     -0.1977
     19  CA        78.6980   -2.7430   -3.6590 C.3   301  ARG301      0.1597
     20  C         77.3940   -2.3080   -3.0010 C.2   301  ARG301      0.2287
     21  O         77.0090   -2.8340   -1.9370 O.2   301  ARG301     -0.2864
     22  CB        78.6130   -4.2560   -3.8700 C.3   301  ARG301      0.0334
     23  CG        77.7460   -4.6200   -5.0180 C.3   301  ARG301      0.0492
     24  CD        76.5630   -5.5290   -4.6900 C.3   301  ARG301      0.2205
     25  NE        76.7740   -6.4890   -3.6060 N.pl3 301  ARG301     -0.0865
     26  CZ        76.3460   -7.7610   -3.6630 C.cat 301  ARG301      0.5346
     27  NH1       75.7390   -8.2260   -4.7570 N.pl3 301  ARG301      0.1354
     28  NH2       76.5030   -8.5690   -2.6480 N.pl3 301  ARG301      0.1354
@<TRIPOS>BOND
     1     5     2    1
     2    23    24    1
     3    23    22    1
     4    27    26    1
     5    24    25    1
     6     9     8    2
     7     2     1    1
     8     2     3    1
     9    22    19    1
    10    26    25    2
    11    26    28    1
    12    19    20    1
    13    19    18    1
    14     3     4    2
    15     3     6   am
    16     8    18   am
    17     8     7    1
    18    20    21    2
    19     6     7    1
    20     7    10    1
    21    10    11    1
    22    12    11   ar
    23    12    14   ar
    24    11    13   ar
    25    14    16   ar
    26    13    15   ar
    27    16    15   ar
    28    16    17    1
