@<TRIPOS>MOLECULE
2bf1_FUC_A_1.pdb
 10 10 0 0 0
SMALL
GASTEIGER

@<TRIPOS>ATOM
      1  C1       -13.2180   31.3790   31.2380 C.3   1545  FUC1545     0.1776
      2  C2       -12.1610   30.6970   32.1420 C.3   1545  FUC1545     0.2141
      3  C3       -11.9350   31.5330   33.4060 C.3   1545  FUC1545     0.2172
      4  C4       -12.9220   32.7250   33.4310 C.3   1545  FUC1545     0.2116
      5  C5       -14.3780   32.3290   33.0690 C.3   1545  FUC1545     0.1483
      6  C6       -15.1690   31.6790   34.2160 C.3   1545  FUC1545     0.0349
      7  O2       -10.8840   30.7180   31.5660 O.3   1545  FUC1545    -0.2176
      8  O3       -11.9530   30.7230   34.5760 O.3   1545  FUC1545    -0.2175
      9  O4       -12.8540   33.4950   34.6320 O.3   1545  FUC1545    -0.2177
     10  O5       -14.4370   31.4890   31.9220 O.3   1545  FUC1545    -0.3508
@<TRIPOS>BOND
     1     1    10    1
     2     1     2    1
     3     7     2    1
     4    10     5    1
     5     2     3    1
     6     5     4    1
     7     5     6    1
     8     3     4    1
     9     3     8    1
    10     4     9    1
