@<TRIPOS>MOLECULE
2bf4_FMN_A_1.pdb
 31 33 0 0 0
SMALL
GASTEIGER

@<TRIPOS>ATOM
      1  N1         6.7130   58.4930  132.3940 N.2   751  FMN751     -0.2890
      2  C2         6.4220   59.8020  132.3520 C.1   751  FMN751      0.3669
      3  O2         7.0560   60.6110  133.0420 O.2   751  FMN751     -0.1744
      4  N3         5.3900   60.1410  131.4980 N.2   751  FMN751     -0.2300
      5  C4         4.6420   59.2730  130.6930 C.1   751  FMN751      0.2513
      6  O4         3.7500   59.7450  129.9780 O.2   751  FMN751     -0.2057
      7  C4A        5.0080   57.8960  130.7830 C.2   751  FMN751      0.2700
      8  N5         4.2930   57.0190  129.9930 N.2   751  FMN751     -0.3878
      9  C5A        4.7170   55.7140  130.1200 C.2   751  FMN751      0.1320
     10  C6         4.0330   54.7610  129.3160 C.2   751  FMN751      0.0250
     11  C7         4.3680   53.4210  129.3370 C.2   751  FMN751     -0.0238
     12  C7M        3.6100   52.4460  128.4570 C.3   751  FMN751      0.0308
     13  C8         5.4330   52.9810  130.1960 C.2   751  FMN751     -0.0280
     14  C8M        5.8730   51.5340  130.2790 C.3   751  FMN751      0.0304
     15  C9         6.0840   53.8710  130.9670 C.2   751  FMN751     -0.0041
     16  C9A        5.7690   55.2390  130.9650 C.3   751  FMN751      0.1497
     17  N10        6.4470   56.2010  131.7600 N.pl3 751  FMN751     -0.2691
     18  C10        6.0620   57.5810  131.6630 C.2   751  FMN751      0.2416
     19  C1'        7.5320   55.7820  132.6660 C.3   751  FMN751      0.1294
     20  C2'        7.0910   55.2450  134.0350 C.3   751  FMN751      0.2044
     21  O2'        6.2870   56.1700  134.7610 O.3   751  FMN751     -0.2185
     22  C3'        8.3030   54.8470  134.8900 C.3   751  FMN751      0.2164
     23  O3'        9.0400   53.7830  134.3000 O.3   751  FMN751     -0.2175
     24  C4'        7.9740   54.3750  136.3320 C.3   751  FMN751      0.2147
     25  O4'        9.1820   54.0490  136.9950 O.3   751  FMN751     -0.2176
     26  C5'        7.0570   53.1410  136.3660 C.3   751  FMN751      0.1892
     27  O5'        6.7340   52.7070  137.7100 O.3   751  FMN751     -0.2674
     28  P          5.8100   51.4520  138.0530 P.3   751  FMN751      0.5327
     29  O1P        5.7040   51.5520  139.5040 O.3   751  FMN751     -0.1145
     30  O2P        6.6110   50.3400  137.5430 O.3   751  FMN751     -0.1145
     31  O3P        4.5370   51.7160  137.3720 O.2   751  FMN751     -0.2224
@<TRIPOS>BOND
     1    12    11    1
     2    10    11    2
     3    10     9    1
     4    11    13    1
     5     6     5    2
     6     8     9    2
     7     8     7    2
     8     9    16    1
     9    13    14    1
    10    13    15    2
    11     5     7    1
    12     5     4    2
    13     7    18    1
    14    16    15    1
    15    16    17    1
    16     4     2    2
    17    18    17    1
    18    18     1    2
    19    17    19    1
    20     2     1    2
    21     2     3    2
    22    19    20    1
    23    20    21    1
    24    20    22    1
    25    23    22    1
    26    22    24    1
    27    24    26    1
    28    24    25    1
    29    26    27    1
    30    31    28    2
    31    30    28    1
    32    27    28    1
    33    28    29    1
