@<TRIPOS>MOLECULE
2bf4_NAP_A_1.pdb
 40 43 0 0 0
SMALL
GASTEIGER

@<TRIPOS>ATOM
      1  PA        16.0860   49.1210  118.2460 P.3   753  NAP753      0.2189
      2  O1A       16.2540   47.8800  117.3950 O.2   753  NAP753     -0.5170
      3  O2A       17.2850   49.8790  118.7200 O.3   753  NAP753     -0.4371
      4  O5B       15.1940   50.2450  117.5630 O.3   753  NAP753     -0.3112
      5  C5B       14.6390   50.0550  116.2870 C.3   753  NAP753      0.1813
      6  C4B       15.0940   51.1390  115.3460 C.3   753  NAP753      0.1820
      7  O4B       14.8480   52.5020  115.8020 O.3   753  NAP753     -0.3136
      8  C3B       16.5600   51.1770  115.0020 C.3   753  NAP753      0.2157
      9  O3B       16.6180   51.3720  113.5900 O.3   753  NAP753     -0.2175
     10  C2B       17.0720   52.3200  115.8550 C.3   753  NAP753      0.2314
     11  O2B       18.3520   52.8540  115.3720 O.3   753  NAP753     -0.2630
     12  C1B       16.0430   53.2980  115.6950 C.3   753  NAP753      0.3158
     13  N9A       16.0160   54.3970  116.7060 N.pl3 753  NAP753     -0.1439
     14  C8A       16.7580   54.6640  117.7990 C.3   753  NAP753      0.3377
     15  N7A       16.3710   55.8060  118.3880 N.2   753  NAP753     -0.2095
     16  C5A       15.3830   56.2350  117.6320 C.2   753  NAP753      0.2526
     17  C6A       14.6300   57.4060  117.7880 C.2   753  NAP753      0.4393
     18  N6A       14.8310   58.2690  118.7620 N.pl3 753  NAP753      0.2180
     19  N1A       13.6330   57.6550  116.8630 N.2   753  NAP753      0.0021
     20  C2A       13.3740   56.8020  115.8250 C.3   753  NAP753      0.5254
     21  N3A       14.0900   55.6760  115.6550 N.2   753  NAP753     -0.0055
     22  C4A       15.1210   55.3730  116.5700 C.2   753  NAP753      0.3518
     23  O3        15.0410   48.8370  119.4320 O.3   753  NAP753     -0.2703
     24  PN        13.7530   47.9600  119.4930 P.3   753  NAP753      0.2189
     25  O1N       13.9190   46.8840  118.4980 O.2   753  NAP753     -0.5170
     26  O2N       12.6160   48.9260  119.3490 O.3   753  NAP753     -0.4371
     27  O5D       13.9880   47.4860  120.9860 O.3   753  NAP753     -0.3112
     28  C5D       15.2920   46.9850  121.4870 C.3   753  NAP753      0.1813
     29  C4D       15.3060   46.5860  122.9370 C.3   753  NAP753      0.1797
     30  O4D       15.8020   47.6650  123.7170 O.3   753  NAP753     -0.3336
     31  C3D       13.9350   46.1810  123.5900 C.3   753  NAP753      0.2156
     32  O3D       14.0520   44.9330  124.2820 O.3   753  NAP753     -0.2176
     33  C2D       13.5720   47.3200  124.4950 C.3   753  NAP753      0.2298
     34  O2D       12.8620   46.8900  125.6540 O.3   753  NAP753     -0.2160
     35  C1D       14.8840   47.9710  124.8010 C.3   753  NAP753      0.2397
     36  N1N       14.9490   49.4610  124.8460 N.3   753  NAP753     -0.0972
     37  P2B       19.6600   53.1570  116.1900 P.3   753  NAP753      0.5328
     38  O1X       19.9470   54.5940  115.9880 O.3   753  NAP753     -0.1145
     39  O2X       20.5350   52.1860  115.5380 O.2   753  NAP753     -0.2224
     40  O3X       19.3260   52.7720  117.5890 O.3   753  NAP753     -0.1145
@<TRIPOS>BOND
     1     9     8    1
     2     8     6    1
     3     8    10    1
     4     6     7    1
     5     6     5    1
     6    11    10    1
     7    11    37    1
     8    39    37    2
     9    21    20    1
    10    21    22    2
    11    12     7    1
    12    12    10    1
    13    12    13    1
    14    20    19    1
    15    38    37    1
    16    37    40    1
    17     5     4    1
    18    22    13    1
    19    22    16    1
    20    13    14    1
    21    19    17    2
    22     2     1    2
    23     4     1    1
    24    16    17    1
    25    16    15    2
    26    17    18    1
    27    14    15    1
    28     1     3    1
    29     1    23    1
    30    25    24    2
    31    26    24    1
    32    23    24    1
    33    24    27    1
    34    27    28    1
    35    28    29    1
    36    29    31    1
    37    29    30    1
    38    31    32    1
    39    31    33    1
    40    30    35    1
    41    33    35    1
    42    33    34    1
    43    35    36    1
