@<TRIPOS>MOLECULE
2bf6_SIA_A_1.pdb
 21 21 0 0 0
SMALL
GASTEIGER

@<TRIPOS>ATOM
      1  C1        77.3640    0.9750   -1.0740 C.2   1692  SIA1692     0.4179
      2  C2        76.7400    1.9480   -0.0330 C.3   1692  SIA1692     0.3155
      3  C3        76.2330    1.4160    1.2660 C.3   1692  SIA1692     0.1056
      4  C4        76.3360    2.3620    2.5090 C.3   1692  SIA1692     0.1798
      5  C5        76.2730    3.7900    1.9980 C.3   1692  SIA1692     0.1554
      6  C6        77.5530    3.9740    1.1270 C.3   1692  SIA1692     0.1734
      7  C7        77.6330    5.3870    0.5390 C.3   1692  SIA1692     0.2135
      8  C8        78.8620    5.5460   -0.3740 C.3   1692  SIA1692     0.2173
      9  C9        78.9610    6.9990   -0.8190 C.3   1692  SIA1692     0.2175
     10  C10       75.6000    5.8130    3.0860 C.2   1692  SIA1692     0.2420
     11  C11       75.6030    6.6930    4.3200 C.3   1692  SIA1692     0.0964
     12  N5        76.2540    4.7220    3.1510 N.am  1692  SIA1692    -0.2020
     13  O1A       78.3250    1.3800   -1.9690 O.co2 1692  SIA1692    -0.2401
     14  O1B       76.9400   -0.1970   -1.1630 O.co2 1692  SIA1692    -0.2401
     15  O2        75.6750    2.4790   -0.9330 O.3   1692  SIA1692    -0.1830
     16  O4        75.2610    2.1120    3.4700 O.3   1692  SIA1692    -0.2210
     17  O6        77.6040    3.0760   -0.0040 O.3   1692  SIA1692    -0.3220
     18  O7        76.4890    5.7750   -0.2380 O.3   1692  SIA1692    -0.2176
     19  O8        80.0260    5.0660    0.3410 O.3   1692  SIA1692    -0.2175
     20  O9        80.0920    7.1280   -1.6930 O.3   1692  SIA1692    -0.2175
     21  O10       74.9640    6.2260    2.0630 O.2   1692  SIA1692    -0.2733
@<TRIPOS>BOND
     1    13     1   ar
     2    20     9    1
     3    14     1   ar
     4     1     2    1
     5    15     2    1
     6     9     8    1
     7     8    19    1
     8     8     7    1
     9    18     7    1
    10     2    17    1
    11     2     3    1
    12    17     6    1
    13     7     6    1
    14     6     5    1
    15     3     4    1
    16     5     4    1
    17     5    12    1
    18    21    10    2
    19     4    16    1
    20    10    12   am
    21    10    11    1
