@<TRIPOS>MOLECULE
2bf7_NAP_A_1.pdb
 48 52 0 0 0
SMALL
GASTEIGER

@<TRIPOS>ATOM
      1  PA        -4.2570   28.5840   59.3260 P.3   1289  NAP1289     0.2189
      2  O1A       -4.5120   28.3760   60.7600 O.3   1289  NAP1289    -0.4371
      3  O2A       -5.5610   28.6680   58.5500 O.2   1289  NAP1289    -0.5170
      4  O5B       -3.3590   27.3560   58.8340 O.3   1289  NAP1289    -0.3112
      5  C5B       -2.6690   27.3710   57.6170 C.3   1289  NAP1289     0.1813
      6  C4B       -2.2470   25.9440   57.3130 C.3   1289  NAP1289     0.1820
      7  O4B       -1.2000   25.4500   58.1390 O.3   1289  NAP1289    -0.3136
      8  C3B       -3.3670   24.9240   57.4900 C.3   1289  NAP1289     0.2157
      9  O3B       -4.2850   24.9740   56.4230 O.3   1289  NAP1289    -0.2175
     10  C2B       -2.5960   23.6100   57.5800 C.3   1289  NAP1289     0.2314
     11  O2B       -2.6280   22.8620   56.3730 O.3   1289  NAP1289    -0.2630
     12  C1B       -1.1630   24.0520   57.8850 C.3   1289  NAP1289     0.3158
     13  N9A       -0.6160   23.2670   58.9990 N.pl3 1289  NAP1289    -0.1439
     14  C8A       -0.9430   23.3070   60.3240 C.3   1289  NAP1289     0.3377
     15  N7A       -0.1870   22.3990   60.9820 N.2   1289  NAP1289    -0.2095
     16  C5A        0.6000   21.7600   60.0980 C.2   1289  NAP1289     0.2526
     17  C6A        1.5540   20.7460   60.2140 C.2   1289  NAP1289     0.4393
     18  N6A        1.6960   20.0330   61.3330 N.pl3 1289  NAP1289     0.2180
     19  N1A        2.1920   20.3060   59.0740 N.2   1289  NAP1289     0.0021
     20  C2A        1.9170   20.8510   57.8380 C.3   1289  NAP1289     0.5254
     21  N3A        0.9890   21.8490   57.7380 N.2   1289  NAP1289    -0.0055
     22  C4A        0.3370   22.2950   58.8480 C.2   1289  NAP1289     0.3518
     23  O3        -3.3160   29.8830   59.1080 O.3   1289  NAP1289    -0.2703
     24  PN        -3.8700   31.3490   58.6850 P.3   1289  NAP1289     0.2189
     25  O1N       -4.8260   31.7940   59.7220 O.3   1289  NAP1289    -0.4371
     26  O2N       -4.2390   31.3620   57.2420 O.2   1289  NAP1289    -0.5170
     27  O5D       -2.5110   32.2120   58.8280 O.3   1289  NAP1289    -0.3112
     28  C5D       -1.3800   31.9070   58.0440 C.3   1289  NAP1289     0.1813
     29  C4D       -0.1010   32.3340   58.7510 C.3   1289  NAP1289     0.1799
     30  O4D       -0.2610   33.6230   59.3230 O.3   1289  NAP1289    -0.3327
     31  C3D        0.2540   31.3900   59.8830 C.3   1289  NAP1289     0.2158
     32  O3D        1.6490   31.2120   59.9010 O.3   1289  NAP1289    -0.2175
     33  C2D       -0.1760   32.1480   61.1180 C.3   1289  NAP1289     0.2309
     34  O2D        0.5610   31.8270   62.2750 O.3   1289  NAP1289    -0.2158
     35  C1D        0.0210   33.6020   60.7100 C.3   1289  NAP1289     0.2263
     36  N1N       -0.9190   34.4320   61.4750 N.pl3 1289  NAP1289    -0.2787
     37  C2N       -2.2660   34.4050   61.2040 C.3   1289  NAP1289     0.1244
     38  C3N       -3.1530   35.1800   61.9490 C.2   1289  NAP1289     0.0544
     39  C7N       -4.6160   35.2810   61.5980 C.2   1289  NAP1289     0.2818
     40  O7N       -5.4030   36.1810   62.3300 O.2   1289  NAP1289    -0.2670
     41  N7N       -5.1520   34.5630   60.6130 N.am  1289  NAP1289    -0.0839
     42  C4N       -2.6380   35.9840   62.9570 C.2   1289  NAP1289     0.0033
     43  C5N       -1.2780   36.0010   63.2270 C.2   1289  NAP1289     0.0157
     44  C6N       -0.4200   35.2150   62.4760 C.2   1289  NAP1289     0.0633
     45  P2B       -3.7490   21.7360   56.0570 P.3   1289  NAP1289     0.5328
     46  O1X       -3.4650   21.1730   54.7240 O.2   1289  NAP1289    -0.2224
     47  O2X       -3.6810   20.5860   57.0690 O.3   1289  NAP1289    -0.1145
     48  O3X       -5.1390   22.3830   56.0890 O.3   1289  NAP1289    -0.1145
@<TRIPOS>BOND
     1    46    45    2
     2    45    48    1
     3    45    11    1
     4    45    47    1
     5    11    10    1
     6     9     8    1
     7    26    24    2
     8     6     8    1
     9     6     5    1
    10     6     7    1
    11     8    10    1
    12    10    12    1
    13     5     4    1
    14    21    20    1
    15    21    22    2
    16    20    19    1
    17    12     7    1
    18    12    13    1
    19    28    29    1
    20    28    27    1
    21     3     1    2
    22    24    27    1
    23    24    23    1
    24    24    25    1
    25    29    30    1
    26    29    31    1
    27     4     1    1
    28    22    13    1
    29    22    16    1
    30    13    14    1
    31    19    17    2
    32    23     1    1
    33    30    35    1
    34     1     2    1
    35    31    32    1
    36    31    33    1
    37    16    17    1
    38    16    15    2
    39    17    18    1
    40    14    15    1
    41    41    39   am
    42    35    33    1
    43    35    36    1
    44    33    34    1
    45    37    36    1
    46    37    38    1
    47    36    44    1
    48    39    38    1
    49    39    40    2
    50    38    42    2
    51    44    43    2
    52    42    43    1
