@<TRIPOS>MOLECULE
2bf7_HBI_A_1.pdb
 17 18 0 0 0
SMALL
GASTEIGER

@<TRIPOS>ATOM
      1  N1        -2.0730   31.0690   63.5490 N.2   1290  HBI1290    -0.2672
      2  N2        -1.9390   28.9870   62.2000 N.pl3 1290  HBI1290    -0.0220
      3  C2        -2.6800   30.0790   62.7610 C.1   1290  HBI1290     0.2609
      4  N3        -4.0290   30.1490   62.5230 N.2   1290  HBI1290    -0.2466
      5  C4        -4.8230   31.1710   63.0160 C.1   1290  HBI1290     0.2569
      6  O4        -6.1770   31.1320   62.7000 O.2   1290  HBI1290    -0.2052
      7  C4A       -4.2350   32.2310   63.8410 C.2   1290  HBI1290     0.2989
      8  C8A       -2.8060   32.1370   64.0930 C.1   1290  HBI1290     0.1401
      9  N8        -2.1730   33.1570   64.8990 N.2   1290  HBI1290    -0.1992
     10  C7        -2.9920   34.2950   65.4920 C.3   1290  HBI1290     0.1940
     11  C6        -4.4990   34.2600   65.1300 C.2   1290  HBI1290     0.1466
     12  N5        -4.9900   33.2690   64.3680 N.2   1290  HBI1290    -0.3830
     13  C9        -5.4450   35.3750   65.6790 C.3   1290  HBI1290     0.2313
     14  O9        -6.4640   35.7710   64.7010 O.3   1290  HBI1290    -0.2130
     15  C10       -6.0540   34.8990   67.1180 C.3   1290  HBI1290     0.1888
     16  O10       -6.3880   36.0350   67.9650 O.3   1290  HBI1290    -0.2200
     17  C11       -7.3140   33.9680   67.0640 C.3   1290  HBI1290     0.0387
@<TRIPOS>BOND
     1     2     3    1
     2     4     3    2
     3     4     5    2
     4     6     5    2
     5     3     1    2
     6     5     7    1
     7     1     8    2
     8     7     8    1
     9     7    12    2
    10     8     9    2
    11    12    11    2
    12    14    13    1
    13     9    10    1
    14    11    10    1
    15    11    13    1
    16    13    15    1
    17    17    15    1
    18    15    16    1
