@<TRIPOS>MOLECULE
2bfa_NDP_A_1.pdb
 48 52 0 0 0
SMALL
GASTEIGER

@<TRIPOS>ATOM
      1  PA        -4.3230   28.3610   58.9260 P.3   1289  NDP1289     0.2189
      2  O1A       -4.5700   28.2300   60.3680 O.3   1289  NDP1289    -0.4371
      3  O2A       -5.6400   28.4170   58.1580 O.2   1289  NDP1289    -0.5170
      4  O5B       -3.4400   27.1010   58.4780 O.3   1289  NDP1289    -0.3112
      5  C5B       -2.6530   27.1610   57.3260 C.3   1289  NDP1289     0.1813
      6  C4B       -2.2560   25.7550   56.8940 C.3   1289  NDP1289     0.1820
      7  O4B       -1.1910   25.2250   57.6660 O.3   1289  NDP1289    -0.3136
      8  C3B       -3.3770   24.7310   57.0010 C.3   1289  NDP1289     0.2157
      9  O3B       -4.1880   24.7630   55.8440 O.3   1289  NDP1289    -0.2175
     10  C2B       -2.6230   23.4130   57.1490 C.3   1289  NDP1289     0.2314
     11  O2B       -2.6400   22.6790   55.9420 O.3   1289  NDP1289    -0.2630
     12  C1B       -1.1850   23.8350   57.4310 C.3   1289  NDP1289     0.3158
     13  N9A       -0.6100   23.0900   58.5510 N.pl3 1289  NDP1289    -0.1439
     14  C8A       -0.9380   23.1830   59.8690 C.3   1289  NDP1289     0.3377
     15  N7A       -0.1740   22.3130   60.5610 N.2   1289  NDP1289    -0.2095
     16  C5A        0.6220   21.6620   59.6970 C.2   1289  NDP1289     0.2526
     17  C6A        1.5640   20.6630   59.8720 C.2   1289  NDP1289     0.4393
     18  N6A        1.5920   19.9700   61.0090 N.pl3 1289  NDP1289     0.2180
     19  N1A        2.2270   20.1780   58.7640 N.2   1289  NDP1289     0.0021
     20  C2A        1.9430   20.6660   57.4990 C.3   1289  NDP1289     0.5254
     21  N3A        1.0110   21.6650   57.3390 N.2   1289  NDP1289    -0.0055
     22  C4A        0.3560   22.1430   58.4260 C.2   1289  NDP1289     0.3518
     23  O3        -3.3770   29.6470   58.6550 O.3   1289  NDP1289    -0.2703
     24  PN        -3.9300   31.0990   58.2010 P.3   1289  NDP1289     0.2189
     25  O1N       -4.9030   31.5510   59.2130 O.3   1289  NDP1289    -0.4371
     26  O2N       -4.3210   31.0660   56.7700 O.2   1289  NDP1289    -0.5170
     27  O5D       -2.6110   32.0220   58.3120 O.3   1289  NDP1289    -0.3112
     28  C5D       -1.4590   31.7560   57.5350 C.3   1289  NDP1289     0.1813
     29  C4D       -0.1950   32.1470   58.2930 C.3   1289  NDP1289     0.1799
     30  O4D       -0.3500   33.4280   58.8860 O.3   1289  NDP1289    -0.3327
     31  C3D        0.0990   31.1780   59.4190 C.3   1289  NDP1289     0.2158
     32  O3D        1.4900   30.9280   59.4430 O.3   1289  NDP1289    -0.2175
     33  C2D       -0.3010   31.9340   60.6670 C.3   1289  NDP1289     0.2309
     34  O2D        0.5270   31.5950   61.7510 O.3   1289  NDP1289    -0.2158
     35  C1D       -0.1200   33.3810   60.2810 C.3   1289  NDP1289     0.2263
     36  N1N       -1.0670   34.2420   61.0090 N.pl3 1289  NDP1289    -0.2787
     37  C2N       -2.4150   34.1900   60.7480 C.3   1289  NDP1289     0.1244
     38  C3N       -3.3000   35.0190   61.4450 C.2   1289  NDP1289     0.0544
     39  C7N       -4.7510   35.0990   61.0640 C.2   1289  NDP1289     0.2818
     40  O7N       -5.5560   36.0630   61.6790 O.2   1289  NDP1289    -0.2670
     41  N7N       -5.2450   34.2700   60.1480 N.am  1289  NDP1289    -0.0839
     42  C4N       -2.8000   35.9070   62.3890 C.2   1289  NDP1289     0.0033
     43  C5N       -1.4370   35.9460   62.6570 C.2   1289  NDP1289     0.0157
     44  C6N       -0.5790   35.1070   61.9550 C.2   1289  NDP1289     0.0633
     45  P2B       -3.7290   21.5230   55.6680 P.3   1289  NDP1289     0.5328
     46  O1X       -3.5340   21.0110   54.2900 O.2   1289  NDP1289    -0.2224
     47  O2X       -3.5390   20.3850   56.6740 O.3   1289  NDP1289    -0.1145
     48  O3X       -5.1410   22.1240   55.8320 O.3   1289  NDP1289    -0.1145
@<TRIPOS>BOND
     1    46    45    2
     2    45    48    1
     3    45    11    1
     4    45    47    1
     5     9     8    1
     6    11    10    1
     7    26    24    2
     8     6     8    1
     9     6     5    1
    10     6     7    1
    11     8    10    1
    12    10    12    1
    13     5     4    1
    14    21    20    1
    15    21    22    2
    16    12     7    1
    17    12    13    1
    18    20    19    1
    19    28    29    1
    20    28    27    1
    21     3     1    2
    22    24    27    1
    23    24    23    1
    24    24    25    1
    25    29    30    1
    26    29    31    1
    27    22    13    1
    28    22    16    1
    29     4     1    1
    30    13    14    1
    31    23     1    1
    32    19    17    2
    33    30    35    1
    34     1     2    1
    35    31    32    1
    36    31    33    1
    37    16    17    1
    38    16    15    2
    39    14    15    1
    40    17    18    1
    41    41    39   am
    42    35    33    1
    43    35    36    1
    44    33    34    1
    45    37    36    1
    46    37    38    1
    47    36    44    1
    48    39    38    1
    49    39    40    2
    50    38    42    2
    51    44    43    2
    52    42    43    1
