@<TRIPOS>MOLECULE
2bfb_TDP_A_1.pdb
 26 27 0 0 0
SMALL
GASTEIGER

@<TRIPOS>ATOM
      1  N1'       77.2690    0.6060   11.3610 N.2   1404  TDP1404    -0.1861
      2  C2'       77.5080    1.7740   11.9300 C.1   1404  TDP1404     0.0663
      3  C2A       77.6020    1.9210   13.4820 C.3   1404  TDP1404     0.1291
      4  N3'       77.6090    2.8950   11.1420 N.2   1404  TDP1404    -0.3368
      5  C4'       77.5590    2.7950    9.7450 C.2   1404  TDP1404     0.2292
      6  N4'       77.7680    3.8860    9.0250 N.pl3 1404  TDP1404    -0.0925
      7  C5'       77.2670    1.5280    9.1510 C.2   1404  TDP1404     0.0654
      8  C6'       77.1390    0.4510   10.0260 C.2   1404  TDP1404     0.1115
      9  C35       77.1440    1.2530    7.6220 C.3   1404  TDP1404     0.1237
     10  N3        75.8870    1.8390    7.1140 N.pl3 1404  TDP1404    -0.2970
     11  C2        76.0150    3.1610    6.4800 C.3   1404  TDP1404     0.1543
     12  S1        74.2920    3.5800    6.0340 S.3   1404  TDP1404    -0.0951
     13  C5        73.5850    2.0620    6.5990 C.2   1404  TDP1404     0.0164
     14  C4        74.6200    1.2680    7.1310 C.2   1404  TDP1404     0.0279
     15  C4A       74.3950   -0.1390    7.7420 C.3   1404  TDP1404     0.0473
     16  C5A       72.1120    1.7760    6.4900 C.3   1404  TDP1404     0.0661
     17  C5B       71.3710    2.8580    7.2890 C.3   1404  TDP1404     0.1544
     18  O5G       69.9590    2.6260    7.2130 O.3   1404  TDP1404    -0.3134
     19  P1        68.9150    3.6660    7.7670 P.3   1404  TDP1404     0.2230
     20  O11       69.0760    4.9450    6.8110 O.3   1404  TDP1404    -0.2261
     21  O12       69.2930    4.1050    9.1260 O.3   1404  TDP1404    -0.4370
     22  O13       67.5940    2.9730    7.5510 O.2   1404  TDP1404    -0.5169
     23  P2        68.7900    5.0840    5.2060 P.3   1404  TDP1404     0.5373
     24  O21       70.1650    4.8290    4.4900 O.2   1404  TDP1404    -0.2221
     25  O22       67.6810    4.1360    4.7940 O.3   1404  TDP1404    -0.1143
     26  O23       68.4170    6.5140    4.9700 O.3   1404  TDP1404    -0.1143
@<TRIPOS>BOND
     1    24    23    2
     2    25    23    1
     3    26    23    1
     4    23    20    1
     5    12    11    1
     6    12    13    1
     7    11    10    1
     8    16    13    1
     9    16    17    1
    10    13    14    2
    11    20    19    1
    12    10    14    1
    13    10     9    1
    14    14    15    1
    15    18    17    1
    16    18    19    1
    17    22    19    2
    18     9     7    1
    19    19    21    1
    20     6     5    1
    21     7     5    1
    22     7     8    2
    23     5     4    2
    24     8     1    1
    25     4     2    2
    26     1     2    2
    27     2     3    1
