@<TRIPOS>MOLECULE
2bff_TZD_A_1.pdb
 27 28 0 0 0
SMALL
GASTEIGER

@<TRIPOS>ATOM
      1  N1'       77.1780    0.5190   11.5270 N.2   601  TZD601     -0.1861
      2  C2'       77.3850    1.7390   12.0400 C.1   601  TZD601      0.0663
      3  C2A       77.5290    1.9040   13.5200 C.3   601  TZD601      0.1291
      4  N3'       77.4900    2.8590   11.2870 N.2   601  TZD601     -0.3368
      5  C4'       77.3800    2.7290    9.9090 C.2   601  TZD601      0.2294
      6  N4'       77.5190    3.8960    9.2450 N.pl3 601  TZD601     -0.0924
      7  C5'       77.1200    1.4260    9.3520 C.2   601  TZD601      0.0683
      8  C6'       77.0160    0.3000   10.1810 C.2   601  TZD601      0.1117
      9  C35       77.0460    1.1820    7.8160 C.3   601  TZD601      0.1415
     10  N3        75.8550    1.8410    7.2390 N.ar  601  TZD601     -0.2894
     11  C2        75.9140    3.0570    6.6800 C.ar  601  TZD601      0.2920
     12  OC2       76.9050    3.7320    6.5260 O.2   601  TZD601     -0.2594
     13  S1        74.3150    3.5580    6.1740 S.2   601  TZD601     -0.0306
     14  C5        73.6020    2.0510    6.7230 C.ar  601  TZD601      0.0259
     15  C4        74.6140    1.2250    7.2360 C.ar  601  TZD601      0.0432
     16  C4A       74.3560   -0.1990    7.7040 C.3   601  TZD601      0.0503
     17  C5A       72.1140    1.8030    6.5380 C.3   601  TZD601      0.0667
     18  C5B       71.3480    2.8130    7.4150 C.3   601  TZD601      0.1544
     19  O5G       69.9710    2.5530    7.1550 O.3   601  TZD601     -0.3134
     20  P1        68.8630    3.6160    7.6900 P.3   601  TZD601      0.2230
     21  O11       69.0410    4.9210    6.7380 O.3   601  TZD601     -0.2261
     22  O12       67.5080    2.9470    7.5190 O.2   601  TZD601     -0.5169
     23  O13       69.2330    4.0540    9.0530 O.3   601  TZD601     -0.4370
     24  P2        68.7880    5.1160    5.1600 P.3   601  TZD601      0.5373
     25  O21       70.1690    4.8740    4.5270 O.2   601  TZD601     -0.2221
     26  O22       67.7750    4.1510    4.6910 O.3   601  TZD601     -0.1143
     27  O23       68.3520    6.5630    5.0210 O.3   601  TZD601     -0.1143
@<TRIPOS>BOND
     1    25    24    2
     2    26    24    1
     3    27    24    1
     4    24    21    1
     5    13    11   ar
     6    13    14   ar
     7    12    11    2
     8    17    14    1
     9    17    18    1
    10    11    10   ar
    11    14    15   ar
    12    21    20    1
    13    19    18    1
    14    19    20    1
    15    15    10   ar
    16    15    16    1
    17    10     9    1
    18    22    20    2
    19    20    23    1
    20     9     7    1
    21     6     5    1
    22     7     5    1
    23     7     8    2
    24     5     4    2
    25     8     1    1
    26     4     2    2
    27     1     2    2
    28     2     3    1
