@<TRIPOS>MOLECULE
2bfg_ANX_A_1.pdb
 13 13 0 0 0
SMALL
GASTEIGER

@<TRIPOS>ATOM
      1  O1         3.9240   97.2380   53.1560 O.3   1504  ANX1504    -0.2847
      2  C1         2.8650   97.7270   53.9830 C.ar  1504  ANX1504     0.2196
      3  C2         1.6380   98.2280   53.4430 C.ar  1504  ANX1504     0.1816
      4  N2         1.0970   98.0710   52.0340 N.pl3 1504  ANX1504     0.0609
      5  O21        1.5690   97.2420   51.2720 O.2   1504  ANX1504    -0.1260
      6  O22        0.1730   98.7480   51.6230 O.2   1504  ANX1504    -0.1260
      7  C3         0.7980   98.9960   54.2750 C.ar  1504  ANX1504     0.0291
      8  C4         1.1080   99.2420   55.6080 C.ar  1504  ANX1504     0.0260
      9  N1         2.6510   98.9710   57.5980 N.pl3 1504  ANX1504     0.0578
     10  O41        3.3680  100.1220   58.1120 O.2   1504  ANX1504    -0.1261
     11  O42        2.1880   97.9070   58.4580 O.2   1504  ANX1504    -0.1261
     12  C5         2.3260   98.7890   56.1470 C.ar  1504  ANX1504     0.1462
     13  C6         3.1470   97.9550   55.3460 C.ar  1504  ANX1504     0.0678
@<TRIPOS>BOND
     1     5     4    2
     2     6     4    2
     3     4     3    1
     4     1     2    1
     5     3     2   ar
     6     3     7   ar
     7     2    13   ar
     8     7     8   ar
     9    13    12   ar
    10     8    12   ar
    11    12     9    1
    12     9    10    2
    13     9    11    2
