@<TRIPOS>MOLECULE
2bfm_TOP_A_1.pdb
 21 22 0 0 0
SMALL
GASTEIGER

@<TRIPOS>ATOM
      1  C1        -4.0610   35.0950   66.3220 C.2   1290  TOP1290     0.1118
      2  N2        -3.0820   34.2730   65.9070 N.2   1290  TOP1290    -0.1675
      3  C3        -3.3150   33.2790   65.0030 C.1   1290  TOP1290     0.1877
      4  N4        -2.3080   32.4610   64.6010 N.pl3 1290  TOP1290    -0.0345
      5  N5        -4.5490   33.0950   64.4910 N.2   1290  TOP1290    -0.3170
      6  C6        -5.5590   33.8980   64.8760 C.2   1290  TOP1290     0.2297
      7  N7        -6.7830   33.6970   64.3460 N.pl3 1290  TOP1290    -0.0924
      8  C8        -5.3430   34.9110   65.8090 C.2   1290  TOP1290     0.0500
      9  C9        -6.4710   35.8310   66.2220 C.3   1290  TOP1290     0.0585
     10  C10       -7.1810   35.5130   67.5180 C.ar  1290  TOP1290    -0.0114
     11  C11       -7.6940   34.2420   67.7590 C.ar  1290  TOP1290     0.0363
     12  C12       -8.3740   33.9800   68.9570 C.ar  1290  TOP1290     0.1751
     13  O13       -8.8060   32.8130   69.1540 O.3   1290  TOP1290    -0.4683
     14  C14       -9.6590   32.1500   68.2080 C.3   1290  TOP1290     0.2526
     15  C15       -8.5420   34.9930   69.9270 C.ar  1290  TOP1290     0.2060
     16  O16       -9.1640   34.7510   71.0120 O.3   1290  TOP1290    -0.4654
     17  C17       -8.5810   34.1050   72.1600 C.3   1290  TOP1290     0.2528
     18  C18       -8.0370   36.2880   69.6690 C.ar  1290  TOP1290     0.1751
     19  O19       -8.1830   37.2290   70.5060 O.3   1290  TOP1290    -0.4683
     20  C20       -7.6780   38.5560   70.2840 C.3   1290  TOP1290     0.2526
     21  C21       -7.3590   36.5280   68.4630 C.ar  1290  TOP1290     0.0363
@<TRIPOS>BOND
     1     7     6    1
     2     5     6    2
     3     5     3    2
     4     4     3    1
     5     6     8    1
     6     3     2    2
     7     8     9    1
     8     8     1    2
     9     2     1    1
    10     9    10    1
    11    10    11   ar
    12    10    21   ar
    13    11    12   ar
    14    14    13    1
    15    21    18   ar
    16    12    13    1
    17    12    15   ar
    18    18    15   ar
    19    18    19    1
    20    15    16    1
    21    20    19    1
    22    16    17    1
