@<TRIPOS>MOLECULE
2bfm_NDP_A_1.pdb
 48 52 0 0 0
SMALL
GASTEIGER

@<TRIPOS>ATOM
      1  PA        -4.1910   28.9080   59.4230 P.3   1289  NDP1289     0.2189
      2  O1A       -4.4560   28.8840   60.8700 O.3   1289  NDP1289    -0.4371
      3  O2A       -5.4680   28.7510   58.6110 O.2   1289  NDP1289    -0.5170
      4  O5B       -3.1900   27.7170   59.0710 O.3   1289  NDP1289    -0.3112
      5  C5B       -2.5400   27.6660   57.8220 C.3   1289  NDP1289     0.1813
      6  C4B       -2.2650   26.2190   57.4230 C.3   1289  NDP1289     0.1820
      7  O4B       -1.1890   25.6450   58.1400 O.3   1289  NDP1289    -0.3136
      8  C3B       -3.4200   25.2680   57.6820 C.3   1289  NDP1289     0.2157
      9  O3B       -4.4230   25.4260   56.7090 O.3   1289  NDP1289    -0.2175
     10  C2B       -2.7290   23.9100   57.6690 C.3   1289  NDP1289     0.2314
     11  O2B       -2.8290   23.2350   56.4250 O.3   1289  NDP1289    -0.2630
     12  C1B       -1.2610   24.2510   57.9270 C.3   1289  NDP1289     0.3158
     13  N9A       -0.7220   23.4790   59.0630 N.pl3 1289  NDP1289    -0.1439
     14  C8A       -1.0900   23.5420   60.3750 C.3   1289  NDP1289     0.3377
     15  N7A       -0.3580   22.6580   61.0730 N.2   1289  NDP1289    -0.2095
     16  C5A        0.4690   22.0290   60.2280 C.2   1289  NDP1289     0.2526
     17  C6A        1.4240   21.0410   60.4130 C.2   1289  NDP1289     0.4393
     18  N6A        1.5080   20.3930   61.5680 N.pl3 1289  NDP1289     0.2180
     19  N1A        2.1360   20.5850   59.3210 N.2   1289  NDP1289     0.0021
     20  C2A        1.8940   21.1010   58.0610 C.3   1289  NDP1289     0.5254
     21  N3A        0.9470   22.0840   57.8940 N.2   1289  NDP1289    -0.0055
     22  C4A        0.2490   22.5350   58.9610 C.2   1289  NDP1289     0.3518
     23  O3        -3.3390   30.2360   59.0880 O.3   1289  NDP1289    -0.2703
     24  PN        -3.9160   31.6770   58.6500 P.3   1289  NDP1289     0.2189
     25  O1N       -4.8490   32.1480   59.6690 O.3   1289  NDP1289    -0.4371
     26  O2N       -4.3290   31.6480   57.2340 O.2   1289  NDP1289    -0.5170
     27  O5D       -2.5920   32.5700   58.7660 O.3   1289  NDP1289    -0.3112
     28  C5D       -1.4350   32.3130   58.0010 C.3   1289  NDP1289     0.1813
     29  C4D       -0.1790   32.6890   58.7760 C.3   1289  NDP1289     0.1799
     30  O4D       -0.3390   33.9390   59.4200 O.3   1289  NDP1289    -0.3327
     31  C3D        0.1350   31.6710   59.8530 C.3   1289  NDP1289     0.2158
     32  O3D        1.5060   31.3600   59.8200 O.3   1289  NDP1289    -0.2175
     33  C2D       -0.2090   32.3810   61.1450 C.3   1289  NDP1289     0.2309
     34  O2D        0.6510   31.9940   62.1810 O.3   1289  NDP1289    -0.2158
     35  C1D       -0.0380   33.8480   60.7920 C.3   1289  NDP1289     0.2263
     36  N1N       -0.9470   34.6840   61.5780 N.pl3 1289  NDP1289    -0.2787
     37  C2N       -2.2810   34.7400   61.2670 C.3   1289  NDP1289     0.1244
     38  C3N       -3.1630   35.5220   62.0000 C.2   1289  NDP1289     0.0544
     39  C7N       -4.6210   35.5730   61.6410 C.2   1289  NDP1289     0.2818
     40  O7N       -5.4890   36.3810   62.3980 O.2   1289  NDP1289    -0.2670
     41  N7N       -5.0740   34.8640   60.6140 N.am  1289  NDP1289    -0.0839
     42  C4N       -2.6910   36.2680   63.0730 C.2   1289  NDP1289     0.0033
     43  C5N       -1.2370   36.1980   63.4120 C.2   1289  NDP1289     0.0157
     44  C6N       -0.4230   35.3870   62.6290 C.2   1289  NDP1289     0.0633
     45  P2B       -3.8300   21.9920   56.1550 P.3   1289  NDP1289     0.5328
     46  O1X       -3.5040   21.4390   54.8290 O.2   1289  NDP1289    -0.2224
     47  O2X       -3.6940   20.9080   57.2340 O.3   1289  NDP1289    -0.1145
     48  O3X       -5.2830   22.5040   56.2030 O.3   1289  NDP1289    -0.1145
@<TRIPOS>BOND
     1    46    45    2
     2    45    48    1
     3    45    11    1
     4    45    47    1
     5    11    10    1
     6     9     8    1
     7    26    24    2
     8     6     8    1
     9     6     5    1
    10     6     7    1
    11    10     8    1
    12    10    12    1
    13     5     4    1
    14    21    20    1
    15    21    22    2
    16    12     7    1
    17    12    13    1
    18    28    27    1
    19    28    29    1
    20    20    19    1
    21     3     1    2
    22    24    27    1
    23    24    23    1
    24    24    25    1
    25    29    30    1
    26    29    31    1
    27    22    13    1
    28    22    16    1
    29    13    14    1
    30     4     1    1
    31    23     1    1
    32    19    17    2
    33    30    35    1
    34     1     2    1
    35    32    31    1
    36    31    33    1
    37    16    17    1
    38    16    15    2
    39    14    15    1
    40    17    18    1
    41    41    39   am
    42    35    33    1
    43    35    36    1
    44    33    34    1
    45    37    36    1
    46    37    38    1
    47    36    44    1
    48    39    38    1
    49    39    40    2
    50    38    42    2
    51    44    43    2
    52    42    43    1
