@<TRIPOS>MOLECULE
2bfo_NDP_A_1.pdb
 48 52 0 0 0
SMALL
GASTEIGER

@<TRIPOS>ATOM
      1  PA        -4.2360   28.2900   59.1290 P.3   1289  NDP1289     0.2189
      2  O1A       -4.4580   28.2780   60.5870 O.3   1289  NDP1289    -0.4371
      3  O2A       -5.5060   28.1590   58.3260 O.2   1289  NDP1289    -0.5170
      4  O5B       -3.2200   27.1230   58.7470 O.3   1289  NDP1289    -0.3112
      5  C5B       -2.5950   27.0880   57.4950 C.3   1289  NDP1289     0.1813
      6  C4B       -2.1520   25.6780   57.1510 C.3   1289  NDP1289     0.1820
      7  O4B       -1.0860   25.1670   57.9420 O.3   1289  NDP1289    -0.3136
      8  C3B       -3.2970   24.7040   57.3590 C.3   1289  NDP1289     0.2157
      9  O3B       -4.1490   24.7960   56.2430 O.3   1289  NDP1289    -0.2175
     10  C2B       -2.5850   23.3560   57.4910 C.3   1289  NDP1289     0.2314
     11  O2B       -2.6350   22.5910   56.2750 O.3   1289  NDP1289    -0.2630
     12  C1B       -1.1350   23.7510   57.7990 C.3   1289  NDP1289     0.3158
     13  N9A       -0.5650   22.9900   58.9220 N.pl3 1289  NDP1289    -0.1439
     14  C8A       -0.8570   23.0650   60.2440 C.3   1289  NDP1289     0.3377
     15  N7A       -0.1190   22.1760   60.9190 N.2   1289  NDP1289    -0.2095
     16  C5A        0.6490   21.5440   60.0400 C.2   1289  NDP1289     0.2526
     17  C6A        1.5920   20.5350   60.1880 C.2   1289  NDP1289     0.4393
     18  N6A        1.8140   19.9630   61.3620 N.pl3 1289  NDP1289     0.2180
     19  N1A        2.2290   20.0370   59.0800 N.2   1289  NDP1289     0.0021
     20  C2A        1.9400   20.5380   57.8300 C.3   1289  NDP1289     0.5254
     21  N3A        1.0150   21.5180   57.6770 N.2   1289  NDP1289    -0.0055
     22  C4A        0.3750   22.0240   58.7760 C.2   1289  NDP1289     0.3518
     23  O3        -3.3850   29.6110   58.8000 O.3   1289  NDP1289    -0.2703
     24  PN        -3.9310   31.0720   58.4370 P.3   1289  NDP1289     0.2189
     25  O1N       -4.9110   31.5120   59.4390 O.3   1289  NDP1289    -0.4371
     26  O2N       -4.3210   31.0440   57.0060 O.2   1289  NDP1289    -0.5170
     27  O5D       -2.5790   31.9210   58.5820 O.3   1289  NDP1289    -0.3112
     28  C5D       -1.4280   31.6150   57.8120 C.3   1289  NDP1289     0.1813
     29  C4D       -0.1490   32.0400   58.5280 C.3   1289  NDP1289     0.1799
     30  O4D       -0.3400   33.3060   59.1420 O.3   1289  NDP1289    -0.3327
     31  C3D        0.2190   31.0820   59.6450 C.3   1289  NDP1289     0.2158
     32  O3D        1.6170   30.9190   59.7000 O.3   1289  NDP1289    -0.2175
     33  C2D       -0.2670   31.7850   60.8980 C.3   1289  NDP1289     0.2309
     34  O2D        0.4960   31.3970   62.0080 O.3   1289  NDP1289    -0.2158
     35  C1D       -0.1040   33.2520   60.5440 C.3   1289  NDP1289     0.2263
     36  N1N       -1.0360   34.1260   61.2920 N.pl3 1289  NDP1289    -0.2787
     37  C2N       -2.3810   34.1420   60.9820 C.3   1289  NDP1289     0.1244
     38  C3N       -3.2590   34.9680   61.6670 C.2   1289  NDP1289     0.0544
     39  C7N       -4.7170   35.0050   61.3260 C.2   1289  NDP1289     0.2818
     40  O7N       -5.5250   35.8530   62.0610 O.2   1289  NDP1289    -0.2670
     41  N7N       -5.1780   34.2410   60.3420 N.am  1289  NDP1289    -0.0839
     42  C4N       -2.7780   35.7820   62.6920 C.2   1289  NDP1289     0.0033
     43  C5N       -1.3430   35.7540   63.0390 C.2   1289  NDP1289     0.0157
     44  C6N       -0.5300   34.9070   62.3060 C.2   1289  NDP1289     0.0633
     45  P2B       -3.6720   21.4030   55.9470 P.3   1289  NDP1289     0.5328
     46  O1X       -3.3820   20.9340   54.5800 O.2   1289  NDP1289    -0.2224
     47  O2X       -3.4370   20.2720   56.9330 O.3   1289  NDP1289    -0.1145
     48  O3X       -5.0730   22.0230   56.1080 O.3   1289  NDP1289    -0.1145
@<TRIPOS>BOND
     1    46    45    2
     2    45    48    1
     3    45    11    1
     4    45    47    1
     5     9     8    1
     6    11    10    1
     7    26    24    2
     8     6     8    1
     9     6     5    1
    10     6     7    1
    11     8    10    1
    12    10    12    1
    13     5     4    1
    14    21    20    1
    15    21    22    2
    16    12     7    1
    17    12    13    1
    18    28    29    1
    19    28    27    1
    20    20    19    1
    21     3     1    2
    22    24    27    1
    23    24    23    1
    24    24    25    1
    25    29    30    1
    26    29    31    1
    27     4     1    1
    28    22    13    1
    29    22    16    1
    30    23     1    1
    31    13    14    1
    32    19    17    2
    33     1     2    1
    34    30    35    1
    35    31    32    1
    36    31    33    1
    37    16    17    1
    38    16    15    2
    39    17    18    1
    40    14    15    1
    41    41    39   am
    42    35    33    1
    43    35    36    1
    44    33    34    1
    45    37    36    1
    46    37    38    1
    47    36    44    1
    48    39    38    1
    49    39    40    2
    50    38    42    2
    51    44    43    2
    52    42    43    1
