@<TRIPOS>MOLECULE
2bfp_H4B_A_1.pdb
 17 18 0 0 0
SMALL
GASTEIGER

@<TRIPOS>ATOM
      1  N1        -2.4140   30.8950   63.2490 N.2   1290  H4B1290    -0.2683
      2  C2        -2.9680   29.9610   62.4450 C.1   1290  H4B1290     0.2608
      3  N2        -2.2610   28.9660   61.9420 N.pl3 1290  H4B1290    -0.0220
      4  N3        -4.2790   30.0570   62.1630 N.2   1290  H4B1290    -0.2474
      5  C4        -5.1180   31.0740   62.6440 C.1   1290  H4B1290     0.2441
      6  O4        -6.3130   31.0600   62.2920 O.2   1290  H4B1290    -0.2063
      7  C4A       -4.4730   32.0310   63.4770 C.2   1290  H4B1290     0.2463
      8  C8A       -3.1340   31.9350   63.7900 C.1   1290  H4B1290     0.1270
      9  N5        -5.2990   33.1070   64.0170 N.2   1290  H4B1290    -0.2460
     10  N8        -2.5110   32.7470   64.6430 N.2   1290  H4B1290    -0.2054
     11  C6        -4.5280   34.2080   64.7220 C.3   1290  H4B1290     0.1627
     12  C7        -3.2930   33.6920   65.4320 C.3   1290  H4B1290     0.1643
     13  C9        -5.4730   35.1350   65.5250 C.3   1290  H4B1290     0.2063
     14  O9        -6.5180   35.6580   64.7130 O.3   1290  H4B1290    -0.2183
     15  C10       -6.0630   34.6140   66.8530 C.3   1290  H4B1290     0.1842
     16  C11       -7.2440   33.7190   66.7640 C.3   1290  H4B1290     0.0383
     17  O10       -6.4440   35.7900   67.5640 O.3   1290  H4B1290    -0.2204
@<TRIPOS>BOND
     1     3     2    1
     2     4     2    2
     3     4     5    2
     4     6     5    2
     5     2     1    2
     6     5     7    1
     7     1     8    2
     8     7     8    1
     9     7     9    2
    10     8    10    2
    11     9    11    1
    12    10    12    1
    13    14    13    1
    14    11    12    1
    15    11    13    1
    16    13    15    1
    17    16    15    1
    18    15    17    1
