@<TRIPOS>MOLECULE
2bfp_NAP_A_1.pdb
 48 52 0 0 0
SMALL
GASTEIGER

@<TRIPOS>ATOM
      1  PA        -4.5490   28.3850   58.9250 P.3   1289  NAP1289     0.2189
      2  O1A       -4.7790   28.3360   60.3770 O.3   1289  NAP1289    -0.4371
      3  O2A       -5.8680   28.4490   58.1630 O.2   1289  NAP1289    -0.5170
      4  O5B       -3.6810   27.1290   58.4720 O.3   1289  NAP1289    -0.3112
      5  C5B       -2.9070   27.1280   57.3110 C.3   1289  NAP1289     0.1813
      6  C4B       -2.4820   25.6990   56.9940 C.3   1289  NAP1289     0.1820
      7  O4B       -1.3760   25.2130   57.7470 O.3   1289  NAP1289    -0.3136
      8  C3B       -3.5700   24.6750   57.2700 C.3   1289  NAP1289     0.2157
      9  O3B       -4.5760   24.7370   56.2950 O.3   1289  NAP1289    -0.2175
     10  C2B       -2.7960   23.3590   57.2710 C.3   1289  NAP1289     0.2314
     11  O2B       -2.8870   22.6460   56.0500 O.3   1289  NAP1289    -0.2630
     12  C1B       -1.3560   23.8200   57.5080 C.3   1289  NAP1289     0.3158
     13  N9A       -0.7980   23.0850   58.6390 N.pl3 1289  NAP1289    -0.1439
     14  C8A       -1.1320   23.1290   59.9620 C.3   1289  NAP1289     0.3377
     15  N7A       -0.3580   22.2560   60.6550 N.2   1289  NAP1289    -0.2095
     16  C5A        0.4410   21.6330   59.7740 C.2   1289  NAP1289     0.2526
     17  C6A        1.4090   20.6480   59.9030 C.2   1289  NAP1289     0.4393
     18  N6A        1.5410   19.9290   61.0100 N.pl3 1289  NAP1289     0.2180
     19  N1A        2.0490   20.2070   58.7720 N.2   1289  NAP1289     0.0021
     20  C2A        1.7460   20.7210   57.5290 C.3   1289  NAP1289     0.5254
     21  N3A        0.8030   21.7020   57.4100 N.2   1289  NAP1289    -0.0055
     22  C4A        0.1700   22.1430   58.5120 C.2   1289  NAP1289     0.3518
     23  O3        -3.6180   29.6620   58.6510 O.3   1289  NAP1289    -0.2703
     24  PN        -4.1370   31.1470   58.2680 P.3   1289  NAP1289     0.2189
     25  O1N       -5.0950   31.6280   59.2890 O.3   1289  NAP1289    -0.4371
     26  O2N       -4.4580   31.1920   56.8290 O.2   1289  NAP1289    -0.5170
     27  O5D       -2.7480   31.9380   58.5020 O.3   1289  NAP1289    -0.3112
     28  C5D       -1.6550   31.7560   57.6370 C.3   1289  NAP1289     0.1813
     29  C4D       -0.3940   32.1810   58.3670 C.3   1289  NAP1289     0.1799
     30  O4D       -0.5700   33.4700   58.9300 O.3   1289  NAP1289    -0.3327
     31  C3D       -0.0630   31.2270   59.5060 C.3   1289  NAP1289     0.2158
     32  O3D        1.3410   31.1140   59.6050 O.3   1289  NAP1289    -0.2175
     33  C2D       -0.5720   31.9880   60.7200 C.3   1289  NAP1289     0.2309
     34  O2D        0.1260   31.6670   61.8890 O.3   1289  NAP1289    -0.2158
     35  C1D       -0.3120   33.4320   60.3210 C.3   1289  NAP1289     0.2263
     36  N1N       -1.2720   34.2540   61.0630 N.pl3 1289  NAP1289    -0.2787
     37  C2N       -2.6210   34.1490   60.8220 C.3   1289  NAP1289     0.1244
     38  C3N       -3.5060   34.9300   61.5480 C.2   1289  NAP1289     0.0544
     39  C7N       -4.9750   35.0120   61.2400 C.2   1289  NAP1289     0.2818
     40  O7N       -5.7100   35.9680   61.9520 O.2   1289  NAP1289    -0.2670
     41  N7N       -5.5620   34.2440   60.3260 N.am  1289  NAP1289    -0.0839
     42  C4N       -2.9910   35.7960   62.5000 C.2   1289  NAP1289     0.0033
     43  C5N       -1.6270   35.8880   62.7380 C.2   1289  NAP1289     0.0157
     44  C6N       -0.7630   35.1020   61.9990 C.2   1289  NAP1289     0.0633
     45  P2B       -3.9440   21.4650   55.7590 P.3   1289  NAP1289     0.5328
     46  O1X       -3.7530   20.9270   54.3940 O.2   1289  NAP1289    -0.2224
     47  O2X       -3.8130   20.2990   56.7390 O.3   1289  NAP1289    -0.1145
     48  O3X       -5.3390   22.0710   55.9270 O.3   1289  NAP1289    -0.1145
@<TRIPOS>BOND
     1    46    45    2
     2    45    48    1
     3    45    11    1
     4    45    47    1
     5    11    10    1
     6     9     8    1
     7    26    24    2
     8     6     8    1
     9     6     5    1
    10     6     7    1
    11     8    10    1
    12    10    12    1
    13     5     4    1
    14    21    20    1
    15    21    22    2
    16    12     7    1
    17    12    13    1
    18    20    19    1
    19    28    29    1
    20    28    27    1
    21     3     1    2
    22    24    27    1
    23    24    23    1
    24    24    25    1
    25    29    30    1
    26    29    31    1
    27     4     1    1
    28    22    13    1
    29    22    16    1
    30    13    14    1
    31    23     1    1
    32    19    17    2
    33     1     2    1
    34    30    35    1
    35    31    32    1
    36    31    33    1
    37    16    17    1
    38    16    15    2
    39    17    18    1
    40    14    15    1
    41    35    33    1
    42    35    36    1
    43    41    39   am
    44    33    34    1
    45    37    36    1
    46    37    38    1
    47    36    44    1
    48    39    38    1
    49    39    40    2
    50    38    42    2
    51    44    43    2
    52    42    43    1
