@<TRIPOS>MOLECULE
2bfq_AR6_A_1.pdb
 36 39 0 0 0
SMALL
GASTEIGER

@<TRIPOS>ATOM
      1  N1       -17.0360   22.4650   -3.0910 N.2   1193  AR61193     0.0021
      2  C2       -17.3730   23.6940   -2.5390 C.3   1193  AR61193     0.5254
      3  N3       -17.8700   23.7660   -1.2860 N.2   1193  AR61193    -0.0055
      4  C4       -18.0480   22.6270   -0.5560 C.2   1193  AR61193     0.3518
      5  C5       -17.7330   21.3880   -1.0610 C.2   1193  AR61193     0.2526
      6  C6       -17.1930   21.2810   -2.3940 C.2   1193  AR61193     0.4393
      7  N6       -16.8650   20.1390   -2.9290 N.pl3 1193  AR61193     0.2180
      8  N7       -18.0330   20.4760   -0.0870 N.2   1193  AR61193    -0.2095
      9  C8       -18.4960   21.2080    0.9360 C.3   1193  AR61193     0.3377
     10  N9       -18.5320   22.5600    0.7100 N.pl3 1193  AR61193    -0.1439
     11  C1'      -18.9090   23.7480    1.4920 C.3   1193  AR61193     0.3186
     12  C2'      -19.8950   23.4750    2.6420 C.3   1193  AR61193     0.2570
     13  O2'      -21.2320   23.2180    2.2070 O.3   1193  AR61193    -0.2130
     14  C3'      -19.6580   24.7330    3.4660 C.3   1193  AR61193     0.2184
     15  O3'      -20.5180   25.7920    3.0810 O.3   1193  AR61193    -0.2174
     16  O4'      -17.7690   24.2400    2.1470 O.3   1193  AR61193    -0.3135
     17  C4'      -18.1760   25.1190    3.2160 C.3   1193  AR61193     0.1821
     18  C5'      -17.2120   24.8410    4.3610 C.3   1193  AR61193     0.1813
     19  O5'      -17.6350   23.6340    5.0940 O.3   1193  AR61193    -0.3112
     20  PA       -16.5640   22.7600    5.7830 P.3   1193  AR61193     0.2189
     21  O1A      -15.9130   21.8950    4.7200 O.2   1193  AR61193    -0.5170
     22  O2A      -17.2800   21.9220    6.8630 O.3   1193  AR61193    -0.4371
     23  O3A      -15.4700   23.6450    6.4100 O.3   1193  AR61193    -0.2703
     24  PB       -15.3710   24.4280    7.7770 P.3   1193  AR61193     0.2189
     25  O1B      -16.7180   24.9310    8.3250 O.3   1193  AR61193    -0.4371
     26  O2B      -14.3440   25.5040    7.6190 O.2   1193  AR61193    -0.5170
     27  O5D      -14.7710   23.3110    8.6910 O.3   1193  AR61193    -0.3112
     28  C5D      -13.3660   22.9760    8.5760 C.3   1193  AR61193     0.1813
     29  O4D      -14.0120   20.6410    8.3610 O.3   1193  AR61193    -0.3237
     30  O1D      -13.5440   18.3540    8.2770 O.3   1193  AR61193    -0.1869
     31  C1D      -13.2650   19.6370    7.6740 C.3   1193  AR61193     0.3023
     32  O2D      -10.8080   19.0940    7.6950 O.3   1193  AR61193    -0.2148
     33  C2D      -11.8270   20.0940    7.7990 C.3   1193  AR61193     0.2433
     34  O3D      -11.6770   20.0010   10.2650 O.3   1193  AR61193    -0.2175
     35  C3D      -11.8960   20.8270    9.1270 C.3   1193  AR61193     0.2168
     36  C4D      -13.2210   21.5790    9.1540 C.3   1193  AR61193     0.1807
@<TRIPOS>BOND
     1     1     2    1
     2     1     6    2
     3     7     6    1
     4     2     3    1
     5     6     5    1
     6     3     4    2
     7     5     4    1
     8     5     8    2
     9     4    10    1
    10     8     9    1
    11    10     9    1
    12    10    11    1
    13    11    16    1
    14    11    12    1
    15    16    17    1
    16    13    12    1
    17    12    14    1
    18    15    14    1
    19    17    14    1
    20    17    18    1
    21    18    19    1
    22    21    20    2
    23    19    20    1
    24    20    23    1
    25    20    22    1
    26    23    24    1
    27    26    24    2
    28    31    33    1
    29    31    30    1
    30    31    29    1
    31    32    33    1
    32    24    25    1
    33    24    27    1
    34    33    35    1
    35    29    36    1
    36    28    27    1
    37    28    36    1
    38    35    36    1
    39    35    34    1
