@<TRIPOS>MOLECULE
2bfr_ADP_A_1.pdb
 27 29 0 0 0
SMALL
GASTEIGER

@<TRIPOS>ATOM
      1  PB        15.1820   76.9810   -7.6950 P.3   1193  ADP1193     0.5373
      2  O1B       14.5970   75.6860   -7.2680 O.3   1193  ADP1193    -0.1143
      3  O2B       16.1960   76.8530   -8.8000 O.2   1193  ADP1193    -0.2221
      4  O3B       14.0590   78.0470   -8.0200 O.3   1193  ADP1193    -0.1143
      5  PA        16.2010   78.9400   -5.8420 P.3   1193  ADP1193     0.2231
      6  O1A       17.0470   78.8450   -4.5930 O.3   1193  ADP1193    -0.4370
      7  O2A       16.7290   79.8770   -6.9030 O.2   1193  ADP1193    -0.5169
      8  O3A       16.0070   77.4940   -6.4250 O.3   1193  ADP1193    -0.2261
      9  O5'       14.7550   79.3080   -5.2870 O.3   1193  ADP1193    -0.3111
     10  C5'       14.0540   78.4510   -4.3280 C.3   1193  ADP1193     0.1813
     11  C4'       13.2980   79.2290   -3.2410 C.3   1193  ADP1193     0.1821
     12  O4'       14.1050   79.2530   -2.0290 O.3   1193  ADP1193    -0.3135
     13  C3'       12.9920   80.7250   -3.5440 C.3   1193  ADP1193     0.2184
     14  O3'       11.5850   80.9580   -3.3020 O.3   1193  ADP1193    -0.2174
     15  C2'       13.9690   81.4680   -2.6160 C.3   1193  ADP1193     0.2570
     16  O2'       13.4970   82.7600   -2.2000 O.3   1193  ADP1193    -0.2130
     17  C1'       14.0800   80.5270   -1.4200 C.3   1193  ADP1193     0.3186
     18  N9        15.3480   80.7210   -0.6060 N.pl3 1193  ADP1193    -0.1439
     19  C8        16.5010   81.3570   -0.9680 C.3   1193  ADP1193     0.3377
     20  N7        17.4390   81.3520    0.0010 N.2   1193  ADP1193    -0.2095
     21  C5        16.8450   80.6760    1.0220 C.2   1193  ADP1193     0.2526
     22  C6        17.3250   80.3260    2.3570 C.2   1193  ADP1193     0.4393
     23  N6        18.4810   80.6110    2.8500 N.pl3 1193  ADP1193     0.2180
     24  N1        16.4030   79.6180    3.1220 N.2   1193  ADP1193     0.0021
     25  C2        15.1320   79.2690    2.6670 C.3   1193  ADP1193     0.5254
     26  N3        14.6760   79.5830    1.4460 N.2   1193  ADP1193    -0.0055
     27  C4        15.5500   80.2760    0.6680 C.2   1193  ADP1193     0.3518
@<TRIPOS>BOND
     1     3     1    2
     2     4     1    1
     3     1     2    1
     4     1     8    1
     5     7     5    2
     6     8     5    1
     7     5     9    1
     8     5     6    1
     9     9    10    1
    10    10    11    1
    11    13    14    1
    12    13    11    1
    13    13    15    1
    14    11    12    1
    15    15    16    1
    16    15    17    1
    17    12    17    1
    18    17    18    1
    19    19    18    1
    20    19    20    1
    21    18    27    1
    22    20    21    2
    23    27    21    1
    24    27    26    2
    25    21    22    1
    26    26    25    1
    27    22    23    1
    28    22    24    2
    29    25    24    1
