@<TRIPOS>MOLECULE
2bfv_STG_H_1.pdb
 33 37 0 0 0
SMALL
GASTEIGER

@<TRIPOS>ATOM
      1  C1       -13.4420   14.2160    3.1970 C.ar  200  STG200     -0.0015
      2  C2       -13.4470   13.1180    4.0310 C.ar  200  STG200      0.0367
      3  C3       -14.5100   12.2500    3.9760 C.ar  200  STG200      0.1411
      4  C4       -15.5800   12.4520    3.1130 C.ar  200  STG200      0.0324
      5  C5       -15.5600   13.5810    2.2620 C.ar  200  STG200     -0.0231
      6  C6       -16.7250   13.7720    1.3300 C.3   200  STG200      0.0261
      7  C7       -16.4970   14.6720    0.1740 C.3   200  STG200      0.0050
      8  C8       -15.0180   15.0990   -0.0170 C.3   200  STG200      0.0045
      9  C9       -14.4900   15.6790    1.3420 C.3   200  STG200      0.0220
     10  C10      -14.4830   14.4910    2.2980 C.ar  200  STG200     -0.0263
     11  C11      -13.0740   16.3090    1.1330 C.3   200  STG200      0.0044
     12  C12      -13.1570   17.4530    0.0970 C.3   200  STG200      0.0029
     13  C13      -13.5920   16.9010   -1.2570 C.3   200  STG200      0.0308
     14  C14      -14.9640   16.1980   -1.0590 C.3   200  STG200      0.0054
     15  C15      -15.3820   15.7970   -2.4970 C.3   200  STG200      0.0356
     16  C16      -14.8780   16.9990   -3.3280 C.3   200  STG200      0.1821
     17  C17      -14.0460   17.8740   -2.3790 C.3   200  STG200      0.1819
     18  C18      -12.4930   16.0060   -1.8470 C.3   200  STG200      0.0026
     19  O19      -12.9970   18.5900   -3.0260 O.3   200  STG200     -0.2204
     20  O20      -14.4750   11.1620    4.8150 O.3   200  STG200     -0.4505
     21  C21      -15.5170   10.1620    4.5890 C.3   200  STG200      0.3222
     22  C22      -15.0230    8.8670    5.2850 C.3   200  STG200      0.2542
     23  C23      -16.1730    7.8630    5.5020 C.3   200  STG200      0.2216
     24  C24      -17.4480    8.5050    6.1260 C.3   200  STG200      0.2230
     25  C25      -17.8080    9.8040    5.3500 C.3   200  STG200      0.2538
     26  C26      -18.9800   10.5330    5.9940 C.2   200  STG200      0.3941
     27  O27      -16.6450   10.6850    5.3710 O.3   200  STG200     -0.3067
     28  O28      -13.9960    8.2450    4.5150 O.3   200  STG200     -0.2135
     29  O29      -15.8340    6.7170    6.2250 O.3   200  STG200     -0.2173
     30  O30      -18.4730    7.5360    5.9840 O.3   200  STG200     -0.2171
     31  O31      -19.0070   11.9430    6.1890 O.co2 200  STG200     -0.2429
     32  O32      -20.1240    9.8530    6.4380 O.co2 200  STG200     -0.2429
     33  O33      -15.9910   17.7210   -3.8990 O.3   200  STG200     -0.2204
@<TRIPOS>BOND
     1    33    16    1
     2    16    15    1
     3    16    17    1
     4    19    17    1
     5    15    14    1
     6    17    13    1
     7    18    13    1
     8    13    14    1
     9    13    12    1
    10    14     8    1
    11     8     7    1
    12     8     9    1
    13    12    11    1
    14     7     6    1
    15    11     9    1
    16     6     5    1
    17     9    10    1
    18     5    10   ar
    19     5     4   ar
    20    10     1   ar
    21     4     3   ar
    22     1     2   ar
    23     3     2   ar
    24     3    20    1
    25    28    22    1
    26    21    20    1
    27    21    22    1
    28    21    27    1
    29    22    23    1
    30    25    27    1
    31    25    26    1
    32    25    24    1
    33    23    24    1
    34    23    29    1
    35    30    24    1
    36    26    31   ar
    37    26    32   ar
