@<TRIPOS>MOLECULE
2bfy_H1N_A_1.pdb
 37 41 0 0 0
SMALL
GASTEIGER

@<TRIPOS>ATOM
      1  CAJ       16.0320   -4.5090    3.5270 C.3   1357  H1N1357     0.0724
      2  CAL       16.3080   -5.8530    4.2050 C.3   1357  H1N1357     0.0174
      3  CAW       14.9940   -6.6020    4.4400 C.3   1357  H1N1357     0.0029
      4  CAV       14.2350   -6.7630    3.1220 C.3   1357  H1N1357     0.0174
      5  CAK       14.0080   -5.3920    2.4770 C.3   1357  H1N1357     0.0724
      6  NAI       15.2950   -4.7130    2.2670 N.3   1357  H1N1357    -0.2690
      7  CAH       15.0870   -3.4400    1.5530 C.3   1357  H1N1357     0.0991
      8  CAG       14.2780   -2.4260    2.3650 C.ar  1357  H1N1357    -0.0060
      9  CAS       12.9520   -2.1540    2.0370 C.ar  1357  H1N1357    -0.0014
     10  CAR       12.2390   -1.1890    2.7430 C.ar  1357  H1N1357     0.0188
     11  CAF       14.8830   -1.7340    3.4120 C.ar  1357  H1N1357    -0.0014
     12  CAE       14.1690   -0.7670    4.1120 C.ar  1357  H1N1357     0.0188
     13  CAQ       12.8500   -0.4810    3.7770 C.ar  1357  H1N1357     0.0810
     14  NAP       12.2800    0.5550    4.3960 N.2   1357  H1N1357    -0.2482
     15  CAO       11.0710    1.0900    4.2110 C.2   1357  H1N1357     0.0794
     16  CAN       10.0530    0.4720    3.4810 C.ar  1357  H1N1357     0.0150
     17  CAM        9.5070    1.1020    2.3690 C.ar  1357  H1N1357     0.0012
     18  CAC        8.4260    0.5380    1.6970 C.ar  1357  H1N1357     0.0000
     19  CAA        7.8910   -0.6720    2.1370 C.ar  1357  H1N1357     0.0000
     20  CAB        8.4400   -1.3100    3.2430 C.ar  1357  H1N1357     0.0000
     21  CAD        9.5180   -0.7410    3.9160 C.ar  1357  H1N1357     0.0012
     22  CBD       10.7730    2.2290    4.9410 C.3   1357  H1N1357     0.1824
     23  CBC        9.5280    2.8320    5.0960 C.2   1357  H1N1357     0.0276
     24  CBB        8.2590    2.3720    4.7850 C.2   1357  H1N1357     0.0172
     25  CBJ       11.6770    3.0350    5.6310 C.1   1357  H1N1357     0.1889
     26  OBK       12.8610    2.7700    5.7690 O.2   1357  H1N1357    -0.2135
     27  NBI       11.0210    4.0750    6.1580 N.2   1357  H1N1357    -0.3402
     28  CBH        9.7240    3.9730    5.8700 C.2   1357  H1N1357     0.1235
     29  CBG        8.5920    4.6490    6.3300 C.3   1357  H1N1357     0.0870
     30  CBF        7.3130    4.1690    6.0510 C.2   1357  H1N1357    -0.0006
     31  CBA        7.1380    3.0180    5.2830 C.2   1357  H1N1357     0.0866
     32  NAZ        5.9660    2.5950    4.8120 N.pl3 1357  H1N1357    -0.1010
     33  SAY        4.5050    3.0170    5.3880 S.O2  1357  H1N1357     0.0731
     34  OBE        3.5080    1.9410    5.0770 O.2   1357  H1N1357    -0.1529
     35  OAU        4.0680    4.3390    4.8300 O.2   1357  H1N1357    -0.1529
     36  CAX        4.7680    3.1690    7.1920 C.3   1357  H1N1357     0.1744
     37  CAT        5.0360    1.7690    7.7530 C.3   1357  H1N1357     0.0293
@<TRIPOS>BOND
     1     7     6    1
     2     7     8    1
     3    18    19   ar
     4    18    17   ar
     5     9     8   ar
     6     9    10   ar
     7    19    20   ar
     8     6     5    1
     9     6     1    1
    10     8    11   ar
    11    17    16   ar
    12     5     4    1
    13    10    13   ar
    14     4     3    1
    15    20    21   ar
    16    11    12   ar
    17    16    21   ar
    18    16    15    1
    19     1     2    1
    20    13    12   ar
    21    13    14    1
    22     2     3    1
    23    15    14    2
    24    15    22    1
    25    24    23    2
    26    24    31    1
    27    32    31    1
    28    32    33    1
    29    35    33    2
    30    22    23    1
    31    22    25    1
    32    34    33    2
    33    23    28    1
    34    31    30    2
    35    33    36    1
    36    25    26    2
    37    25    27    2
    38    28    27    2
    39    28    29    1
    40    30    29    1
    41    36    37    1
