@<TRIPOS>MOLECULE
2bgd_T1D_A_1.pdb
 22 24 0 0 0
SMALL
GASTEIGER

@<TRIPOS>ATOM
      1  O         -4.4220   58.9030    5.3260 O.2   1298  T1D1298    -0.2235
      2  C         -3.4820   59.6520    5.1790 C.1   1298  T1D1298     0.1723
      3  N         -2.5700   59.9500    6.1100 N.2   1298  T1D1298    -0.0414
      4  S         -1.4680   60.9650    5.5480 S.O2  1298  T1D1298     0.1647
      5  O1        -0.0620   60.2920    5.4420 O.2   1298  T1D1298    -0.1303
      6  O2        -1.4160   62.3040    6.3200 O.2   1298  T1D1298    -0.1303
      7  N1        -2.0430   61.1680    4.1160 N.pl3 1298  T1D1298    -0.1546
      8  C1        -3.2370   60.3670    3.8620 C.3   1298  T1D1298     0.2396
      9  C2        -1.4980   61.9590    3.0680 C.ar  1298  T1D1298     0.1054
     10  C3        -1.7970   63.3200    2.8900 C.ar  1298  T1D1298     0.0193
     11  C4        -1.2190   64.0460    1.8200 C.ar  1298  T1D1298     0.0015
     12  C5        -0.3720   63.3760    0.9220 C.ar  1298  T1D1298     0.0032
     13  C6        -0.0780   62.0220    1.0950 C.ar  1298  T1D1298     0.0382
     14  C7        -0.6420   61.3190    2.1700 C.ar  1298  T1D1298     0.1535
     15  O3        -0.3810   59.9920    2.3600 O.3   1298  T1D1298    -0.4701
     16  C8         0.3260   59.1890    1.4010 C.3   1298  T1D1298     0.2525
     17  C9        -1.4800   65.4040    1.5810 C.ar  1298  T1D1298     0.0000
     18  C10       -2.6940   65.9740    1.9990 C.ar  1298  T1D1298     0.0000
     19  C11       -2.9850   67.3250    1.7420 C.ar  1298  T1D1298     0.0000
     20  C12       -2.0730   68.1090    1.0350 C.ar  1298  T1D1298     0.0000
     21  C13       -0.8570   67.5330    0.6020 C.ar  1298  T1D1298     0.0000
     22  C14       -0.5590   66.1920    0.8690 C.ar  1298  T1D1298     0.0000
@<TRIPOS>BOND
     1    21    22   ar
     2    21    20   ar
     3    22    17   ar
     4    12    13   ar
     5    12    11   ar
     6    20    19   ar
     7    13    14   ar
     8    16    15    1
     9    17    11    1
    10    17    18   ar
    11    19    18   ar
    12    11    10   ar
    13    14    15    1
    14    14     9   ar
    15    10     9   ar
    16     9     7    1
    17     8     7    1
    18     8     2    1
    19     7     4    1
    20     2     1    2
    21     2     3    2
    22     5     4    2
    23     4     3    1
    24     4     6    2
