@<TRIPOS>MOLECULE
2bge_T2D_A_1.pdb
 14 15 0 0 0
SMALL
GASTEIGER

@<TRIPOS>ATOM
      1  C1        54.4090   33.7940   37.9070 C.ar  1298  T2D1298     0.0162
      2  C2        55.5270   33.8400   37.0330 C.ar  1298  T2D1298     0.0013
      3  C3        55.6900   32.8480   36.0310 C.ar  1298  T2D1298     0.0001
      4  C4        54.7340   31.8040   35.9010 C.ar  1298  T2D1298     0.0013
      5  C5        53.6160   31.7520   36.7740 C.ar  1298  T2D1298     0.0162
      6  C6        53.4360   32.7440   37.7880 C.ar  1298  T2D1298     0.0716
      7  N7        52.2760   32.6720   38.6760 N.pl3 1298  T2D1298    -0.1576
      8  S8        52.2690   31.8100   40.1460 S.O2  1298  T2D1298     0.1646
      9  N9        50.6740   32.1790   40.5660 N.2   1298  T2D1298    -0.0414
     10  C10       50.0700   32.9420   39.6640 C.1   1298  T2D1298     0.1723
     11  C11       50.9570   33.3040   38.4680 C.3   1298  T2D1298     0.2395
     12  O12       48.9060   33.3290   39.7720 O.2   1298  T2D1298    -0.2235
     13  O13       53.2980   32.4180   41.2000 O.2   1298  T2D1298    -0.1303
     14  O14       52.4990   30.2530   39.9290 O.2   1298  T2D1298    -0.1303
@<TRIPOS>BOND
     1     4     3   ar
     2     4     5   ar
     3     3     2   ar
     4     5     6   ar
     5     2     1   ar
     6     6     1   ar
     7     6     7    1
     8    11     7    1
     9    11    10    1
    10     7     8    1
    11    10    12    2
    12    10     9    2
    13    14     8    2
    14     8     9    1
    15     8    13    2
