@<TRIPOS>MOLECULE
2bgi_HTG_A_1.pdb
 19 19 0 0 0
SMALL
GASTEIGER

@<TRIPOS>ATOM
      1  C1        75.5930   65.9870   -2.2750 C.3   1274  HTG1274     0.1955
      2  S1        74.5540   66.0450   -0.7570 S.3   1274  HTG1274    -0.1094
      3  C2        77.0560   65.5170   -2.0330 C.3   1274  HTG1274     0.2219
      4  O2        77.6640   66.3980   -1.1020 O.3   1274  HTG1274    -0.2167
      5  C3        77.7530   65.5560   -3.4130 C.3   1274  HTG1274     0.2181
      6  O3        79.1040   65.1590   -3.3300 O.3   1274  HTG1274    -0.2175
      7  C4        77.0400   64.5750   -4.3900 C.3   1274  HTG1274     0.2143
      8  O4        77.6890   64.6590   -5.6520 O.3   1274  HTG1274    -0.2176
      9  C5        75.5380   64.9980   -4.5210 C.3   1274  HTG1274     0.1820
     10  O5        74.9150   65.1360   -3.2270 O.3   1274  HTG1274    -0.3398
     11  C6        74.6450   64.0130   -5.3340 C.3   1274  HTG1274     0.2142
     12  O6        75.1290   62.6580   -5.2510 O.3   1274  HTG1274    -0.2176
     13  C1'       73.3370   67.3080   -1.1090 C.3   1274  HTG1274     0.0599
     14  C2'       72.3840   67.0800   -2.2860 C.3   1274  HTG1274     0.0117
     15  C3'       71.2410   68.1400   -2.3670 C.3   1274  HTG1274     0.0009
     16  C4'       71.5360   69.5770   -2.9390 C.3   1274  HTG1274     0.0000
     17  C5'       71.2400   69.7990   -4.4450 C.3   1274  HTG1274     0.0000
     18  C6'       71.5990   71.2080   -4.9740 C.3   1274  HTG1274     0.0000
     19  C7'       71.2910   71.4030   -6.4780 C.3   1274  HTG1274     0.0000
@<TRIPOS>BOND
     1    19    18    1
     2     8     7    1
     3    11    12    1
     4    11     9    1
     5    18    17    1
     6     9     7    1
     7     9    10    1
     8    17    16    1
     9     7     5    1
    10     5     6    1
    11     5     3    1
    12    10     1    1
    13    16    15    1
    14    15    14    1
    15    14    13    1
    16     1     3    1
    17     1     2    1
    18     3     4    1
    19    13     2    1
