@<TRIPOS>MOLECULE
2bgl_NAJ_A_1.pdb
 44 48 0 0 0
SMALL
GASTEIGER

@<TRIPOS>ATOM
      1  PA         2.9910   10.3200   16.7010 P.3   1300  NAJ1300     0.2189
      2  O1A        2.9600    9.4340   17.8920 O.3   1300  NAJ1300    -0.4371
      3  O2A        1.9330   10.1930   15.6680 O.2   1300  NAJ1300    -0.5170
      4  O5B        4.4190   10.2660   15.9180 O.3   1300  NAJ1300    -0.3112
      5  C5B        5.5910    9.6910   16.5370 C.3   1300  NAJ1300     0.1813
      6  C4B        5.9650    8.2760   16.0660 C.3   1300  NAJ1300     0.1821
      7  O4B        6.6940    7.6140   17.1180 O.3   1300  NAJ1300    -0.3135
      8  C3B        4.8040    7.3240   15.7500 C.3   1300  NAJ1300     0.2184
      9  O3B        4.8850    6.8410   14.3980 O.3   1300  NAJ1300    -0.2174
     10  C2B        4.9630    6.1850   16.7450 C.3   1300  NAJ1300     0.2570
     11  O2B        4.4450    4.9710   16.1920 O.3   1300  NAJ1300    -0.2130
     12  C1B        6.4640    6.2290   16.8660 C.3   1300  NAJ1300     0.3186
     13  N9A        7.1370    5.3330   17.8240 N.pl3 1300  NAJ1300    -0.1439
     14  C8A        6.7910    5.0800   19.0980 C.3   1300  NAJ1300     0.3377
     15  N7A        7.7270    4.3290   19.6930 N.2   1300  NAJ1300    -0.2095
     16  C5A        8.6430    4.1310   18.7490 C.2   1300  NAJ1300     0.2526
     17  C6A        9.8610    3.4900   18.9270 C.2   1300  NAJ1300     0.4393
     18  N6A       10.2110    2.9740   20.1010 N.pl3 1300  NAJ1300     0.2180
     19  N1A       10.7070    3.4980   17.8740 N.2   1300  NAJ1300     0.0021
     20  C2A       10.3840    4.0880   16.7200 C.3   1300  NAJ1300     0.5254
     21  N3A        9.2090    4.7040   16.5540 N.2   1300  NAJ1300    -0.0055
     22  C4A        8.3110    4.7500   17.5680 C.2   1300  NAJ1300     0.3518
     23  O3         2.9850   11.7970   17.3390 O.3   1300  NAJ1300    -0.2703
     24  PN         3.6500   13.2120   16.9860 P.3   1300  NAJ1300     0.2189
     25  O1N        2.9630   14.1980   17.8410 O.3   1300  NAJ1300    -0.4371
     26  O2N        3.6190   13.4240   15.5210 O.2   1300  NAJ1300    -0.5170
     27  O5D        5.1600   12.9670   17.4770 O.3   1300  NAJ1300    -0.3112
     28  C5D        5.4040   12.9700   18.8880 C.3   1300  NAJ1300     0.1813
     29  C4D        6.5280   13.9230   19.2860 C.3   1300  NAJ1300     0.1799
     30  O4D        6.1320   15.3150   19.2450 O.3   1300  NAJ1300    -0.3327
     31  C3D        6.9240   13.6340   20.7150 C.3   1300  NAJ1300     0.2158
     32  O3D        8.3310   13.8210   20.9430 O.3   1300  NAJ1300    -0.2175
     33  C2D        6.0320   14.5820   21.4730 C.3   1300  NAJ1300     0.2309
     34  O2D        6.6690   14.7810   22.7290 O.3   1300  NAJ1300    -0.2158
     35  C1D        6.0110   15.8290   20.5920 C.3   1300  NAJ1300     0.2263
     36  N1N        4.8030   16.7070   20.7570 N.pl3 1300  NAJ1300    -0.2787
     37  C2N        3.6470   16.4980   19.9750 C.3   1300  NAJ1300     0.1244
     38  C3N        2.4580   17.1820   20.2240 C.2   1300  NAJ1300     0.0544
     39  C7N        1.3180   17.0230   19.2200 C.2   1300  NAJ1300     0.2818
     40  O7N        1.5470   16.5870   18.0930 O.2   1300  NAJ1300    -0.2670
     41  N7N        0.1090   17.3960   19.6370 N.am  1300  NAJ1300    -0.0839
     42  C4N        2.3920   18.0990   21.2760 C.2   1300  NAJ1300     0.0033
     43  C5N        3.5260   18.3610   22.0470 C.2   1300  NAJ1300     0.0157
     44  C6N        4.7250   17.6780   21.7870 C.2   1300  NAJ1300     0.0633
@<TRIPOS>BOND
     1     9     8    1
     2    26    24    2
     3     3     1    2
     4     8     6    1
     5     8    10    1
     6     4     5    1
     7     4     1    1
     8     6     5    1
     9     6     7    1
    10    11    10    1
    11    21    20    1
    12    21    22    2
    13     1    23    1
    14     1     2    1
    15    20    19    1
    16    10    12    1
    17    12     7    1
    18    12    13    1
    19    24    23    1
    20    24    27    1
    21    24    25    1
    22    27    28    1
    23    22    13    1
    24    22    16    1
    25    13    14    1
    26    19    17    2
    27    40    39    2
    28    16    17    1
    29    16    15    2
    30    28    29    1
    31    17    18    1
    32    14    15    1
    33    39    41   am
    34    39    38    1
    35    30    29    1
    36    30    35    1
    37    29    31    1
    38    37    38    1
    39    37    36    1
    40    38    42    2
    41    35    36    1
    42    35    33    1
    43    31    32    1
    44    31    33    1
    45    36    44    1
    46    42    43    1
    47    33    34    1
    48    44    43    2
