@<TRIPOS>MOLECULE
2bgm_MAX_A_1.pdb
 26 28 0 0 0
SMALL
GASTEIGER

@<TRIPOS>ATOM
      1  C1        -1.1890   19.6060   25.8350 C.ar  6001  MAX6001     0.0360
      2  C2        -0.1150   20.4250   25.8190 C.ar  6001  MAX6001     0.1771
      3  C3         0.7280   20.3660   24.7600 C.ar  6001  MAX6001     0.2293
      4  C4         0.4650   19.5150   23.7540 C.ar  6001  MAX6001     0.0449
      5  C5        -0.6080   18.7070   23.7810 C.ar  6001  MAX6001    -0.0008
      6  C6        -1.4460   18.7410   24.8320 C.ar  6001  MAX6001    -0.0188
      7  C7        -2.6060   17.7740   24.9200 C.3   6001  MAX6001     0.0307
      8  C8        -2.1710   16.3260   25.2730 C.3   6001  MAX6001     0.0591
      9  C9        -1.3890   15.3910   24.3380 C.3   6001  MAX6001     0.2092
     10  O10       -0.0110   15.4550   24.7900 O.3   6001  MAX6001    -0.4485
     11  C11        0.0480   15.9130   26.0730 C.2   6001  MAX6001     0.3169
     12  C12       -1.3310   16.2620   26.5620 C.3   6001  MAX6001     0.1073
     13  O13        1.0450   15.8070   26.7550 O.2   6001  MAX6001    -0.2501
     14  C14       -2.3020   15.6880   27.6430 C.3   6001  MAX6001     0.0377
     15  C15       -2.1180   14.2170   27.9460 C.ar  6001  MAX6001    -0.0184
     16  C16       -3.1590   13.3660   27.8950 C.ar  6001  MAX6001    -0.0008
     17  C17       -2.9770   12.0700   28.1960 C.ar  6001  MAX6001     0.0449
     18  C18       -1.7660   11.5980   28.5500 C.ar  6001  MAX6001     0.2293
     19  C19       -0.7090   12.4390   28.6060 C.ar  6001  MAX6001     0.1771
     20  C20       -0.9070   13.7380   28.2970 C.ar  6001  MAX6001     0.0360
     21  O21        0.3550   12.0780   29.3910 O.3   6001  MAX6001    -0.4682
     22  C22        1.5290   11.5380   28.8150 C.3   6001  MAX6001     0.2526
     23  O23       -1.5640   10.2500   28.4930 O.3   6001  MAX6001    -0.2833
     24  O24        2.0640   20.5970   24.9130 O.3   6001  MAX6001    -0.2833
     25  O25       -0.0550   21.5280   26.6360 O.3   6001  MAX6001    -0.4682
     26  C26       -0.9490   22.6200   26.4950 C.3   6001  MAX6001     0.2526
@<TRIPOS>BOND
     1     4     5   ar
     2     4     3   ar
     3     5     6   ar
     4     9    10    1
     5     9     8    1
     6     3    24    1
     7     3     2   ar
     8    10    11    1
     9     6     7    1
    10     6     1   ar
    11     7     8    1
    12     8    12    1
    13     2     1   ar
    14     2    25    1
    15    11    12    1
    16    11    13    2
    17    26    25    1
    18    12    14    1
    19    14    15    1
    20    16    15   ar
    21    16    17   ar
    22    15    20   ar
    23    17    18   ar
    24    20    19   ar
    25    23    18    1
    26    18    19   ar
    27    19    21    1
    28    22    21    1
