@<TRIPOS>MOLECULE
2bgm_NAJ_A_1.pdb
 44 48 0 0 0
SMALL
GASTEIGER

@<TRIPOS>ATOM
      1  PA         2.8450   10.3420   16.6190 P.3   1300  NAJ1300     0.2189
      2  O1A        2.5430    9.3720   17.6920 O.3   1300  NAJ1300    -0.4371
      3  O2A        1.8990   10.5040   15.4970 O.2   1300  NAJ1300    -0.5170
      4  O5B        4.3430   10.1060   16.0510 O.3   1300  NAJ1300    -0.3112
      5  C5B        5.4260    9.6390   16.8830 C.3   1300  NAJ1300     0.1813
      6  C4B        5.9580    8.3440   16.2790 C.3   1300  NAJ1300     0.1821
      7  O4B        6.8180    7.6600   17.2080 O.3   1300  NAJ1300    -0.3135
      8  C3B        4.8480    7.3430   15.9520 C.3   1300  NAJ1300     0.2184
      9  O3B        4.6790    7.1960   14.5380 O.3   1300  NAJ1300    -0.2174
     10  C2B        5.2650    6.0260   16.6080 C.3   1300  NAJ1300     0.2570
     11  O2B        5.0540    4.8780   15.7800 O.3   1300  NAJ1300    -0.2130
     12  C1B        6.7240    6.2700   16.8480 C.3   1300  NAJ1300     0.3186
     13  N9A        7.2610    5.3410   17.8550 N.pl3 1300  NAJ1300    -0.1439
     14  C8A        6.7710    5.0340   19.0670 C.3   1300  NAJ1300     0.3377
     15  N7A        7.6280    4.2520   19.7320 N.2   1300  NAJ1300    -0.2095
     16  C5A        8.6310    4.0920   18.8820 C.2   1300  NAJ1300     0.2526
     17  C6A        9.7590    3.3390   19.1030 C.2   1300  NAJ1300     0.4393
     18  N6A        9.9940    2.8020   20.2930 N.pl3 1300  NAJ1300     0.2180
     19  N1A       10.6420    3.2700   18.0820 N.2   1300  NAJ1300     0.0021
     20  C2A       10.4460    3.8990   16.9230 C.3   1300  NAJ1300     0.5254
     21  N3A        9.3560    4.6210   16.7250 N.2   1300  NAJ1300    -0.0055
     22  C4A        8.4310    4.7360   17.6930 C.2   1300  NAJ1300     0.3518
     23  O3         2.9550   11.7540   17.3810 O.3   1300  NAJ1300    -0.2703
     24  PN         3.5550   13.2260   17.0820 P.3   1300  NAJ1300     0.2189
     25  O1N        2.5120   14.1900   17.5160 O.3   1300  NAJ1300    -0.4371
     26  O2N        4.0690   13.3080   15.6970 O.2   1300  NAJ1300    -0.5170
     27  O5D        4.8110   13.1880   18.1010 O.3   1300  NAJ1300    -0.3112
     28  C5D        6.1750   13.4720   17.7370 C.3   1300  NAJ1300     0.1813
     29  C4D        6.9250   14.0560   18.9380 C.3   1300  NAJ1300     0.1799
     30  O4D        6.3800   15.3460   19.3070 O.3   1300  NAJ1300    -0.3327
     31  C3D        6.8420   13.2420   20.2130 C.3   1300  NAJ1300     0.2158
     32  O3D        8.0920   13.3210   20.9000 O.3   1300  NAJ1300    -0.2175
     33  C2D        5.7690   13.9480   21.0220 C.3   1300  NAJ1300     0.2309
     34  O2D        5.9030   13.6330   22.3950 O.3   1300  NAJ1300    -0.2158
     35  C1D        6.1000   15.3890   20.7220 C.3   1300  NAJ1300     0.2263
     36  N1N        5.0320   16.3800   21.0220 N.pl3 1300  NAJ1300    -0.2787
     37  C2N        3.7140   16.2140   20.5390 C.3   1300  NAJ1300     0.1244
     38  C3N        2.7280   17.1850   20.7420 C.2   1300  NAJ1300     0.0544
     39  C7N        1.4480   17.1850   19.8870 C.2   1300  NAJ1300     0.2818
     40  O7N        0.5030   17.9270   20.1660 O.2   1300  NAJ1300    -0.2670
     41  N7N        1.4330   16.3550   18.8470 N.am  1300  NAJ1300    -0.0839
     42  C4N        3.0430   18.3150   21.4990 C.2   1300  NAJ1300     0.0033
     43  C5N        4.3390   18.5040   21.9810 C.2   1300  NAJ1300     0.0157
     44  C6N        5.3320   17.5580   21.7320 C.2   1300  NAJ1300     0.0633
@<TRIPOS>BOND
     1     9     8    1
     2     3     1    2
     3    26    24    2
     4    11    10    1
     5     8     6    1
     6     8    10    1
     7     4     1    1
     8     4     5    1
     9     6     5    1
    10     6     7    1
    11    10    12    1
    12     1    23    1
    13     1     2    1
    14    21    20    1
    15    21    22    2
    16    12     7    1
    17    12    13    1
    18    20    19    1
    19    24    23    1
    20    24    25    1
    21    24    27    1
    22    22    13    1
    23    22    16    1
    24    28    27    1
    25    28    29    1
    26    13    14    1
    27    19    17    2
    28    41    39   am
    29    16    17    1
    30    16    15    2
    31    29    30    1
    32    29    31    1
    33    14    15    1
    34    17    18    1
    35    30    35    1
    36    39    40    2
    37    39    38    1
    38    31    32    1
    39    31    33    1
    40    37    38    1
    41    37    36    1
    42    35    36    1
    43    35    33    1
    44    38    42    2
    45    36    44    1
    46    33    34    1
    47    42    43    1
    48    44    43    2
