@<TRIPOS>MOLECULE
2bgn_MAN_A_1.pdb
 11 11 0 0 0
SMALL
GASTEIGER

@<TRIPOS>ATOM
      1  C1        15.0380   33.7540  130.3470 C.3   833  MAN833      0.1777
      2  C2        14.6110   34.0100  131.7930 C.3   833  MAN833      0.2141
      3  C3        15.5370   34.9760  132.5540 C.3   833  MAN833      0.2173
      4  C4        15.7280   36.2270  131.6990 C.3   833  MAN833      0.2142
      5  C5        16.2160   35.8920  130.2860 C.3   833  MAN833      0.1810
      6  C6        17.6950   35.4610  130.1740 C.3   833  MAN833      0.2141
      7  O2        14.4730   32.7730  132.4620 O.3   833  MAN833     -0.2176
      8  O3        16.7960   34.4550  132.9550 O.3   833  MAN833     -0.2175
      9  O4        14.4840   36.8940  131.5760 O.3   833  MAN833     -0.2176
     10  O5        15.2930   34.9810  129.6840 O.3   833  MAN833     -0.3481
     11  O6        18.6360   36.3900  130.6800 O.3   833  MAN833     -0.2176
@<TRIPOS>BOND
     1    10     5    1
     2    10     1    1
     3     6     5    1
     4     6    11    1
     5     5     4    1
     6     1     2    1
     7     9     4    1
     8     4     3    1
     9     2     7    1
    10     2     3    1
    11     3     8    1
