@<TRIPOS>MOLECULE
2bgr_III_Y_1.pdb
 23 23 0 0 0
SMALL
GASTEIGER

@<TRIPOS>ATOM
      1  N         38.5330   52.2340   34.2950 N.3     1  MET1       -0.1230
      2  CA        38.2470   51.8580   35.7040 C.3     1  MET1        0.1702
      3  C         39.2650   52.3190   36.7640 C.2     1  MET1        0.2592
      4  O         40.2300   53.0630   36.4910 O.2     1  MET1       -0.2718
      5  CB        38.0020   50.3430   35.8330 C.3     1  MET1        0.0401
      6  CG        36.5600   49.9690   35.6080 C.3     1  MET1        0.0596
      7  SD        35.9270   48.6170   36.5910 S.3     1  MET1       -0.1393
      8  CE        34.6330   48.0300   35.5040 C.3     1  MET1        0.0692
      9  N         38.9690   51.8700   37.9820 N.am    2  ASP2       -0.1960
     10  CA        39.6430   52.2240   39.2280 C.3     2  ASP2        0.1825
     11  C         41.1210   51.8240   39.2170 C.2     2  ASP2        0.2464
     12  O         41.4540   50.6890   38.8610 O.2     2  ASP2       -0.2730
     13  CB        38.9170   51.4940   40.3680 C.3     2  ASP2        0.1450
     14  CG        37.4270   51.2740   40.0700 C.2     2  ASP2        0.3671
     15  OD1       36.6320   52.2370   40.2050 O.co2   2  ASP2       -0.2456
     16  OD2       36.9600   50.1860   39.6610 O.co2   2  ASP2       -0.2456
     17  N         42.0060   52.7260   39.6390 N.am    3  PRO3       -0.2727
     18  CA        43.4610   52.4960   39.5120 C.3     3  PRO3        0.1402
     19  C         43.9840   51.3480   40.3770 C.2     3  PRO3        0.2269
     20  O         44.2210   50.2490   39.8620 O.2     3  PRO3       -0.2865
     21  CB        44.0920   53.8200   39.9560 C.3     3  PRO3        0.0296
     22  CG        43.0090   54.5680   40.7050 C.3     3  PRO3        0.0237
     23  CD        41.6790   53.9960   40.3120 C.3     3  PRO3        0.0939
@<TRIPOS>BOND
     1     1     2    1
     2     8     7    1
     3     6     5    1
     4     6     7    1
     5     2     5    1
     6     2     3    1
     7     4     3    2
     8     3     9   am
     9     9    10    1
    10    12    11    2
    11    11    10    1
    12    11    17   am
    13    10    13    1
    14    18    17    1
    15    18    21    1
    16    18    19    1
    17    17    23    1
    18    16    14   ar
    19    20    19    2
    20    21    22    1
    21    14    15   ar
    22    14    13    1
    23    23    22    1
