@<TRIPOS>MOLECULE
2bgs_NDP_A_1.pdb
 48 52 0 0 0
SMALL
GASTEIGER

@<TRIPOS>ATOM
      1  PA        54.3560   53.2190   20.2650 P.3   1321  NDP1321     0.2189
      2  O1A       53.7870   52.8490   21.6180 O.3   1321  NDP1321    -0.4371
      3  O2A       54.2410   52.2670   19.1380 O.2   1321  NDP1321    -0.5170
      4  O5B       55.8650   53.6790   20.5980 O.3   1321  NDP1321    -0.3112
      5  C5B       56.6810   54.2450   19.5220 C.3   1321  NDP1321     0.1813
      6  C4B       58.0200   54.6500   20.1130 C.3   1321  NDP1321     0.1820
      7  O4B       58.7240   53.4360   20.4610 O.3   1321  NDP1321    -0.3136
      8  C3B       58.9430   55.3440   19.1330 C.3   1321  NDP1321     0.2157
      9  O3B       59.7340   56.2700   19.9000 O.3   1321  NDP1321    -0.2175
     10  C2B       59.7720   54.2200   18.5520 C.3   1321  NDP1321     0.2314
     11  O2B       60.9860   54.7390   18.0580 O.3   1321  NDP1321    -0.2630
     12  C1B       59.9470   53.3010   19.7250 C.3   1321  NDP1321     0.3158
     13  N9A       59.9890   51.8850   19.4460 N.pl3 1321  NDP1321    -0.1439
     14  C8A       59.3010   51.1890   18.4450 C.3   1321  NDP1321     0.3377
     15  N7A       59.5340   49.8940   18.4790 N.2   1321  NDP1321    -0.2095
     16  C5A       60.3900   49.7330   19.5340 C.2   1321  NDP1321     0.2526
     17  C6A       61.0090   48.5770   20.1180 C.2   1321  NDP1321     0.4393
     18  N6A       60.8040   47.3240   19.6620 N.pl3 1321  NDP1321     0.2180
     19  N1A       61.8290   48.7930   21.1910 N.2   1321  NDP1321     0.0021
     20  C2A       62.0440   50.0330   21.6780 C.3   1321  NDP1321     0.5254
     21  N3A       61.5020   51.1970   21.2110 N.2   1321  NDP1321    -0.0055
     22  C4A       60.6820   50.9620   20.1340 C.2   1321  NDP1321     0.3518
     23  O3        53.9000   54.6750   19.8030 O.3   1321  NDP1321    -0.2703
     24  PN        52.7410   55.4960   19.1370 P.3   1321  NDP1321     0.2189
     25  O1N       53.2350   55.9610   17.8290 O.2   1321  NDP1321    -0.5170
     26  O2N       52.3630   56.4880   20.1890 O.3   1321  NDP1321    -0.4371
     27  O5D       51.4970   54.5270   18.9740 O.3   1321  NDP1321    -0.3112
     28  C5D       51.4010   53.5750   17.9090 C.3   1321  NDP1321     0.1813
     29  C4D       50.3960   54.0250   16.8880 C.3   1321  NDP1321     0.1799
     30  O4D       49.1020   54.1790   17.4830 O.3   1321  NDP1321    -0.3327
     31  C3D       50.6370   55.3830   16.2250 C.3   1321  NDP1321     0.2158
     32  O3D       51.7560   55.4380   15.3620 O.3   1321  NDP1321    -0.2175
     33  C2D       49.2710   55.6410   15.5920 C.3   1321  NDP1321     0.2309
     34  O2D       49.2230   54.9070   14.3640 O.3   1321  NDP1321    -0.2158
     35  C1D       48.3440   55.1440   16.7430 C.3   1321  NDP1321     0.2263
     36  N1N       47.9490   56.2600   17.6920 N.pl3 1321  NDP1321    -0.2787
     37  C2N       46.6210   56.6970   17.6560 C.3   1321  NDP1321     0.1244
     38  C3N       46.2040   57.7390   18.4980 C.2   1321  NDP1321     0.0544
     39  C7N       44.7980   58.2200   18.5070 C.2   1321  NDP1321     0.2818
     40  O7N       44.5170   59.2710   19.1290 O.2   1321  NDP1321    -0.2670
     41  N7N       43.9080   57.4540   17.8800 N.am  1321  NDP1321    -0.0839
     42  C4N       47.1400   58.3570   19.3870 C.2   1321  NDP1321     0.0033
     43  C5N       48.4820   57.9000   19.4230 C.2   1321  NDP1321     0.0157
     44  C6N       48.8790   56.8600   18.5850 C.2   1321  NDP1321     0.0633
     45  P2B       61.4820   54.4230   16.5580 P.3   1321  NDP1321     0.5328
     46  O1X       60.4490   54.8490   15.5580 O.2   1321  NDP1321    -0.2224
     47  O2X       62.7670   55.2360   16.5440 O.3   1321  NDP1321    -0.1145
     48  O3X       61.7330   52.9340   16.4990 O.3   1321  NDP1321    -0.1145
@<TRIPOS>BOND
     1    34    33    1
     2    32    31    1
     3    46    45    2
     4    33    31    1
     5    33    35    1
     6    31    29    1
     7    48    45    1
     8    47    45    1
     9    45    11    1
    10    35    30    1
    11    35    36    1
    12    29    30    1
    13    29    28    1
    14    37    36    1
    15    37    38    1
    16    36    44    1
    17    25    24    2
    18    41    39   am
    19    28    27    1
    20    11    10    1
    21    14    15    1
    22    14    13    1
    23    15    16    2
    24    38    39    1
    25    38    42    2
    26    39    40    2
    27    10     8    1
    28    10    12    1
    29    44    43    2
    30    27    24    1
    31     8     9    1
    32     8     6    1
    33    24    23    1
    34    24    26    1
    35     3     1    2
    36    42    43    1
    37    13    12    1
    38    13    22    1
    39     5     6    1
    40     5     4    1
    41    16    17    1
    42    16    22    1
    43    18    17    1
    44    12     7    1
    45    23     1    1
    46     6     7    1
    47    17    19    2
    48    22    21    2
    49     1     4    1
    50     1     2    1
    51    19    20    1
    52    21    20    1
