@<TRIPOS>MOLECULE
2bgv_HEC_X_1.pdb
 43 50 0 0 0
SMALL
GASTEIGER

@<TRIPOS>ATOM
      1 FE         42.3770   10.1160    2.0960 Fe    1121  HEC1121     0.0000
      2  CHA       45.3320   11.0870    0.7380 C.2   1121  HEC1121     0.0000
      3  CHB       43.3060    6.8430    1.7430 C.2   1121  HEC1121     0.0000
      4  CHC       39.6330    9.1800    3.9000 C.2   1121  HEC1121     0.0000
      5  CHD       41.1970   13.3010    1.9460 C.2   1121  HEC1121     0.0000
      6  NA        44.0210    9.1400    1.3790 N.ar  1121  HEC1121     0.0000
      7  C1A       45.1550    9.7430    0.8770 C.ar  1121  HEC1121     0.0000
      8  C2A       46.0840    8.6930    0.4530 C.ar  1121  HEC1121     0.0000
      9  C3A       45.5140    7.5110    0.7480 C.ar  1121  HEC1121     0.0000
     10  C4A       44.2180    7.7720    1.3420 C.ar  1121  HEC1121     0.0000
     11  CMA       46.1250    6.1120    0.5240 C.3   1121  HEC1121     0.0000
     12  CAA       47.4590    8.8970   -0.2300 C.3   1121  HEC1121     0.0000
     13  CBA       47.1660    8.9870   -1.7310 C.3   1121  HEC1121     0.0000
     14  CGA       48.3850    9.1430   -2.6280 C.2   1121  HEC1121     0.0000
     15  O1A       48.1900    9.3760   -3.8510 O.co2 1121  HEC1121     0.0000
     16  O2A       49.5260    9.0190   -2.1630 O.co2 1121  HEC1121     0.0000
     17  NB        41.6280    8.3560    2.6960 N.2   1121  HEC1121     0.0000
     18  C1B       42.1230    7.1150    2.3930 C.2   1121  HEC1121     0.0000
     19  C2B       41.2150    6.1150    2.9180 C.2   1121  HEC1121     0.0000
     20  C3B       40.2090    6.7550    3.5140 C.2   1121  HEC1121     0.0000
     21  C4B       40.4460    8.1770    3.3970 C.2   1121  HEC1121     0.0000
     22  CMB       41.4340    4.6080    2.7310 C.3   1121  HEC1121     0.0000
     23  CAB       39.0160    6.1490    4.2640 C.3   1121  HEC1121     0.0000
     24  CBB       39.3810    5.3350    5.2840 C.3   1121  HEC1121     0.0000
     25  NC        40.7410   11.0890    2.8600 N.ar  1121  HEC1121     0.0000
     26  C1C       39.6810   10.5020    3.5290 C.ar  1121  HEC1121     0.0000
     27  C2C       38.6480   11.5050    3.7320 C.ar  1121  HEC1121     0.0000
     28  C3C       39.0940   12.6570    3.1910 C.ar  1121  HEC1121     0.0000
     29  C4C       40.4080   12.3960    2.6100 C.ar  1121  HEC1121     0.0000
     30  CMC       37.3100   11.2570    4.4310 C.3   1121  HEC1121     0.0000
     31  CAC       38.3840   14.0190    3.1240 C.2   1121  HEC1121     0.0000
     32  CBC       37.8760   14.5310    4.2580 C.2   1121  HEC1121     0.0000
     33  ND        43.1240   11.8940    1.4300 N.2   1121  HEC1121     0.0000
     34  C1D       42.4740   13.1100    1.5190 C.2   1121  HEC1121     0.0000
     35  C2D       43.3520   14.1640    1.0440 C.2   1121  HEC1121     0.0000
     36  C3D       44.6430   13.4710    0.7050 C.2   1121  HEC1121     0.0000
     37  C4D       44.4150   12.0700    0.9670 C.2   1121  HEC1121     0.0000
     38  CMD       43.0370   15.6600    0.9630 C.3   1121  HEC1121     0.0000
     39  CAD       45.9460   14.1140    0.2380 C.3   1121  HEC1121     0.0000
     40  CBD       46.8700   14.0800    1.4690 C.3   1121  HEC1121     0.0000
     41  CGD       47.9380   15.1460    1.4370 C.2   1121  HEC1121     0.0000
     42  O1D       48.2190   15.6750    0.3270 O.co2 1121  HEC1121     0.0000
     43  O2D       48.5280   15.4350    2.5210 O.co2 1121  HEC1121     0.0000
@<TRIPOS>BOND
     1    15    14   ar
     2    14    16   ar
     3    14    13    1
     4    13    12    1
     5    12     8    1
     6    39    36    1
     7    39    40    1
     8    42    41   ar
     9     8     9   ar
    10     8     7   ar
    11    11     9    1
    12    36    37    1
    13    36    35    2
    14     2     7    2
    15     2    37    1
    16     9    10   ar
    17     7     6   ar
    18    38    35    1
    19    37    33    2
    20    35    34    1
    21    10     6   ar
    22    10     3    2
    23     6     1    1
    24    33    34    1
    25    33     1    1
    26    41    40    1
    27    41    43   ar
    28    34     5    2
    29     3    18    1
    30     5    29    1
    31     1    17    1
    32     1    25    1
    33    18    17    2
    34    18    19    1
    35    29    25   ar
    36    29    28   ar
    37    17    21    1
    38    22    19    1
    39    25    26   ar
    40    19    20    2
    41    31    28    1
    42    31    32    2
    43    28    27   ar
    44    21    20    1
    45    21     4    2
    46    20    23    1
    47    26    27   ar
    48    26     4    1
    49    27    30    1
    50    23    24    1
