@<TRIPOS>MOLECULE
2bh2_SAH_A_1.pdb
 26 28 0 0 0
SMALL
GASTEIGER

@<TRIPOS>ATOM
      1  N         75.7890   -5.0940   12.8560 N.3   500  SAH500     -0.1208
      2  CA        74.6840   -4.1950   13.1940 C.3   500  SAH500      0.1952
      3  CB        74.5230   -4.2560   14.7100 C.3   500  SAH500      0.0422
      4  CG        75.7130   -3.9810   15.6300 C.3   500  SAH500      0.0597
      5  SD        75.1590   -3.7400   17.3590 S.3   500  SAH500     -0.1375
      6  C         74.9520   -2.7690   12.7540 C.2   500  SAH500      0.3819
      7  O         76.0550   -2.5050   12.1920 O.co2 500  SAH500     -0.2441
      8  OXT       74.1030   -1.8790   12.8880 O.co2 500  SAH500     -0.2441
      9  C5'       75.4000   -5.3810   18.0740 C.3   500  SAH500      0.0899
     10  C4'       74.1670   -6.2660   17.8690 C.3   500  SAH500      0.1630
     11  O4'       74.2900   -7.5380   18.5400 O.3   500  SAH500     -0.3153
     12  C3'       72.8490   -5.6010   18.3720 C.3   500  SAH500      0.2168
     13  O3'       71.9370   -5.4350   17.2930 O.3   500  SAH500     -0.2175
     14  C2'       72.3830   -6.5900   19.4560 C.3   500  SAH500      0.2569
     15  O2'       71.0160   -6.7770   19.6190 O.3   500  SAH500     -0.2130
     16  C1'       73.0040   -7.8820   19.0330 C.3   500  SAH500      0.3185
     17  N9        73.1520   -8.7670   20.1600 N.pl3 500  SAH500     -0.1439
     18  C8        73.8000   -8.5400   21.3310 C.3   500  SAH500      0.3377
     19  N7        73.7630   -9.6450   22.0790 N.2   500  SAH500     -0.2095
     20  C5        73.1170  -10.6270   21.3740 C.2   500  SAH500      0.2526
     21  C6        72.7740  -11.9500   21.6370 C.2   500  SAH500      0.4393
     22  N6        73.0380  -12.5910   22.7820 N.pl3 500  SAH500      0.2180
     23  N1        72.1040  -12.6520   20.6580 N.2   500  SAH500      0.0021
     24  C2        71.7570  -12.0920   19.4420 C.3   500  SAH500      0.5254
     25  N3        72.0510  -10.7430   19.2170 N.2   500  SAH500     -0.0055
     26  C4        72.7210  -10.0520   20.1570 C.2   500  SAH500      0.3518
@<TRIPOS>BOND
     1     7     6   ar
     2     6     8   ar
     3     6     2    1
     4     1     2    1
     5     2     3    1
     6     3     4    1
     7     4     5    1
     8    13    12    1
     9     5     9    1
    10    10     9    1
    11    10    12    1
    12    10    11    1
    13    12    14    1
    14    11    16    1
    15    16    14    1
    16    16    17    1
    17    25    24    1
    18    25    26    2
    19    24    23    1
    20    14    15    1
    21    26    17    1
    22    26    20    1
    23    17    18    1
    24    23    21    2
    25    18    19    1
    26    20    21    1
    27    20    19    2
    28    21    22    1
