@<TRIPOS>MOLECULE
2bh4_HEC_X_1.pdb
 43 50 0 0 0
SMALL
GASTEIGER

@<TRIPOS>ATOM
      1 FE          6.9940   10.0040   34.9540 Fe    1123  HEC1123     0.0000
      2  CHA        5.8660    6.8820   34.2310 C.2   1123  HEC1123     0.0000
      3  CHB        4.3430   11.3500   33.2700 C.2   1123  HEC1123     0.0000
      4  CHC        7.8990   13.1410   36.0010 C.2   1123  HEC1123     0.0000
      5  CHD        9.9550    8.7720   36.1120 C.2   1123  HEC1123     0.0000
      6  NA         5.4170    9.2530   33.9550 N.ar  1123  HEC1123     0.0000
      7  C1A        5.0990    7.9250   33.7710 C.ar  1123  HEC1123     0.0000
      8  C2A        3.8730    7.7910   33.0350 C.ar  1123  HEC1123     0.0000
      9  C3A        3.4510    9.0390   32.7770 C.ar  1123  HEC1123     0.0000
     10  C4A        4.4070    9.9750   33.3480 C.ar  1123  HEC1123     0.0000
     11  CMA        2.1760    9.4230   32.0220 C.3   1123  HEC1123     0.0000
     12  CAA        3.2460    6.4610   32.6000 C.3   1123  HEC1123     0.0000
     13  CBA        3.8370    6.1190   31.2340 C.3   1123  HEC1123     0.0000
     14  CGA        3.4020    4.8050   30.6280 C.2   1123  HEC1123     0.0000
     15  O1A        4.0140    4.4190   29.5780 O.co2 1123  HEC1123     0.0000
     16  O2A        2.4630    4.1400   31.1440 O.co2 1123  HEC1123     0.0000
     17  NB         6.2630   11.8950   34.6840 N.2   1123  HEC1123     0.0000
     18  C1B        5.1980   12.2320   33.8780 C.2   1123  HEC1123     0.0000
     19  C2B        5.0690   13.6730   33.8840 C.2   1123  HEC1123     0.0000
     20  C3B        6.0140   14.1580   34.6780 C.2   1123  HEC1123     0.0000
     21  C4B        6.8150   13.0580   35.1790 C.2   1123  HEC1123     0.0000
     22  CMB        4.0110   14.4480   33.0830 C.3   1123  HEC1123     0.0000
     23  CAB        6.2500   15.6390   35.0410 C.3   1123  HEC1123     0.0000
     24  CBB        5.2020   16.2320   35.6870 C.3   1123  HEC1123     0.0000
     25  NC         8.5920   10.8090   35.8570 N.ar  1123  HEC1123     0.0000
     26  C1C        8.7800   12.1010   36.2540 C.ar  1123  HEC1123     0.0000
     27  C2C       10.0670   12.2380   36.8980 C.ar  1123  HEC1123     0.0000
     28  C3C       10.6610   11.0390   36.9430 C.ar  1123  HEC1123     0.0000
     29  C4C        9.7420   10.1320   36.2640 C.ar  1123  HEC1123     0.0000
     30  CMC       10.6030   13.5780   37.4410 C.3   1123  HEC1123     0.0000
     31  CAC       12.0460   10.6360   37.5210 C.2   1123  HEC1123     0.0000
     32  CBC       12.4370   10.9960   38.7740 C.2   1123  HEC1123     0.0000
     33  ND         7.7710    8.1700   35.1450 N.2   1123  HEC1123     0.0000
     34  C1D        9.0140    7.8760   35.6880 C.2   1123  HEC1123     0.0000
     35  C2D        9.1560    6.4430   35.8200 C.2   1123  HEC1123     0.0000
     36  C3D        7.9080    5.8690   35.2570 C.2   1123  HEC1123     0.0000
     37  C4D        7.0640    7.0030   34.8590 C.2   1123  HEC1123     0.0000
     38  CMD       10.3280    5.6290   36.3760 C.3   1123  HEC1123     0.0000
     39  CAD        7.5830    4.3630   35.2410 C.3   1123  HEC1123     0.0000
     40  CBD        6.6940    4.1830   36.4870 C.3   1123  HEC1123     0.0000
     41  CGD        6.5780    2.7370   36.9610 C.2   1123  HEC1123     0.0000
     42  O1D        7.0260    1.8310   36.2240 O.co2 1123  HEC1123     0.0000
     43  O2D        6.0070    2.4930   38.0550 O.co2 1123  HEC1123     0.0000
@<TRIPOS>BOND
     1    15    14   ar
     2    14    16   ar
     3    14    13    1
     4    13    12    1
     5    11     9    1
     6    12     8    1
     7     9     8   ar
     8     9    10   ar
     9     8     7   ar
    10    22    19    1
    11     3    10    2
    12     3    18    1
    13    10     6   ar
    14     7     6   ar
    15     7     2    2
    16    18    19    1
    17    18    17    2
    18    19    20    2
    19     6     1    1
    20     2    37    1
    21    20    23    1
    22    20    21    1
    23    17     1    1
    24    17    21    1
    25    37    33    2
    26    37    36    1
    27     1    33    1
    28     1    25    1
    29    23    24    1
    30    33    34    1
    31    21     4    2
    32    39    36    1
    33    39    40    1
    34    36    35    2
    35    34    35    1
    36    34     5    2
    37    35    38    1
    38    25    26   ar
    39    25    29   ar
    40     4    26    1
    41     5    29    1
    42    42    41   ar
    43    26    27   ar
    44    29    28   ar
    45    40    41    1
    46    27    28   ar
    47    27    30    1
    48    28    31    1
    49    41    43   ar
    50    31    32    2
