@<TRIPOS>MOLECULE
2bh5_HEC_X_1.pdb
 43 50 0 0 0
SMALL
GASTEIGER

@<TRIPOS>ATOM
      1 FE          6.7640   10.0100   35.1180 Fe    1123  HEC1123     0.0000
      2  CHA        5.5740    6.8820   34.5490 C.2   1123  HEC1123     0.0000
      3  CHB        4.1810   11.3680   33.4310 C.2   1123  HEC1123     0.0000
      4  CHC        7.6580   13.1090   36.2900 C.2   1123  HEC1123     0.0000
      5  CHD        9.6990    8.7390   36.3590 C.2   1123  HEC1123     0.0000
      6  NA         5.1770    9.2770   34.2000 N.ar  1123  HEC1123     0.0000
      7  C1A        4.8600    7.9390   34.0380 C.ar  1123  HEC1123     0.0000
      8  C2A        3.6520    7.8280   33.2570 C.ar  1123  HEC1123     0.0000
      9  C3A        3.2720    9.0780   32.9420 C.ar  1123  HEC1123     0.0000
     10  C4A        4.2140   10.0060   33.5250 C.ar  1123  HEC1123     0.0000
     11  CMA        2.0370    9.4750   32.1160 C.3   1123  HEC1123     0.0000
     12  CAA        2.9920    6.4890   32.8140 C.3   1123  HEC1123     0.0000
     13  CBA        3.6720    6.0920   31.4920 C.3   1123  HEC1123     0.0000
     14  CGA        3.1480    4.8310   30.8050 C.2   1123  HEC1123     0.0000
     15  O1A        3.7680    4.4310   29.7860 O.co2 1123  HEC1123     0.0000
     16  O2A        2.1180    4.2420   31.2120 O.co2 1123  HEC1123     0.0000
     17  NB         6.0320   11.9060   34.9110 N.2   1123  HEC1123     0.0000
     18  C1B        4.9930   12.2370   34.1070 C.2   1123  HEC1123     0.0000
     19  C2B        4.8660   13.6830   34.1180 C.2   1123  HEC1123     0.0000
     20  C3B        5.8300   14.1710   34.9180 C.2   1123  HEC1123     0.0000
     21  C4B        6.5920   13.0460   35.4260 C.2   1123  HEC1123     0.0000
     22  CMB        3.7930   14.4300   33.3040 C.3   1123  HEC1123     0.0000
     23  CAB        6.0720   15.6350   35.3190 C.3   1123  HEC1123     0.0000
     24  CBB        5.0230   16.1820   35.9890 C.3   1123  HEC1123     0.0000
     25  NC         8.3790   10.7890   36.1440 N.ar  1123  HEC1123     0.0000
     26  C1C        8.5440   12.0940   36.5400 C.ar  1123  HEC1123     0.0000
     27  C2C        9.8150   12.1960   37.2290 C.ar  1123  HEC1123     0.0000
     28  C3C       10.3710   10.9760   37.2530 C.ar  1123  HEC1123     0.0000
     29  C4C        9.4860   10.0830   36.5620 C.ar  1123  HEC1123     0.0000
     30  CMC       10.3820   13.5090   37.8020 C.3   1123  HEC1123     0.0000
     31  CAC       11.7340   10.5390   37.8460 C.2   1123  HEC1123     0.0000
     32  CBC       12.0940   10.8910   39.0990 C.2   1123  HEC1123     0.0000
     33  ND         7.5230    8.1250   35.3880 N.2   1123  HEC1123     0.0000
     34  C1D        8.7500    7.8430   35.9620 C.2   1123  HEC1123     0.0000
     35  C2D        8.8860    6.4070   36.0810 C.2   1123  HEC1123     0.0000
     36  C3D        7.5870    5.8290   35.5440 C.2   1123  HEC1123     0.0000
     37  C4D        6.8080    6.9650   35.1160 C.2   1123  HEC1123     0.0000
     38  CMD       10.0560    5.6380   36.7040 C.3   1123  HEC1123     0.0000
     39  CAD        7.1810    4.3600   35.4950 C.3   1123  HEC1123     0.0000
     40  CBD        6.2070    4.1930   36.6570 C.3   1123  HEC1123     0.0000
     41  CGD        6.2040    2.7880   37.2030 C.2   1123  HEC1123     0.0000
     42  O1D        6.6640    1.8610   36.4760 O.co2 1123  HEC1123     0.0000
     43  O2D        5.7140    2.6010   38.3470 O.co2 1123  HEC1123     0.0000
@<TRIPOS>BOND
     1    15    14   ar
     2    14    16   ar
     3    14    13    1
     4    13    12    1
     5    11     9    1
     6    12     8    1
     7     9     8   ar
     8     9    10   ar
     9     8     7   ar
    10    22    19    1
    11     3    10    2
    12     3    18    1
    13    10     6   ar
    14     7     6   ar
    15     7     2    2
    16    18    19    1
    17    18    17    2
    18    19    20    2
    19     6     1    1
    20     2    37    1
    21    17     1    1
    22    17    21    1
    23    20    23    1
    24    20    21    1
    25    37    33    2
    26    37    36    1
    27     1    33    1
    28     1    25    1
    29    23    24    1
    30    33    34    1
    31    21     4    2
    32    39    36    1
    33    39    40    1
    34    36    35    2
    35    34    35    1
    36    34     5    2
    37    35    38    1
    38    25    26   ar
    39    25    29   ar
    40     4    26    1
    41     5    29    1
    42    42    41   ar
    43    26    27   ar
    44    29    28   ar
    45    40    41    1
    46    41    43   ar
    47    27    28   ar
    48    27    30    1
    49    28    31    1
    50    31    32    2
