@<TRIPOS>MOLECULE
2bh9_NAP_A_1.pdb
 48 52 0 0 0
SMALL
GASTEIGER

@<TRIPOS>ATOM
      1  PA        15.6260   55.8500   41.6490 P.3   799  NAP799      0.2189
      2  O1A       14.2240   56.1790   42.0540 O.3   799  NAP799     -0.4371
      3  O2A       15.8070   54.4180   41.2420 O.2   799  NAP799     -0.5170
      4  O5B       16.4280   55.9680   42.9940 O.3   799  NAP799     -0.3112
      5  C5B       17.8390   56.0830   42.9610 C.3   799  NAP799      0.1813
      6  C4B       18.3560   55.9480   44.3730 C.3   799  NAP799      0.1820
      7  O4B       17.8360   57.0420   45.1680 O.3   799  NAP799     -0.3136
      8  C3B       17.8420   54.6630   44.9770 C.3   799  NAP799      0.2157
      9  O3B       18.9220   53.7750   45.2220 O.3   799  NAP799     -0.2175
     10  C2B       17.1380   55.0410   46.2710 C.3   799  NAP799      0.2314
     11  O2B       18.0120   54.6640   47.3300 O.3   799  NAP799     -0.2630
     12  C1B       17.0610   56.5730   46.2650 C.3   799  NAP799      0.3158
     13  N9A       15.6690   57.0940   46.2440 N.pl3 799  NAP799     -0.1439
     14  C8A       14.7100   56.9300   45.2840 C.3   799  NAP799      0.3377
     15  N7A       13.5640   57.5260   45.5570 N.2   799  NAP799     -0.2095
     16  C5A       13.7820   58.1230   46.7700 C.2   799  NAP799      0.2526
     17  C6A       12.9390   58.8850   47.5290 C.2   799  NAP799      0.4393
     18  N6A       11.6530   59.1960   47.1820 N.pl3 799  NAP799      0.2180
     19  N1A       13.4330   59.3390   48.6890 N.2   799  NAP799      0.0021
     20  C2A       14.6740   59.0360   49.0440 C.3   799  NAP799      0.5254
     21  N3A       15.5860   58.3250   48.4080 N.2   799  NAP799     -0.0055
     22  C4A       15.0570   57.8860   47.2400 C.2   799  NAP799      0.3518
     23  O3        16.2240   56.8190   40.5970 O.3   799  NAP799     -0.2703
     24  PN        17.2520   56.5230   39.4540 P.3   799  NAP799      0.2189
     25  O1N       17.8130   55.1350   39.4870 O.3   799  NAP799     -0.4371
     26  O2N       16.6970   56.8810   38.1260 O.2   799  NAP799     -0.5170
     27  O5D       18.5140   57.3930   39.5890 O.3   799  NAP799     -0.3112
     28  C5D       18.9630   57.9340   38.3980 C.3   799  NAP799      0.1813
     29  C4D       18.7730   59.4120   38.4490 C.3   799  NAP799      0.1799
     30  O4D       19.6740   59.9750   37.4650 O.3   799  NAP799     -0.3327
     31  C3D       17.3520   59.8190   38.0640 C.3   799  NAP799      0.2158
     32  O3D       16.6600   60.3800   39.1520 O.3   799  NAP799     -0.2175
     33  C2D       17.4960   60.8430   37.0370 C.3   799  NAP799      0.2309
     34  O2D       17.2250   62.1060   37.6360 O.3   799  NAP799     -0.2158
     35  C1D       18.9420   60.7620   36.5400 C.3   799  NAP799      0.2263
     36  N1N       18.7170   60.1740   35.2400 N.pl3 799  NAP799     -0.2787
     37  C2N       18.0380   59.0850   35.1770 C.3   799  NAP799      0.1244
     38  C3N       17.5940   58.5710   34.0170 C.2   799  NAP799      0.0544
     39  C7N       16.8700   57.3060   33.7230 C.2   799  NAP799      0.2818
     40  O7N       16.0570   57.2770   32.7750 O.2   799  NAP799     -0.2670
     41  N7N       17.4750   56.2420   34.3460 N.am  799  NAP799     -0.0839
     42  C4N       17.8300   59.2500   32.8750 C.2   799  NAP799      0.0033
     43  C5N       18.4990   60.4300   32.9600 C.2   799  NAP799      0.0157
     44  C6N       18.8890   60.8710   34.1690 C.2   799  NAP799      0.0633
     45  P2B       17.5410   54.4020   48.8290 P.3   799  NAP799      0.5328
     46  O1X       18.7240   53.7020   49.3800 O.3   799  NAP799     -0.1145
     47  O2X       16.3020   53.5430   48.7570 O.2   799  NAP799     -0.2224
     48  O3X       17.3250   55.7390   49.4510 O.3   799  NAP799     -0.1145
@<TRIPOS>BOND
     1    40    39    2
     2    42    43    1
     3    42    38    2
     4    43    44    2
     5    39    38    1
     6    39    41   am
     7    38    37    1
     8    44    36    1
     9    37    36    1
    10    36    35    1
    11    35    33    1
    12    35    30    1
    13    33    34    1
    14    33    31    1
    15    30    29    1
    16    31    29    1
    17    31    32    1
    18    26    24    2
    19    28    29    1
    20    28    27    1
    21    24    25    1
    22    24    27    1
    23    24    23    1
    24    23     1    1
    25     3     1    2
    26     1     2    1
    27     1     4    1
    28     5     4    1
    29     5     6    1
    30     6     8    1
    31     6     7    1
    32     8     9    1
    33     8    10    1
    34     7    12    1
    35    14    15    1
    36    14    13    1
    37    15    16    2
    38    13    12    1
    39    13    22    1
    40    12    10    1
    41    10    11    1
    42    16    22    1
    43    16    17    1
    44    18    17    1
    45    22    21    2
    46    11    45    1
    47    17    19    2
    48    21    20    1
    49    19    20    1
    50    47    45    2
    51    45    46    1
    52    45    48    1
