@<TRIPOS>MOLECULE
2bha_III_B_1.pdb
 23 23 0 0 0
SMALL
GASTEIGER

@<TRIPOS>ATOM
      1  N         30.4970   55.3640   44.7750 N.3     0  VAL0       -0.1231
      2  CA        29.0380   55.5580   44.4260 C.3     0  VAL0        0.1678
      3  C         28.9040   56.7760   43.5380 C.2     0  VAL0        0.2434
      4  O         28.9760   57.9000   44.0370 O.2     0  VAL0       -0.2733
      5  CB        28.1130   55.8130   45.6530 C.3     0  VAL0        0.0265
      6  CG1       26.6780   55.3690   45.3470 C.3     0  VAL0        0.0020
      7  CG2       28.6020   55.1060   46.8350 C.3     0  VAL0        0.0020
      8  N         28.7030   56.5710   42.2240 N.am    1  PRO1       -0.2718
      9  CA        28.6150   57.6990   41.3140 C.3     1  PRO1        0.1535
     10  C         27.5880   58.7660   41.7170 C.2     1  PRO1        0.2599
     11  O         26.4960   58.4430   42.2260 O.2     1  PRO1       -0.2715
     12  CB        28.2130   57.0450   39.9910 C.3     1  PRO1        0.0310
     13  CG        28.7050   55.6820   40.0820 C.3     1  PRO1        0.0237
     14  CD        28.5750   55.2910   41.5120 C.3     1  PRO1        0.0939
     15  N         27.9880   60.0230   41.5120 N.am    2  LEU2       -0.1942
     16  CA        27.1090   61.1970   41.5790 C.3     2  LEU2        0.1978
     17  C         27.1870   61.8210   40.1890 C.2     2  LEU2        0.3842
     18  O         26.1810   62.0960   39.5490 O.co2   2  LEU2       -0.2437
     19  CB        27.5810   62.1930   42.6550 C.3     2  LEU2        0.0333
     20  CG        26.8210   63.5190   42.8440 C.3     2  LEU2        0.0023
     21  CD1       25.4410   63.3050   43.4410 C.3     2  LEU2        0.0001
     22  CD2       27.6030   64.4800   43.7170 C.3     2  LEU2        0.0001
     23  OXT       28.2750   62.0430   39.6510 O.co2   2  LEU2       -0.2437
@<TRIPOS>BOND
     1    18    17   ar
     2    23    17   ar
     3    12    13    1
     4    12     9    1
     5    13    14    1
     6    17    16    1
     7     9    10    1
     8     9     8    1
     9    14     8    1
    10    15    16    1
    11    15    10   am
    12    16    19    1
    13    10    11    2
    14     8     3   am
    15    19    20    1
    16    20    21    1
    17    20    22    1
    18     3     4    2
    19     3     2    1
    20     2     1    1
    21     2     5    1
    22     6     5    1
    23     5     7    1
