@<TRIPOS>MOLECULE
2bhd_III_B_1.pdb
 16 16 0 0 0
SMALL
GASTEIGER

@<TRIPOS>ATOM
      1  N         28.3050   56.8570   42.3930 N.3     1  PRO1       -0.2102
      2  CA        28.4880   57.9550   41.4520 C.3     1  PRO1        0.1504
      3  C         27.4950   59.0890   41.6730 C.2     1  PRO1        0.2576
      4  O         26.3790   58.8410   42.1460 O.2     1  PRO1       -0.2718
      5  CB        28.2290   57.2930   40.1000 C.3     1  PRO1        0.0282
      6  CG        28.6270   55.9000   40.2810 C.3     1  PRO1        0.0208
      7  CD        28.3730   55.5490   41.7230 C.3     1  PRO1        0.0893
      8  N         27.9230   60.3130   41.3490 N.am    2  LEU2       -0.1944
      9  CA        27.0670   61.5130   41.3500 C.3     2  LEU2        0.1978
     10  C         27.1350   62.1390   39.9500 C.2     2  LEU2        0.3842
     11  O         26.1340   62.5510   39.3660 O.co2   2  LEU2       -0.2437
     12  CB        27.5220   62.5240   42.4290 C.3     2  LEU2        0.0333
     13  CG        26.6000   63.7030   42.8280 C.3     2  LEU2        0.0023
     14  CD1       25.2470   63.2540   43.3640 C.3     2  LEU2        0.0001
     15  CD2       27.2740   64.5800   43.8640 C.3     2  LEU2        0.0001
     16  OXT       28.2020   62.2370   39.3400 O.co2   2  LEU2       -0.2437
@<TRIPOS>BOND
     1    16    10   ar
     2    11    10   ar
     3    10     9    1
     4     5     6    1
     5     5     2    1
     6     6     7    1
     7     8     9    1
     8     8     3   am
     9     9    12    1
    10     2     3    1
    11     2     1    1
    12     3     4    2
    13     7     1    1
    14    12    13    1
    15    13    14    1
    16    13    15    1
