@<TRIPOS>MOLECULE
2bhe_BRY_A_1.pdb
 21 24 0 0 0
SMALL
GASTEIGER

@<TRIPOS>ATOM
      1  C1        23.8570    8.5190    8.1770 C.2   1299  BRY1299     0.0672
      2  C2        25.0860    7.8340    8.6340 C.2   1299  BRY1299     0.2278
      3  C3        23.1420    7.5900    7.4370 C.2   1299  BRY1299     0.1341
      4  N4        23.7920    6.3500    7.3510 N.2   1299  BRY1299    -0.3978
      5  C5        21.8820    7.9210    6.8340 C.2   1299  BRY1299     0.0279
      6  C7        21.4390    9.2470    7.0320 C.2   1299  BRY1299    -0.0188
      7  C9        22.1900   10.1710    7.7960 C.3   1299  BRY1299     0.0523
      8  C11       23.4340    9.8200    8.3730 C.2   1299  BRY1299    -0.0156
      9  C13       24.9960    6.4190    8.0720 C.2   1299  BRY1299     0.1820
     10  C14       25.8280    5.4120    8.1740 C.2   1299  BRY1299     0.1298
     11  C15       25.6010    4.1160    7.4880 C.1   1299  BRY1299     0.2074
     12  N16       26.5940    3.2470    7.8890 N.2   1299  BRY1299    -0.3328
     13  C17       27.5640    3.9300    8.6440 C.ar  1299  BRY1299     0.1452
     14  C18       27.1470    5.2570    8.8870 C.ar  1299  BRY1299     0.0456
     15  C19       28.6880    3.3900    9.1650 C.ar  1299  BRY1299     0.0336
     16  C20       29.5170    4.2150    9.9410 C.ar  1299  BRY1299     0.0094
     17  C21       29.1610    5.5580   10.1660 C.ar  1299  BRY1299     0.0348
     18  C22       27.9560    6.1060    9.6670 C.ar  1299  BRY1299     0.0101
     19  O23       24.5650    3.7780    6.8700 O.2   1299  BRY1299    -0.2092
     20  O1        25.9790    8.2830    9.3220 O.2   1299  BRY1299    -0.2837
     21 BR1        30.2820    6.6250   11.1640 Br    1299  BRY1299    -0.0490
@<TRIPOS>BOND
     1     5     6    2
     2     5     3    1
     3    19    11    2
     4     6     7    1
     5     4     3    2
     6     4     9    2
     7     3     1    1
     8    11    12    2
     9    11    10    1
    10     7     8    1
    11    12    13    2
    12     9    10    1
    13     9     2    1
    14    10    14    2
    15     1     8    2
    16     1     2    1
    17     2    20    2
    18    13    14   ar
    19    13    15   ar
    20    14    18   ar
    21    15    16   ar
    22    18    17   ar
    23    16    17   ar
    24    17    21    1
