@<TRIPOS>MOLECULE
2bhh_RYU_A_1.pdb
 31 35 0 0 0
SMALL
GASTEIGER

@<TRIPOS>ATOM
      1  C1         3.8250   24.4060    7.6960 C.2   1299  RYU1299    -0.0204
      2  C2         5.0960   24.0900    7.0670 C.3   1299  RYU1299     0.0519
      3  C3         5.4960   24.6940    5.8070 C.2   1299  RYU1299    -0.0188
      4  C4         4.7580   25.8170    5.2500 C.2   1299  RYU1299     0.0276
      5  C5         3.5880   26.2500    5.9900 C.2   1299  RYU1299     0.1292
      6  C6         3.0690   25.4890    7.1030 C.2   1299  RYU1299     0.0370
      7  C7         1.7660   25.9910    7.4890 C.3   1299  RYU1299     0.1937
      8  C71        1.7690   26.2310    8.9740 C.3   1299  RYU1299     0.0450
      9  O71        0.8090   25.1030    7.2070 O.3   1299  RYU1299    -0.2139
     10  C8         1.7140   27.1980    6.6760 C.2   1299  RYU1299     0.1519
     11  N9         2.7760   27.3830    5.7610 N.2   1299  RYU1299    -0.4029
     12  C10        0.7250   28.2490    6.7970 C.2   1299  RYU1299     0.1212
     13  C11        0.8550   29.6810    6.3290 C.1   1299  RYU1299     0.2064
     14  O11        1.7760   30.0130    5.5890 O.2   1299  RYU1299    -0.2092
     15  N12       -0.0180   30.5780    6.7730 N.2   1299  RYU1299    -0.3372
     16  C13       -0.8070   29.7740    7.6280 C.2   1299  RYU1299     0.1235
     17  C14       -0.4310   28.3720    7.6580 C.2   1299  RYU1299     0.0245
     18  C15       -1.0550   27.3510    8.4850 C.3   1299  RYU1299     0.0757
     19  C16       -1.9750   27.8860    9.4690 C.2   1299  RYU1299     0.1005
     20  C17       -2.4550   29.2590    9.4040 C.2   1299  RYU1299    -0.0028
     21  C18       -1.8780   30.2340    8.4900 C.3   1299  RYU1299     0.0867
     22  S19       -2.5620   27.0040   10.9270 S.O2  1299  RYU1299     0.0595
     23  O19       -1.5140   27.5570   12.2120 O.2   1299  RYU1299    -0.1531
     24  O1        -4.1580   27.6580   10.8240 O.2   1299  RYU1299    -0.1531
     25  N20       -2.5120   25.2420   11.1530 N.3   1299  RYU1299    -0.1557
     26  C21       -2.3020   24.6180   12.4790 C.3   1299  RYU1299     0.0984
     27  C22       -1.0040   23.8190   12.5320 C.3   1299  RYU1299     0.0521
     28  C23       -0.8360   22.8680   11.3440 C.3   1299  RYU1299     0.1549
     29  O23        0.3490   22.0640   11.3740 O.3   1299  RYU1299    -0.2231
     30  C24       -1.0710   23.5920   10.0200 C.3   1299  RYU1299     0.0521
     31  C25       -2.3850   24.3500    9.9920 C.3   1299  RYU1299     0.0984
@<TRIPOS>BOND
     1     4     3    2
     2     4     5    1
     3    14    13    2
     4    11     5    2
     5    11    10    2
     6     3     2    1
     7     5     6    1
     8    13    15    2
     9    13    12    1
    10    10    12    1
    11    10     7    1
    12    15    16    2
    13    12    17    2
    14     2     1    1
    15     6     7    1
    16     6     1    2
    17     9     7    1
    18     7     8    1
    19    16    17    1
    20    16    21    1
    21    17    18    1
    22    18    19    1
    23    21    20    1
    24    20    19    2
    25    19    22    1
    26    31    30    1
    27    31    25    1
    28    30    28    1
    29    24    22    2
    30    22    25    1
    31    22    23    2
    32    25    26    1
    33    28    29    1
    34    28    27    1
    35    26    27    1
