@<TRIPOS>MOLECULE
2bhj_FC1_A_1.pdb
 18 19 0 0 0
SMALL
GASTEIGER

@<TRIPOS>ATOM
      1  O6       -16.1850   70.6390  -23.2760 O.3   1499  FC11499    -0.4753
      2  S7       -17.2340   68.4850  -27.0980 S.2   1499  FC11499    -0.0455
      3  C8       -19.0010   70.6590  -27.3160 C.ar  1499  FC11499     0.0067
      4  C9       -19.1150   72.4180  -25.6090 C.ar  1499  FC11499     0.0001
      5  C5       -15.8180   68.7840  -24.7240 C.ar  1499  FC11499     0.0858
      6  C1       -17.5400   70.5430  -25.3300 C.ar  1499  FC11499     0.0402
      7  C2       -16.4880   69.9400  -24.4480 C.ar  1499  FC11499     0.1427
      8  C3       -17.9930   69.9940  -26.5670 C.ar  1499  FC11499     0.0353
      9  C4       -18.1110   71.7590  -24.8530 C.ar  1499  FC11499     0.0035
     10  C10      -16.0190   67.9310  -25.9330 C.ar  1499  FC11499     0.2286
     11  C17      -15.9240   73.4310  -21.5290 C.3   1499  FC11499     0.0897
     12  C18      -14.1380   73.4150  -19.9320 C.3   1499  FC11499     0.0897
     13  N16      -14.9130   72.5760  -20.8610 N.3   1499  FC11499    -0.2702
     14  C11      -15.6350   69.9920  -22.1210 C.3   1499  FC11499     0.2068
     15  C12      -19.5630   71.8670  -26.8420 C.ar  1499  FC11499     0.0005
     16  O13      -15.3710   66.8920  -26.1140 O.2   1499  FC11499    -0.2792
     17  C14      -16.3910   70.5080  -20.9040 C.3   1499  FC11499     0.0646
     18  C15      -15.5360   71.4810  -20.0660 C.3   1499  FC11499     0.0760
@<TRIPOS>BOND
     1     3    15   ar
     2     3     8   ar
     3     2     8   ar
     4     2    10   ar
     5    15     4   ar
     6     8     6   ar
     7    16    10    2
     8    10     5   ar
     9     4     9   ar
    10     6     9   ar
    11     6     7   ar
    12     5     7   ar
    13     7     1    1
    14     1    14    1
    15    14    17    1
    16    11    13    1
    17    17    18    1
    18    13    18    1
    19    13    12    1
