@<TRIPOS>MOLECULE
2bhj_HEM_A_1.pdb
 43 50 0 0 0
SMALL
GASTEIGER

@<TRIPOS>ATOM
      1 FE        -17.4700   73.3110  -29.1090 Fe    1500  HEM1500     0.0000
      2  CHA      -14.8680   74.1890  -27.1500 C.2   1500  HEM1500     0.0000
      3  CHB      -16.0100   70.2880  -29.7220 C.2   1500  HEM1500     0.0000
      4  CHC      -20.1900   72.3660  -30.9550 C.2   1500  HEM1500     0.0000
      5  CHD      -18.9680   76.2790  -28.4850 C.2   1500  HEM1500     0.0000
      6  NA       -15.7470   72.4070  -28.5370 N.ar  1500  HEM1500     0.0000
      7  C1A      -14.7890   72.9510  -27.7260 C.ar  1500  HEM1500     0.0000
      8  C2A      -13.7290   71.9790  -27.5270 C.ar  1500  HEM1500     0.0000
      9  C3A      -14.0370   70.8930  -28.2650 C.ar  1500  HEM1500     0.0000
     10  C4A      -15.3110   71.1410  -28.9060 C.ar  1500  HEM1500     0.0000
     11  CMA      -13.2400   69.5880  -28.4130 C.3   1500  HEM1500     0.0000
     12  CAA      -12.5000   72.2140  -26.6260 C.3   1500  HEM1500     0.0000
     13  CBA      -12.7090   71.3740  -25.3290 C.3   1500  HEM1500     0.0000
     14  CGA      -12.1760   71.9140  -24.0000 C.2   1500  HEM1500     0.0000
     15  O1A      -13.0640   72.1520  -23.1090 O.co2 1500  HEM1500     0.0000
     16  O2A      -10.9710   72.0400  -23.8480 O.co2 1500  HEM1500     0.0000
     17  NB       -17.9980   71.6660  -30.1600 N.2   1500  HEM1500     0.0000
     18  C1B      -17.2380   70.5050  -30.2910 C.2   1500  HEM1500     0.0000
     19  C2B      -17.9460   69.5520  -31.1290 C.2   1500  HEM1500     0.0000
     20  C3B      -19.1220   70.1250  -31.4720 C.2   1500  HEM1500     0.0000
     21  C4B      -19.1570   71.4400  -30.8720 C.2   1500  HEM1500     0.0000
     22  CMB      -17.4400   68.1550  -31.5100 C.3   1500  HEM1500     0.0000
     23  CAB      -20.2510   69.5400  -32.3370 C.3   1500  HEM1500     0.0000
     24  CBB      -20.0500   69.7790  -33.8450 C.3   1500  HEM1500     0.0000
     25  NC       -19.2240   74.1710  -29.6100 N.ar  1500  HEM1500     0.0000
     26  C1C      -20.2200   73.6210  -30.3790 C.ar  1500  HEM1500     0.0000
     27  C2C      -21.3610   74.5470  -30.4830 C.ar  1500  HEM1500     0.0000
     28  C3C      -21.0150   75.6680  -29.8050 C.ar  1500  HEM1500     0.0000
     29  C4C      -19.6870   75.4220  -29.2590 C.ar  1500  HEM1500     0.0000
     30  CMC      -22.6670   74.1990  -31.2520 C.3   1500  HEM1500     0.0000
     31  CAC      -21.7840   77.0040  -29.5650 C.3   1500  HEM1500     0.0000
     32  CBC      -23.3150   76.9410  -29.3820 C.3   1500  HEM1500     0.0000
     33  ND       -17.0050   74.9090  -28.0640 N.2   1500  HEM1500     0.0000
     34  C1D      -17.7500   76.0770  -27.9100 C.2   1500  HEM1500     0.0000
     35  C2D      -17.0430   77.0150  -27.0600 C.2   1500  HEM1500     0.0000
     36  C3D      -15.8980   76.4170  -26.6820 C.2   1500  HEM1500     0.0000
     37  C4D      -15.8720   75.1190  -27.3090 C.2   1500  HEM1500     0.0000
     38  CMD      -17.5550   78.4170  -26.6570 C.3   1500  HEM1500     0.0000
     39  CAD      -14.8350   76.9890  -25.7580 C.3   1500  HEM1500     0.0000
     40  CBD      -15.1660   76.4920  -24.3190 C.3   1500  HEM1500     0.0000
     41  CGD      -14.2160   76.9610  -23.2470 C.2   1500  HEM1500     0.0000
     42  O1D      -14.1610   76.3350  -22.1680 O.co2 1500  HEM1500     0.0000
     43  O2D      -13.5490   77.9810  -23.5190 O.co2 1500  HEM1500     0.0000
@<TRIPOS>BOND
     1    24    23    1
     2    23    20    1
     3    22    19    1
     4    20    19    2
     5    20    21    1
     6    30    27    1
     7    19    18    1
     8     4    21    2
     9     4    26    1
    10    21    17    1
    11    27    26   ar
    12    27    28   ar
    13    26    25   ar
    14    18    17    2
    15    18     3    1
    16    17     1    1
    17    28    31    1
    18    28    29   ar
    19     3    10    2
    20    25    29   ar
    21    25     1    1
    22    31    32    1
    23    29     5    1
    24     1     6    1
    25     1    33    1
    26    10     6   ar
    27    10     9   ar
    28     6     7   ar
    29     5    34    2
    30    11     9    1
    31     9     8   ar
    32    33    34    1
    33    33    37    2
    34    34    35    1
    35     7     8   ar
    36     7     2    2
    37     8    12    1
    38    37     2    1
    39    37    36    1
    40    35    36    2
    41    35    38    1
    42    36    39    1
    43    12    13    1
    44    39    40    1
    45    13    14    1
    46    40    41    1
    47    14    16   ar
    48    14    15   ar
    49    43    41   ar
    50    41    42   ar
