@<TRIPOS>MOLECULE
2bhj_HBI_A_1.pdb
 17 18 0 0 0
SMALL
GASTEIGER

@<TRIPOS>ATOM
      1  N1        -6.6480   73.1360  -25.5400 N.2   1501  HBI1501    -0.2672
      2  N2        -8.5640   72.1760  -26.4580 N.pl3 1501  HBI1501    -0.0220
      3  C2        -7.8840   72.5590  -25.3880 C.1   1501  HBI1501     0.2609
      4  N3        -8.4260   72.3770  -24.1310 N.2   1501  HBI1501    -0.2466
      5  C4        -7.7530   72.7580  -23.0010 C.1   1501  HBI1501     0.2569
      6  O4        -8.1950   72.6190  -21.8530 O.2   1501  HBI1501    -0.2052
      7  C4A       -6.4840   73.3550  -23.0920 C.2   1501  HBI1501     0.2989
      8  C8A       -5.9240   73.5370  -24.4550 C.1   1501  HBI1501     0.1401
      9  N8        -4.6900   74.1150  -24.5980 N.2   1501  HBI1501    -0.1992
     10  C7        -3.9050   74.5540  -23.4710 C.3   1501  HBI1501     0.1940
     11  C6        -4.4890   74.3590  -22.1010 C.2   1501  HBI1501     0.1466
     12  N5        -5.8100   73.7340  -22.0040 N.2   1501  HBI1501    -0.3830
     13  C9        -3.9650   74.7050  -20.7250 C.3   1501  HBI1501     0.2313
     14  O9        -3.8450   73.4890  -20.0010 O.3   1501  HBI1501    -0.2130
     15  C10       -2.6080   75.3860  -20.7130 C.3   1501  HBI1501     0.1888
     16  O10       -2.7580   76.6150  -21.4460 O.3   1501  HBI1501    -0.2200
     17  C11       -2.1590   75.6860  -19.2820 C.3   1501  HBI1501     0.0387
@<TRIPOS>BOND
     1     2     3    1
     2     1     3    2
     3     1     8    2
     4     3     4    2
     5     9     8    2
     6     9    10    1
     7     8     7    1
     8     4     5    2
     9    10    11    1
    10     7     5    1
    11     7    12    2
    12     5     6    2
    13    11    12    2
    14    11    13    1
    15    16    15    1
    16    13    15    1
    17    13    14    1
    18    15    17    1
