@<TRIPOS>MOLECULE
2bhl_BG6_A_1.pdb
 16 16 0 0 0
SMALL
GASTEIGER

@<TRIPOS>ATOM
      1  C1         0.9050  125.5120    9.0780 C.3   1510  BG61510     0.3024
      2  C2        -0.5830  125.2840    8.9230 C.3   1510  BG61510     0.2434
      3  O1         1.5480  125.2890    7.8690 O.3   1510  BG61510    -0.1869
      4  O5         1.4580  124.6510   10.0760 O.3   1510  BG61510    -0.3237
      5  C3        -1.2720  125.5090   10.2640 C.3   1510  BG61510     0.2199
      6  O2        -1.0930  126.1730    7.9430 O.3   1510  BG61510    -0.2148
      7  C4        -0.6670  124.5400   11.2730 C.3   1510  BG61510     0.2143
      8  O3        -2.6840  125.2920   10.1360 O.3   1510  BG61510    -0.2174
      9  C5         0.8250  124.8320   11.3610 C.3   1510  BG61510     0.1808
     10  O4        -1.2740  124.7240   12.5380 O.3   1510  BG61510    -0.2176
     11  C6         1.5310  123.9070   12.3220 C.3   1510  BG61510     0.1859
     12  O6         2.9540  124.0180   12.1880 O.3   1510  BG61510    -0.2675
     13  P          3.8390  123.5530   13.4480 P.3   1510  BG61510     0.5327
     14  O1P        3.1070  124.2090   14.5470 O.3   1510  BG61510    -0.1145
     15  O2P        5.1500  124.1140   13.0540 O.2   1510  BG61510    -0.2224
     16  O3P        3.7560  122.0800   13.4850 O.3   1510  BG61510    -0.1145
@<TRIPOS>BOND
     1     3     1    1
     2     6     2    1
     3     2     1    1
     4     2     5    1
     5     1     4    1
     6     4     9    1
     7     8     5    1
     8     5     7    1
     9     7     9    1
    10     7    10    1
    11     9    11    1
    12    12    11    1
    13    12    13    1
    14    15    13    2
    15    13    16    1
    16    13    14    1
