@<TRIPOS>MOLECULE
2bhp_NAD_A_1.pdb
 44 48 0 0 0
SMALL
GASTEIGER

@<TRIPOS>ATOM
      1  C5B       11.5710   31.5550   93.1020 C.3   1517  NAD1517     0.1813
      2  C4B       11.3410   30.0760   93.3670 C.3   1517  NAD1517     0.1821
      3  O4B       10.3320   29.9690   94.3980 O.3   1517  NAD1517    -0.3135
      4  C3B       10.8420   29.1950   92.1950 C.3   1517  NAD1517     0.2184
      5  O3B       11.4000   27.8930   92.3990 O.3   1517  NAD1517    -0.2174
      6  C2B        9.3030   29.1840   92.4410 C.3   1517  NAD1517     0.2570
      7  O2B        8.6350   28.0800   91.8720 O.3   1517  NAD1517    -0.2130
      8  C1B        9.2600   29.1750   93.9840 C.3   1517  NAD1517     0.3186
      9  N9A        8.0820   29.7710   94.6190 N.pl3 1517  NAD1517    -0.1439
     10  C8A        7.1590   30.6740   94.1490 C.3   1517  NAD1517     0.3377
     11  N7A        6.2240   30.9850   95.0170 N.2   1517  NAD1517    -0.2095
     12  C5A        6.5500   30.2270   96.1300 C.2   1517  NAD1517     0.2526
     13  C6A        5.9680   30.0840   97.4340 C.2   1517  NAD1517     0.4393
     14  N6A        4.8730   30.7300   97.8410 N.pl3 1517  NAD1517     0.2180
     15  N1A        6.5690   29.2220   98.3160 N.2   1517  NAD1517     0.0021
     16  C2A        7.6840   28.5420   97.9470 C.3   1517  NAD1517     0.5254
     17  N3A        8.3230   28.6030   96.7640 N.2   1517  NAD1517    -0.0055
     18  C4A        7.6930   29.4630   95.8970 C.2   1517  NAD1517     0.3518
     19  PA        10.3070   33.7520   92.4890 P.3   1517  NAD1517     0.2189
     20  O1A       10.3990   34.2680   93.8820 O.3   1517  NAD1517    -0.4371
     21  O2A        9.0660   34.1700   91.7790 O.2   1517  NAD1517    -0.5170
     22  O5B       10.3790   32.1570   92.5570 O.3   1517  NAD1517    -0.3112
     23  O3        11.5900   34.2210   91.6460 O.3   1517  NAD1517    -0.2703
     24  PN        12.1010   34.0490   90.1580 P.3   1517  NAD1517     0.2189
     25  O1N       11.2630   34.8930   89.2600 O.2   1517  NAD1517    -0.5170
     26  O2N       12.2650   32.5890   89.9010 O.3   1517  NAD1517    -0.4371
     27  O5D       13.5730   34.6450   90.3550 O.3   1517  NAD1517    -0.3112
     28  C5D       13.8220   36.0610   90.1340 C.3   1517  NAD1517     0.1813
     29  C4D       13.9640   36.7300   91.4790 C.3   1517  NAD1517     0.1799
     30  O4D       15.0550   36.0980   92.1930 O.3   1517  NAD1517    -0.3327
     31  C3D       14.2980   38.2330   91.4060 C.3   1517  NAD1517     0.2158
     32  O3D       13.6160   39.0040   92.3870 O.3   1517  NAD1517    -0.2175
     33  C2D       15.8000   38.2530   91.7410 C.3   1517  NAD1517     0.2309
     34  O2D       16.2720   39.4610   92.2820 O.3   1517  NAD1517    -0.2158
     35  C1D       15.9180   37.0570   92.6880 C.3   1517  NAD1517     0.2263
     36  N1N       17.3010   36.4760   92.7320 N.pl3 1517  NAD1517    -0.2787
     37  C2N       18.0340   36.7520   93.8540 C.3   1517  NAD1517     0.1244
     38  C3N       19.3940   36.3980   93.8990 C.2   1517  NAD1517     0.0544
     39  C7N       20.2610   36.6730   95.1080 C.2   1517  NAD1517     0.2818
     40  O7N       21.3280   36.0540   95.2170 O.2   1517  NAD1517    -0.2670
     41  N7N       19.8530   37.5680   96.0030 N.am  1517  NAD1517    -0.0839
     42  C4N       19.9550   35.7370   92.7670 C.2   1517  NAD1517     0.0033
     43  C5N       19.1210   35.3010   91.7110 C.2   1517  NAD1517     0.0157
     44  C6N       17.7910   35.6920   91.6940 C.2   1517  NAD1517     0.0633
@<TRIPOS>BOND
     1    25    24    2
     2    26    24    1
     3    28    27    1
     4    28    29    1
     5    24    27    1
     6    24    23    1
     7    31    29    1
     8    31    33    1
     9    31    32    1
    10    29    30    1
    11    23    19    1
    12    44    43    2
    13    44    36    1
    14    43    42    1
    15    33    34    1
    16    33    35    1
    17    21    19    2
    18     7     6    1
    19    30    35    1
    20     4     5    1
    21     4     6    1
    22     4     2    1
    23     6     8    1
    24    19    22    1
    25    19    20    1
    26    22     1    1
    27    35    36    1
    28    36    37    1
    29    42    38    2
    30     1     2    1
    31     2     3    1
    32    37    38    1
    33    38    39    1
    34     8     3    1
    35     8     9    1
    36    10     9    1
    37    10    11    1
    38     9    18    1
    39    11    12    2
    40    39    40    2
    41    39    41   am
    42    18    12    1
    43    18    17    2
    44    12    13    1
    45    17    16    1
    46    13    14    1
    47    13    15    2
    48    16    15    1
