@<TRIPOS>MOLECULE
2bhq_GLU_A_1.pdb
 10 9 0 0 0
SMALL
GASTEIGER

@<TRIPOS>ATOM
      1  N         26.0110   36.4050   91.5460 N.3   1517  GLU1517    -0.1208
      2  CA        25.3860   37.0140   90.3340 C.3   1517  GLU1517     0.1949
      3  C         26.1630   38.2480   89.8960 C.2   1517  GLU1517     0.3819
      4  O         25.9210   38.7320   88.7680 O.co2 1517  GLU1517    -0.2441
      5  CB        23.9320   37.4010   90.6240 C.3   1517  GLU1517     0.0424
      6  CG        23.0300   36.2220   90.9600 C.3   1517  GLU1517     0.1161
      7  CD        21.5620   36.5980   90.9830 C.2   1517  GLU1517     0.3649
      8  OE1       21.1160   37.2930   90.0480 O.co2 1517  GLU1517    -0.2457
      9  OE2       20.8520   36.1910   91.9270 O.co2 1517  GLU1517    -0.2457
     10  OXT       27.0000   38.7170   90.6950 O.co2 1517  GLU1517    -0.2441
@<TRIPOS>BOND
     1     4     3   ar
     2     3     2    1
     3     3    10   ar
     4     8     7   ar
     5     2     5    1
     6     2     1    1
     7     5     6    1
     8     6     7    1
     9     7     9   ar
