@<TRIPOS>MOLECULE
2bhs_PLP_A_1.pdb
 15 15 0 0 0
SMALL
GASTEIGER

@<TRIPOS>ATOM
      1  N1        48.9220  158.8240  148.0310 N.ar  320  PLP320     -0.2452
      2  C2        48.9390  157.7880  148.8710 C.ar  320  PLP320      0.0978
      3  C2A       48.6570  156.4040  148.3440 C.3   320  PLP320      0.0555
      4  C3        49.2340  158.0000  150.3020 C.ar  320  PLP320      0.2049
      5  O3        49.2480  156.9680  151.1400 O.3   320  PLP320     -0.2857
      6  C4        49.4950  159.3940  150.7420 C.ar  320  PLP320      0.0182
      7  C4A       49.8020  159.6850  152.1700 C.3   320  PLP320      0.0342
      8  C5        49.4680  160.4560  149.7000 C.ar  320  PLP320      0.0261
      9  C6        49.1650  160.0860  148.3970 C.ar  320  PLP320      0.0965
     10  C5A       49.6830  161.9320  149.9470 C.3   320  PLP320      0.1815
     11  O4P       50.7290  162.2480  150.8520 O.3   320  PLP320     -0.2653
     12  P         50.6420  163.5490  151.8220 P.3   320  PLP320      0.5329
     13  O1P       52.0810  163.9260  152.0870 O.3   320  PLP320     -0.1145
     14  O2P       49.8840  163.0060  153.0080 O.3   320  PLP320     -0.1145
     15  O3P       49.9660  164.5810  150.9800 O.2   320  PLP320     -0.2224
@<TRIPOS>BOND
     1     1     9   ar
     2     1     2   ar
     3     3     2    1
     4     9     8   ar
     5     2     4   ar
     6     8    10    1
     7     8     6   ar
     8    10    11    1
     9     4     6   ar
    10     4     5    1
    11     6     7    1
    12    11    12    1
    13    15    12    2
    14    12    13    1
    15    12    14    1
