@<TRIPOS>MOLECULE
2bhx_PLP_A_1.pdb
 15 15 0 0 0
SMALL
GASTEIGER

@<TRIPOS>ATOM
      1  N1        53.4330   23.6170    8.3850 N.ar  1361  PLP1361    -0.2452
      2  C2        53.6760   23.0850    7.1580 C.ar  1361  PLP1361     0.0978
      3  C2A       55.0110   22.3980    6.8450 C.3   1361  PLP1361     0.0555
      4  C3        52.7490   23.2240    6.1670 C.ar  1361  PLP1361     0.2049
      5  O3        53.0650   22.7140    4.9430 O.3   1361  PLP1361    -0.2857
      6  C4        51.5860   23.9170    6.4310 C.ar  1361  PLP1361     0.0182
      7  C4A       50.4090   23.8700    5.4210 C.3   1361  PLP1361     0.0342
      8  C5        51.3760   24.5040    7.6500 C.ar  1361  PLP1361     0.0261
      9  C6        52.2950   24.3380    8.6500 C.ar  1361  PLP1361     0.0965
     10  C5A       50.0930   25.3060    7.9450 C.3   1361  PLP1361     0.1815
     11  O4P       49.0430   24.4430    8.3500 O.3   1361  PLP1361    -0.2653
     12  P         47.6370   25.0840    8.7840 P.3   1361  PLP1361     0.5329
     13  O1P       47.2680   25.9350    7.6430 O.2   1361  PLP1361    -0.2224
     14  O2P       47.9700   25.8320   10.0210 O.3   1361  PLP1361    -0.1145
     15  O3P       46.7560   23.9240    9.0080 O.3   1361  PLP1361    -0.1145
@<TRIPOS>BOND
     1     5     4    1
     2     7     6    1
     3     4     6   ar
     4     4     2   ar
     5     6     8   ar
     6     3     2    1
     7     2     1   ar
     8    13    12    2
     9     8    10    1
    10     8     9   ar
    11    10    11    1
    12    11    12    1
    13     1     9   ar
    14    12    15    1
    15    12    14    1
