@<TRIPOS>MOLECULE
2bhy_TRE_A_1.pdb
 23 24 0 0 0
SMALL
GASTEIGER

@<TRIPOS>ATOM
      1  C1        44.5760    1.3300   17.7540 C.3   1605  TRE1605     0.2713
      2  C2        44.0090    2.7160   18.1000 C.3   1605  TRE1605     0.2406
      3  C3        44.5760    2.9110   19.5020 C.3   1605  TRE1605     0.2198
      4  C4        45.2030    1.5440   19.8970 C.3   1605  TRE1605     0.2144
      5  C5        46.3580    1.1390   18.9460 C.3   1605  TRE1605     0.1835
      6  C6        46.5120   -0.3810   19.0070 C.3   1605  TRE1605     0.2142
      7  O1        43.9470    0.3880   16.8930 O.3   1605  TRE1605    -0.3016
      8  O2        44.4940    3.7290   17.2140 O.3   1605  TRE1605    -0.2149
      9  O3        43.5330    3.2370   20.4120 O.3   1605  TRE1605    -0.2174
     10  O4        45.5850    1.4810   21.2810 O.3   1605  TRE1605    -0.2176
     11  O5        45.9910    1.4800   17.5960 O.3   1605  TRE1605    -0.3256
     12  O6        47.2690   -0.8760   17.9020 O.3   1605  TRE1605    -0.2176
     13  C1P       44.2860    0.4130   15.5380 C.3   1605  TRE1605     0.2713
     14  C2P       42.8720    0.1250   15.0730 C.3   1605  TRE1605     0.2406
     15  C3P       42.4380   -1.2800   15.5330 C.3   1605  TRE1605     0.2198
     16  C4P       43.4760   -2.3220   15.1180 C.3   1605  TRE1605     0.2144
     17  C5P       44.8610   -1.9130   15.6510 C.3   1605  TRE1605     0.1835
     18  C6P       45.9720   -2.7480   15.1030 C.3   1605  TRE1605     0.2142
     19  O2P       42.0040    1.0930   15.6880 O.3   1605  TRE1605    -0.2149
     20  O3P       41.1440   -1.6100   14.9840 O.3   1605  TRE1605    -0.2174
     21  O4P       43.0520   -3.5850   15.6370 O.3   1605  TRE1605    -0.2176
     22  O5P       45.2420   -0.6280   15.1960 O.3   1605  TRE1605    -0.3256
     23  O6P       47.2300   -2.2520   15.6030 O.3   1605  TRE1605    -0.2176
@<TRIPOS>BOND
     1    20    15    1
     2    14    15    1
     3    14    13    1
     4    14    19    1
     5    18    23    1
     6    18    17    1
     7    16    15    1
     8    16    21    1
     9    16    17    1
    10    22    13    1
    11    22    17    1
    12    13     7    1
    13     7     1    1
    14     8     2    1
    15    11     1    1
    16    11     5    1
    17     1     2    1
    18    12     6    1
    19     2     3    1
    20     5     6    1
    21     5     4    1
    22     3     4    1
    23     3     9    1
    24     4    10    1
