@<TRIPOS>MOLECULE
2bhy_GLC_A_1.pdb
 12 12 0 0 0
SMALL
GASTEIGER

@<TRIPOS>ATOM
      1  C1        42.9640    5.4250    0.3200 C.3   1613  GLC1613     0.3024
      2  C2        44.0400    6.2360   -0.4050 C.3   1613  GLC1613     0.2434
      3  C3        44.7570    5.4450   -1.4840 C.3   1613  GLC1613     0.2199
      4  C4        45.2210    4.1020   -0.9420 C.3   1613  GLC1613     0.2144
      5  C5        44.0890    3.3580   -0.2370 C.3   1613  GLC1613     0.1836
      6  C6        44.6510    2.1070    0.4310 C.3   1613  GLC1613     0.2142
      7  O1        41.8080    5.2620   -0.5030 O.3   1613  GLC1613    -0.1869
      8  O2        43.4720    7.3730   -1.0080 O.3   1613  GLC1613    -0.2148
      9  O3        45.8620    6.2110   -1.9080 O.3   1613  GLC1613    -0.2174
     10  O4        45.7050    3.3230   -2.0120 O.3   1613  GLC1613    -0.2176
     11  O5        43.4520    4.1600    0.7460 O.3   1613  GLC1613    -0.3236
     12  O6        43.6710    1.4660    1.2140 O.3   1613  GLC1613    -0.2176
@<TRIPOS>BOND
     1    10     4    1
     2     9     3    1
     3     3     4    1
     4     3     2    1
     5     8     2    1
     6     4     5    1
     7     7     1    1
     8     2     1    1
     9     5     6    1
    10     5    11    1
    11     1    11    1
    12     6    12    1
