@<TRIPOS>MOLECULE
2bhz_MAL_A_1.pdb
 23 24 0 0 0
SMALL
GASTEIGER

@<TRIPOS>ATOM
      1  C1        41.9200   -1.1630   13.9290 C.3   1603  MAL1603     0.2695
      2  C2        40.4270   -0.7980   13.8830 C.3   1603  MAL1603     0.2406
      3  C3        39.5650   -2.0600   13.9650 C.3   1603  MAL1603     0.2198
      4  C4        40.0080   -3.0480   12.8850 C.3   1603  MAL1603     0.2144
      5  C5        41.4700   -3.4090   13.1270 C.3   1603  MAL1603     0.1835
      6  C6        42.0120   -4.3910   12.0970 C.3   1603  MAL1603     0.2142
      7  O1        42.2170   -1.5450   15.2860 O.3   1603  MAL1603    -0.3257
      8  O2        40.1130    0.0810   14.9620 O.3   1603  MAL1603    -0.2149
      9  O3        38.1700   -1.7330   13.8060 O.3   1603  MAL1603    -0.2174
     10  O4        39.1980   -4.2240   12.9300 O.3   1603  MAL1603    -0.2176
     11  O5        42.2430   -2.2070   12.9800 O.3   1603  MAL1603    -0.3256
     12  O6        41.8290   -3.8510   10.7860 O.3   1603  MAL1603    -0.2176
     13  C1'       45.2400   -0.8220   18.0410 C.3   1603  MAL1603     0.3023
     14  C2'       44.7200    0.4210   17.3050 C.3   1603  MAL1603     0.2433
     15  C3'       43.3710    0.0930   16.6850 C.3   1603  MAL1603     0.2168
     16  C4'       43.5100   -1.1110   15.7570 C.3   1603  MAL1603     0.1804
     17  C5'       44.1560   -2.2720   16.5140 C.3   1603  MAL1603     0.1804
     18  C6'       44.4390   -3.4850   15.6060 C.3   1603  MAL1603     0.2141
     19  O1'       46.5030   -0.5930   18.6360 O.3   1603  MAL1603    -0.1869
     20  O2'       44.5520    1.5000   18.2200 O.3   1603  MAL1603    -0.2148
     21  O3'       42.9010    1.2210   15.9520 O.3   1603  MAL1603    -0.2175
     22  O5'       45.4130   -1.8780   17.0940 O.3   1603  MAL1603    -0.3237
     23  O6'       45.1600   -3.1130   14.4200 O.3   1603  MAL1603    -0.2176
@<TRIPOS>BOND
     1    12     6    1
     2     6     5    1
     3     4    10    1
     4     4     5    1
     5     4     3    1
     6    11     5    1
     7    11     1    1
     8     9     3    1
     9     2     1    1
    10     2     3    1
    11     2     8    1
    12     1     7    1
    13    23    18    1
    14     7    16    1
    15    18    17    1
    16    16    17    1
    17    16    15    1
    18    21    15    1
    19    17    22    1
    20    15    14    1
    21    22    13    1
    22    14    13    1
    23    14    20    1
    24    13    19    1
