@<TRIPOS>MOLECULE
2bi1_PLP_A_1.pdb
 15 15 0 0 0
SMALL
GASTEIGER

@<TRIPOS>ATOM
      1  N1        53.4280   23.5980    8.3640 N.ar  1361  PLP1361    -0.2452
      2  C2        53.6640   23.0780    7.1300 C.ar  1361  PLP1361     0.0978
      3  C2A       54.9840   22.3670    6.8100 C.3   1361  PLP1361     0.0555
      4  C3        52.7350   23.2310    6.1400 C.ar  1361  PLP1361     0.2049
      5  O3        53.0520   22.7450    4.9070 O.3   1361  PLP1361    -0.2857
      6  C4        51.5700   23.9130    6.4160 C.ar  1361  PLP1361     0.0182
      7  C4A       50.3850   23.9080    5.4140 C.3   1361  PLP1361     0.0342
      8  C5        51.3710   24.4900    7.6440 C.ar  1361  PLP1361     0.0261
      9  C6        52.2990   24.3310    8.6340 C.ar  1361  PLP1361     0.0965
     10  C5A       50.0920   25.3040    7.9310 C.3   1361  PLP1361     0.1815
     11  O4P       49.0440   24.4440    8.3600 O.3   1361  PLP1361    -0.2653
     12  P         47.6430   25.0840    8.7920 P.3   1361  PLP1361     0.5329
     13  O1P       47.2720   25.9520    7.6640 O.2   1361  PLP1361    -0.2224
     14  O2P       47.9660   25.8240   10.0380 O.3   1361  PLP1361    -0.1145
     15  O3P       46.7470   23.9350    9.0050 O.3   1361  PLP1361    -0.1145
@<TRIPOS>BOND
     1     5     4    1
     2     7     6    1
     3     4     6   ar
     4     4     2   ar
     5     6     8   ar
     6     3     2    1
     7     2     1   ar
     8     8    10    1
     9     8     9   ar
    10    13    12    2
    11    10    11    1
    12    11    12    1
    13     1     9   ar
    14    12    15    1
    15    12    14    1
