@<TRIPOS>MOLECULE
2bi2_PLP_A_1.pdb
 15 15 0 0 0
SMALL
GASTEIGER

@<TRIPOS>ATOM
      1  N1        53.4150   23.5940    8.3450 N.ar  1361  PLP1361    -0.2452
      2  C2        53.6570   23.0760    7.1090 C.ar  1361  PLP1361     0.0978
      3  C2A       54.9510   22.3140    6.8070 C.3   1361  PLP1361     0.0555
      4  C3        52.7320   23.2440    6.1200 C.ar  1361  PLP1361     0.2049
      5  O3        53.0620   22.7570    4.8840 O.3   1361  PLP1361    -0.2857
      6  C4        51.5770   23.9380    6.4100 C.ar  1361  PLP1361     0.0182
      7  C4A       50.4190   24.0000    5.3840 C.3   1361  PLP1361     0.0342
      8  C5        51.3660   24.4950    7.6440 C.ar  1361  PLP1361     0.0261
      9  C6        52.2980   24.3330    8.6300 C.ar  1361  PLP1361     0.0965
     10  C5A       50.0910   25.3020    7.9510 C.3   1361  PLP1361     0.1815
     11  O4P       49.0270   24.4390    8.3480 O.3   1361  PLP1361    -0.2653
     12  P         47.6260   25.0910    8.7780 P.3   1361  PLP1361     0.5329
     13  O1P       47.2650   25.9580    7.6480 O.2   1361  PLP1361    -0.2224
     14  O2P       47.9580   25.8250   10.0260 O.3   1361  PLP1361    -0.1145
     15  O3P       46.7290   23.9400    8.9920 O.3   1361  PLP1361    -0.1145
@<TRIPOS>BOND
     1     5     4    1
     2     7     6    1
     3     4     6   ar
     4     4     2   ar
     5     6     8   ar
     6     3     2    1
     7     2     1   ar
     8     8    10    1
     9     8     9   ar
    10    13    12    2
    11    10    11    1
    12     1     9   ar
    13    11    12    1
    14    12    15    1
    15    12    14    1
