@<TRIPOS>MOLECULE
2bi3_PLP_A_1.pdb
 15 15 0 0 0
SMALL
GASTEIGER

@<TRIPOS>ATOM
      1  N1        53.4370   23.5830    8.3410 N.ar  1361  PLP1361    -0.2452
      2  C2        53.6850   23.0970    7.0890 C.ar  1361  PLP1361     0.0978
      3  C2A       54.9760   22.3250    6.7950 C.3   1361  PLP1361     0.0555
      4  C3        52.7710   23.3080    6.0960 C.ar  1361  PLP1361     0.2049
      5  O3        53.0620   22.8220    4.8470 O.3   1361  PLP1361    -0.2857
      6  C4        51.6320   24.0370    6.3730 C.ar  1361  PLP1361     0.0182
      7  C4A       50.4960   24.1450    5.3280 C.3   1361  PLP1361     0.0342
      8  C5        51.3830   24.4990    7.6390 C.ar  1361  PLP1361     0.0261
      9  C6        52.3250   24.3360    8.6120 C.ar  1361  PLP1361     0.0965
     10  C5A       50.1120   25.3130    7.9550 C.3   1361  PLP1361     0.1815
     11  O4P       49.0480   24.4530    8.3420 O.3   1361  PLP1361    -0.2653
     12  P         47.6520   25.1040    8.7770 P.3   1361  PLP1361     0.5329
     13  O1P       47.3010   25.9840    7.6500 O.2   1361  PLP1361    -0.2224
     14  O2P       47.9940   25.8290   10.0300 O.3   1361  PLP1361    -0.1145
     15  O3P       46.7500   23.9580    8.9840 O.3   1361  PLP1361    -0.1145
@<TRIPOS>BOND
     1     5     4    1
     2     7     6    1
     3     4     6   ar
     4     4     2   ar
     5     6     8   ar
     6     3     2    1
     7     2     1   ar
     8     8    10    1
     9     8     9   ar
    10    13    12    2
    11    10    11    1
    12     1     9   ar
    13    11    12    1
    14    12    15    1
    15    12    14    1
