@<TRIPOS>MOLECULE
2bi4_NAD_A_1.pdb
 44 48 0 0 0
SMALL
GASTEIGER

@<TRIPOS>ATOM
      1  PA         8.2140   79.8490   80.4660 P.3   1385  NAD1385     0.2189
      2  O1A        7.0220   80.5380   80.8350 O.3   1385  NAD1385    -0.4371
      3  O2A        9.5930   80.3850   80.6420 O.2   1385  NAD1385    -0.5170
      4  O5B        8.1590   79.4410   78.9170 O.3   1385  NAD1385    -0.3112
      5  C5B        7.0490   78.6650   78.5250 C.3   1385  NAD1385     0.1813
      6  C4B        6.9640   78.7410   76.9800 C.3   1385  NAD1385     0.1821
      7  O4B        5.7120   78.0290   76.8160 O.3   1385  NAD1385    -0.3135
      8  C3B        6.6860   80.1550   76.4640 C.3   1385  NAD1385     0.2184
      9  O3B        7.1570   80.1620   75.1230 O.3   1385  NAD1385    -0.2174
     10  C2B        5.1920   80.3090   76.5510 C.3   1385  NAD1385     0.2570
     11  O2B        4.6160   81.1690   75.5880 O.3   1385  NAD1385    -0.2130
     12  C1B        4.6420   78.8590   76.4180 C.3   1385  NAD1385     0.3186
     13  N9A        3.5580   78.6810   77.3610 N.pl3 1385  NAD1385    -0.1439
     14  C8A        3.4690   79.0250   78.6900 C.3   1385  NAD1385     0.3377
     15  N7A        2.3150   78.7120   79.2360 N.2   1385  NAD1385    -0.2095
     16  C5A        1.6020   78.1440   78.1890 C.2   1385  NAD1385     0.2526
     17  C6A        0.2960   77.5930   78.1560 C.2   1385  NAD1385     0.4393
     18  N6A       -0.5650   77.5470   79.1890 N.pl3 1385  NAD1385     0.2180
     19  N1A       -0.1460   77.0950   76.9420 N.2   1385  NAD1385     0.0021
     20  C2A        0.6700   77.1070   75.7960 C.3   1385  NAD1385     0.5254
     21  N3A        1.9470   77.6170   75.8080 N.2   1385  NAD1385    -0.0055
     22  C4A        2.3750   78.1370   77.0260 C.2   1385  NAD1385     0.3518
     23  O3         8.2390   78.3910   81.0960 O.3   1385  NAD1385    -0.2703
     24  PN         7.9990   77.8230   82.5380 P.3   1385  NAD1385     0.2189
     25  O1N        8.4890   76.4380   82.5670 O.2   1385  NAD1385    -0.5170
     26  O2N        6.5750   78.0150   82.8270 O.3   1385  NAD1385    -0.4371
     27  O5D        8.9460   78.7240   83.4510 O.3   1385  NAD1385    -0.3112
     28  C5D       10.3050   78.2930   83.7790 C.3   1385  NAD1385     0.1813
     29  C4D       11.0090   79.4060   84.5090 C.3   1385  NAD1385     0.1799
     30  O4D       10.9010   79.2590   85.9440 O.3   1385  NAD1385    -0.3327
     31  C3D       12.5400   79.4990   84.2300 C.3   1385  NAD1385     0.2158
     32  O3D       12.9340   80.8790   84.0590 O.3   1385  NAD1385    -0.2175
     33  C2D       13.1400   78.8170   85.4650 C.3   1385  NAD1385     0.2309
     34  O2D       14.4970   79.1660   85.6670 O.3   1385  NAD1385    -0.2158
     35  C1D       12.2170   79.2680   86.5550 C.3   1385  NAD1385     0.2263
     36  N1N       12.1270   78.3540   87.7750 N.pl3 1385  NAD1385    -0.2787
     37  C2N       12.9090   78.5700   88.9690 C.3   1385  NAD1385     0.1244
     38  C3N       12.7140   77.7100   90.0770 C.2   1385  NAD1385     0.0544
     39  C7N       13.5220   77.8940   91.3840 C.2   1385  NAD1385     0.2818
     40  O7N       13.3130   77.0770   92.2890 O.2   1385  NAD1385    -0.2670
     41  N7N       14.3880   78.8570   91.5370 N.am  1385  NAD1385    -0.0839
     42  C4N       11.7520   76.6140   89.9890 C.2   1385  NAD1385     0.0033
     43  C5N       11.0180   76.4360   88.7800 C.2   1385  NAD1385     0.0157
     44  C6N       11.1950   77.2830   87.6790 C.2   1385  NAD1385     0.0633
@<TRIPOS>BOND
     1     9     8    1
     2    11    10    1
     3    20    21    1
     4    20    19    1
     5    21    22    2
     6    12    10    1
     7    12     7    1
     8    12    13    1
     9     8    10    1
    10     8     6    1
    11     7     6    1
    12    19    17    2
    13     6     5    1
    14    22    13    1
    15    22    16    1
    16    13    14    1
    17    17    16    1
    18    17    18    1
    19    16    15    2
    20     5     4    1
    21    14    15    1
    22     4     1    1
    23     1     3    2
    24     1     2    1
    25     1    23    1
    26    23    24    1
    27    24    25    2
    28    24    26    1
    29    24    27    1
    30    27    28    1
    31    28    29    1
    32    32    31    1
    33    31    29    1
    34    31    33    1
    35    29    30    1
    36    33    34    1
    37    33    35    1
    38    30    35    1
    39    35    36    1
    40    44    36    1
    41    44    43    2
    42    36    37    1
    43    43    42    1
    44    37    38    1
    45    42    38    2
    46    38    39    1
    47    39    41   am
    48    39    40    2
