@<TRIPOS>MOLECULE
2bi5_PLP_A_1.pdb
 15 15 0 0 0
SMALL
GASTEIGER

@<TRIPOS>ATOM
      1  N1        53.4620   23.5690    8.3490 N.ar  1361  PLP1361    -0.2452
      2  C2        53.7040   23.0930    7.0880 C.ar  1361  PLP1361     0.0978
      3  C2A       55.0020   22.3450    6.7610 C.3   1361  PLP1361     0.0555
      4  C3        52.7880   23.3140    6.0980 C.ar  1361  PLP1361     0.2049
      5  O3        53.0730   22.8270    4.8480 O.3   1361  PLP1361    -0.2857
      6  C4        51.6580   24.0510    6.3850 C.ar  1361  PLP1361     0.0182
      7  C4A       50.5190   24.1630    5.3420 C.3   1361  PLP1361     0.0342
      8  C5        51.4130   24.5070    7.6530 C.ar  1361  PLP1361     0.0261
      9  C6        52.3400   24.3060    8.6350 C.ar  1361  PLP1361     0.0965
     10  C5A       50.1420   25.3220    7.9660 C.3   1361  PLP1361     0.1815
     11  O4P       49.0730   24.4840    8.3820 O.3   1361  PLP1361    -0.2653
     12  P         47.6550   25.1170    8.7920 P.3   1361  PLP1361     0.5329
     13  O1P       47.3250   25.9870    7.6530 O.2   1361  PLP1361    -0.2224
     14  O2P       47.9700   25.8390   10.0500 O.3   1361  PLP1361    -0.1145
     15  O3P       46.7790   23.9480    8.9690 O.3   1361  PLP1361    -0.1145
@<TRIPOS>BOND
     1     5     4    1
     2     7     6    1
     3     4     6   ar
     4     4     2   ar
     5     6     8   ar
     6     3     2    1
     7     2     1   ar
     8     8    10    1
     9     8     9   ar
    10    13    12    2
    11    10    11    1
    12     1     9   ar
    13    11    12    1
    14    12    15    1
    15    12    14    1
