@<TRIPOS>MOLECULE
2bi9_PLP_A_1.pdb
 15 15 0 0 0
SMALL
GASTEIGER

@<TRIPOS>ATOM
      1  N1        53.4850   23.5550    8.3450 N.ar  1361  PLP1361    -0.2452
      2  C2        53.7260   23.0900    7.0810 C.ar  1361  PLP1361     0.0978
      3  C2A       55.0010   22.3110    6.7510 C.3   1361  PLP1361     0.0555
      4  C3        52.8200   23.3570    6.0900 C.ar  1361  PLP1361     0.2049
      5  O3        53.1100   22.8880    4.8340 O.3   1361  PLP1361    -0.2857
      6  C4        51.7110   24.1220    6.3830 C.ar  1361  PLP1361     0.0182
      7  C4A       50.6190   24.3520    5.3090 C.3   1361  PLP1361     0.0342
      8  C5        51.4600   24.5560    7.6600 C.ar  1361  PLP1361     0.0261
      9  C6        52.3860   24.3250    8.6390 C.ar  1361  PLP1361     0.0965
     10  C5A       50.1900   25.3660    7.9940 C.3   1361  PLP1361     0.1815
     11  O4P       49.1120   24.5180    8.3640 O.3   1361  PLP1361    -0.2653
     12  P         47.6820   25.1270    8.7810 P.3   1361  PLP1361     0.5329
     13  O1P       47.3500   26.0010    7.6440 O.2   1361  PLP1361    -0.2224
     14  O2P       47.9940   25.8420   10.0410 O.3   1361  PLP1361    -0.1145
     15  O3P       46.8290   23.9450    8.9450 O.3   1361  PLP1361    -0.1145
@<TRIPOS>BOND
     1     5     4    1
     2     7     6    1
     3     4     6   ar
     4     4     2   ar
     5     6     8   ar
     6     3     2    1
     7     2     1   ar
     8    13    12    2
     9     8    10    1
    10     8     9   ar
    11    10    11    1
    12     1     9   ar
    13    11    12    1
    14    12    15    1
    15    12    14    1
