@<TRIPOS>MOLECULE
2bia_PLP_A_1.pdb
 15 15 0 0 0
SMALL
GASTEIGER

@<TRIPOS>ATOM
      1  N1        53.5460   23.5470    8.3540 N.ar  1361  PLP1361    -0.2452
      2  C2        53.7770   23.1090    7.0800 C.ar  1361  PLP1361     0.0978
      3  C2A       55.0490   22.3260    6.7370 C.3   1361  PLP1361     0.0555
      4  C3        52.8690   23.3980    6.0980 C.ar  1361  PLP1361     0.2049
      5  O3        53.1360   22.9270    4.8390 O.3   1361  PLP1361    -0.2857
      6  C4        51.7680   24.1750    6.3970 C.ar  1361  PLP1361     0.0182
      7  C4A       50.6960   24.4420    5.3090 C.3   1361  PLP1361     0.0342
      8  C5        51.5130   24.5700    7.6850 C.ar  1361  PLP1361     0.0261
      9  C6        52.4290   24.2850    8.6600 C.ar  1361  PLP1361     0.0965
     10  C5A       50.2420   25.3580    8.0630 C.3   1361  PLP1361     0.1815
     11  O4P       49.1470   24.5150    8.3850 O.3   1361  PLP1361    -0.2653
     12  P         47.7120   25.1340    8.7900 P.3   1361  PLP1361     0.5329
     13  O1P       47.3980   25.9920    7.6400 O.2   1361  PLP1361    -0.2224
     14  O2P       48.0290   25.8470   10.0480 O.3   1361  PLP1361    -0.1145
     15  O3P       46.8640   23.9450    8.9520 O.3   1361  PLP1361    -0.1145
@<TRIPOS>BOND
     1     5     4    1
     2     7     6    1
     3     4     6   ar
     4     4     2   ar
     5     6     8   ar
     6     3     2    1
     7     2     1   ar
     8    13    12    2
     9     8    10    1
    10     8     9   ar
    11    10    11    1
    12     1     9   ar
    13    11    12    1
    14    12    15    1
    15    12    14    1
