@<TRIPOS>MOLECULE
2bib_PC_A_1.pdb
 11 10 0 0 0
SMALL
GASTEIGER

@<TRIPOS>ATOM
      1  P1       124.9870   -0.0780   -7.7360 P.3   1541  PC1541      0.5325
      2  O1       124.8620    1.5200   -7.7880 O.3   1541  PC1541     -0.1145
      3  O3       124.4730   -0.5750   -9.1380 O.2   1541  PC1541     -0.2224
      4  O4       126.4340   -0.5240   -7.3500 O.3   1541  PC1541     -0.1145
      5  O2       123.9750   -0.6230   -6.6030 O.3   1541  PC1541     -0.2725
      6  C1       122.9920    0.2970   -6.1460 C.3   1541  PC1541      0.1317
      7  C2       122.4760   -0.1320   -4.7830 C.3   1541  PC1541     -0.0401
      8  N1       121.4070   -1.1510   -4.8440 N.4   1541  PC1541      0.3874
      9  C3       120.3460   -0.7270   -3.9160 C.3   1541  PC1541     -0.0959
     10  C4       121.9670   -2.4210   -4.3490 C.3   1541  PC1541     -0.0959
     11  C5       120.8400   -1.3550   -6.2050 C.3   1541  PC1541     -0.0959
@<TRIPOS>BOND
     1     3     1    2
     2     2     1    1
     3     1     4    1
     4     1     5    1
     5     5     6    1
     6    11     8    1
     7     6     7    1
     8     8     7    1
     9     8    10    1
    10     8     9    1
