@<TRIPOS>MOLECULE
2bie_PLP_A_1.pdb
 15 15 0 0 0
SMALL
GASTEIGER

@<TRIPOS>ATOM
      1  N1        53.6770   23.7150    8.4870 N.ar  1361  PLP1361    -0.2452
      2  C2        53.9400   23.2020    7.2690 C.ar  1361  PLP1361     0.0978
      3  C2A       55.2690   22.4830    7.0360 C.3   1361  PLP1361     0.0555
      4  C3        53.0020   23.3320    6.2820 C.ar  1361  PLP1361     0.2049
      5  O3        53.2610   22.7670    5.0820 O.3   1361  PLP1361    -0.2857
      6  C4        51.7900   23.9700    6.5580 C.ar  1361  PLP1361     0.0182
      7  C4A       50.5930   23.7980    5.6340 C.3   1361  PLP1361     0.0342
      8  C5        51.5880   24.5900    7.7910 C.ar  1361  PLP1361     0.0261
      9  C6        52.5740   24.4500    8.7520 C.ar  1361  PLP1361     0.0965
     10  C5A       50.3740   25.4690    8.1080 C.3   1361  PLP1361     0.1815
     11  O4P       49.2840   24.6170    8.4660 O.3   1361  PLP1361    -0.2653
     12  P         47.8780   25.2820    8.9050 P.3   1361  PLP1361     0.5329
     13  O1P       47.4480   26.1660    7.7950 O.2   1361  PLP1361    -0.2224
     14  O2P       48.1610   26.0500   10.1660 O.3   1361  PLP1361    -0.1145
     15  O3P       46.9750   24.1070    9.1520 O.3   1361  PLP1361    -0.1145
@<TRIPOS>BOND
     1     5     4    1
     2     7     6    1
     3     4     6   ar
     4     4     2   ar
     5     6     8   ar
     6     3     2    1
     7     2     1   ar
     8     8    10    1
     9     8     9   ar
    10    13    12    2
    11    10    11    1
    12    11    12    1
    13     1     9   ar
    14    12    15    1
    15    12    14    1
