@<TRIPOS>MOLECULE
2bif_ANP_A_1.pdb
 31 33 0 0 0
SMALL
GASTEIGER

@<TRIPOS>ATOM
      1  PG        71.1180  -47.2360  -46.5370 P.3   500  ANP500      0.4884
      2  O1G       70.0550  -46.8400  -45.5520 O.3   500  ANP500     -0.1240
      3  O2G       71.2330  -46.3630  -47.7250 O.2   500  ANP500     -0.2331
      4  O3G       71.2180  -48.6530  -46.7970 O.3   500  ANP500     -0.1240
      5  PB        73.1330  -45.8750  -44.8320 P.3   500  ANP500      0.4669
      6  O1B       71.8660  -45.3660  -44.2080 O.3   500  ANP500     -0.1253
      7  O2B       73.9400  -44.9660  -45.7000 O.2   500  ANP500     -0.2351
      8  N3B       72.5990  -47.1230  -45.8020 N.3   500  ANP500     -0.0163
      9  PA        73.7400  -47.0910  -42.1730 P.3   500  ANP500      0.2220
     10  O1A       72.7980  -48.2530  -42.3120 O.2   500  ANP500     -0.5170
     11  O2A       73.3240  -45.9110  -41.3540 O.3   500  ANP500     -0.4370
     12  O3A       74.0550  -46.5400  -43.6760 O.3   500  ANP500     -0.2360
     13  O5'       75.1340  -47.5700  -41.4890 O.3   500  ANP500     -0.3111
     14  C5'       75.3800  -47.6440  -40.1030 C.3   500  ANP500      0.1813
     15  C4'       76.8870  -48.1340  -39.9920 C.3   500  ANP500      0.1821
     16  O4'       77.7230  -47.1510  -40.5440 O.3   500  ANP500     -0.3135
     17  C3'       77.4100  -48.4700  -38.5060 C.3   500  ANP500      0.2184
     18  O3'       78.3040  -49.6110  -38.5580 O.3   500  ANP500     -0.2174
     19  C2'       78.1420  -47.1440  -38.0780 C.3   500  ANP500      0.2570
     20  O2'       79.1260  -47.3070  -36.9940 O.3   500  ANP500     -0.2130
     21  C1'       78.6280  -46.8000  -39.5250 C.3   500  ANP500      0.3186
     22  N9        78.8340  -45.3380  -39.6780 N.pl3 500  ANP500     -0.1439
     23  C8        78.3500  -44.2760  -38.9110 C.3   500  ANP500      0.3377
     24  N7        78.7820  -43.0620  -39.2390 N.2   500  ANP500     -0.2095
     25  C5        79.6190  -43.3390  -40.3390 C.2   500  ANP500      0.2526
     26  C6        80.5410  -42.5340  -41.1210 C.2   500  ANP500      0.4393
     27  N6        80.6790  -41.0770  -40.8570 N.pl3 500  ANP500      0.2180
     28  N1        81.2760  -43.1790  -42.1080 N.2   500  ANP500      0.0021
     29  C2        81.2440  -44.5270  -42.2480 C.3   500  ANP500      0.5254
     30  N3        80.4510  -45.3680  -41.5920 N.2   500  ANP500     -0.0055
     31  C4        79.6970  -44.7460  -40.6010 C.2   500  ANP500      0.3518
@<TRIPOS>BOND
     1     3     1    2
     2     4     1    1
     3     1     8    1
     4     1     2    1
     5     8     5    1
     6     7     5    2
     7     5     6    1
     8     5    12    1
     9    12     9    1
    10    10     9    2
    11    29    28    1
    12    29    30    1
    13     9    13    1
    14     9    11    1
    15    28    26    2
    16    30    31    2
    17    13    14    1
    18    26    27    1
    19    26    25    1
    20    31    25    1
    21    31    22    1
    22    16    15    1
    23    16    21    1
    24    25    24    2
    25    14    15    1
    26    15    17    1
    27    22    21    1
    28    22    23    1
    29    21    19    1
    30    24    23    1
    31    18    17    1
    32    17    19    1
    33    19    20    1
