@<TRIPOS>MOLECULE
2bif_F6P_A_1.pdb
 16 16 0 0 0
SMALL
GASTEIGER

@<TRIPOS>ATOM
      1  O1        68.4540  -37.3180   -2.8970 O.3   520  F6P520     -0.2148
      2  C1        69.6620  -36.7800   -3.4330 C.3   520  F6P520      0.2434
      3  C2        69.3630  -35.9720   -4.6910 C.3   520  F6P520      0.2807
      4  O2        70.4080  -36.1550   -5.6110 O.3   520  F6P520     -0.1896
      5  C3        69.2470  -34.5050   -4.3710 C.3   520  F6P520      0.2409
      6  O3        70.4510  -33.7700   -4.4730 O.3   520  F6P520     -0.2149
      7  C4        68.2840  -34.0310   -5.4070 C.3   520  F6P520      0.2167
      8  O4        67.7590  -32.7560   -5.0390 O.3   520  F6P520     -0.2175
      9  C5        67.3100  -35.2020   -5.4270 C.3   520  F6P520      0.1808
     10  O5        68.1320  -36.3640   -5.3340 O.3   520  F6P520     -0.3254
     11  C6        66.5010  -35.2710   -6.7180 C.3   520  F6P520      0.1859
     12  O6        65.3070  -36.0200   -6.4600 O.3   520  F6P520     -0.2675
     13  P         63.9440  -35.8320   -7.3110 P.3   520  F6P520      0.5327
     14  O1P       63.7610  -37.2130   -7.7750 O.3   520  F6P520     -0.1145
     15  O2P       64.2750  -34.8190   -8.3200 O.2   520  F6P520     -0.2224
     16  O3P       62.8330  -35.4080   -6.3980 O.3   520  F6P520     -0.1145
@<TRIPOS>BOND
     1    15    13    2
     2    14    13    1
     3    13    12    1
     4    13    16    1
     5    11    12    1
     6    11     9    1
     7     4     3    1
     8     9     7    1
     9     9    10    1
    10     7     8    1
    11     7     5    1
    12    10     3    1
    13     3     5    1
    14     3     2    1
    15     6     5    1
    16     2     1    1
