@<TRIPOS>MOLECULE
2big_PLP_A_1.pdb
 15 15 0 0 0
SMALL
GASTEIGER

@<TRIPOS>ATOM
      1  N1        53.7250   23.6970    8.4880 N.ar  1361  PLP1361    -0.2452
      2  C2        53.9590   23.2200    7.2400 C.ar  1361  PLP1361     0.0978
      3  C2A       55.2370   22.4240    6.9860 C.3   1361  PLP1361     0.0555
      4  C3        53.0070   23.4170    6.2610 C.ar  1361  PLP1361     0.2049
      5  O3        53.2050   22.9270    5.0270 O.3   1361  PLP1361    -0.2857
      6  C4        51.8330   24.1270    6.5450 C.ar  1361  PLP1361     0.0182
      7  C4A       50.8010   24.5120    5.4920 C.3   1361  PLP1361     0.0342
      8  C5        51.6540   24.6620    7.8150 C.ar  1361  PLP1361     0.0261
      9  C6        52.6270   24.4360    8.7780 C.ar  1361  PLP1361     0.0965
     10  C5A       50.4590   25.5420    8.2110 C.3   1361  PLP1361     0.1815
     11  O4P       49.3200   24.6780    8.4660 O.3   1361  PLP1361    -0.2653
     12  P         47.8880   25.3350    8.9030 P.3   1361  PLP1361     0.5329
     13  O1P       47.5100   26.2240    7.7830 O.2   1361  PLP1361    -0.2224
     14  O2P       48.1600   26.0900   10.1820 O.3   1361  PLP1361    -0.1145
     15  O3P       47.0270   24.1390    9.1110 O.3   1361  PLP1361    -0.1145
@<TRIPOS>BOND
     1     5     4    1
     2     7     6    1
     3     4     6   ar
     4     4     2   ar
     5     6     8   ar
     6     3     2    1
     7     2     1   ar
     8    13    12    2
     9     8    10    1
    10     8     9   ar
    11    10    11    1
    12    11    12    1
    13     1     9   ar
    14    12    15    1
    15    12    14    1
