@<TRIPOS>MOLECULE
2bih_MTV_A_1.pdb
 27 30 0 0 0
SMALL
GASTEIGER

@<TRIPOS>ATOM
      1  N1        53.2380   -0.2630  106.5840 N.2   1479  MTV1479     0.0000
      2  C2        53.1600   -0.3200  105.2440 C.1   1479  MTV1479     0.0000
      3  N2        54.1530   -0.9450  104.5950 N.pl3 1479  MTV1479     0.0000
      4  N3        52.1210    0.2130  104.5550 N.2   1479  MTV1479     0.0000
      5  C4        51.0860    0.8300  105.1450 C.1   1479  MTV1479     0.0000
      6  O4        50.1130    1.3180  104.3120 O.2   1479  MTV1479     0.0000
      7  N5        50.1680    1.5820  107.2970 N.2   1479  MTV1479     0.0000
      8  C6        50.2720    1.6790  108.6130 C.2   1479  MTV1479     0.0000
      9  C7        51.2910    1.0300  109.3790 C.2   1479  MTV1479     0.0000
     10  N8        52.3450    0.4240  108.5850 N.2   1479  MTV1479     0.0000
     11  C9        51.1040    0.9650  106.5520 C.2   1479  MTV1479     0.0000
     12  C10       52.2560    0.3530  107.2580 C.1   1479  MTV1479     0.0000
     13  C1'       49.2850    2.3690  109.5000 C.2   1479  MTV1479     0.0000
     14  S1'       48.8540    3.9500  109.1570 S.3   1479  MTV1479     0.0000
     15  C2'       48.7860    1.7510  110.5260 C.2   1479  MTV1479     0.0000
     16  S2'       47.6330    2.4940  111.5040 S.3   1479  MTV1479     0.0000
     17  C3'       49.2180    0.3600  110.5480 C.2   1479  MTV1479     0.0000
     18  O3'       50.5130   -0.0520  109.9800 O.2   1479  MTV1479     0.0000
     19  C4'       48.3230   -0.5080  110.9970 C.2   1479  MTV1479     0.0000
     20  O4'       48.6900   -1.8730  111.0190 O.2   1479  MTV1479     0.0000
     21  P         47.5890   -2.9780  111.1020 P.3   1479  MTV1479     0.0000
     22  O1P       46.7070   -2.7130  112.3000 O.3   1479  MTV1479     0.0000
     23  O2P       48.4390   -4.2290  111.2150 O.3   1479  MTV1479     0.0000
     24  O3P       46.9590   -2.8250  109.7170 O.2   1479  MTV1479     0.0000
     25 MOM1       47.4820    4.7700  110.8790 Mo    1479  MTV1479     0.0000
     26  OM1       48.4560    5.8200  112.2420 O.3   1479  MTV1479     0.0000
     27  OM2       46.7830    6.0110  109.3670 O.3   1479  MTV1479     0.0000
@<TRIPOS>BOND
     1     6     5    2
     2     4     5    2
     3     4     2    2
     4     3     2    1
     5     5    11    1
     6     2     1    2
     7    11    12    1
     8    11     7    2
     9     1    12    2
    10    12    10    2
    11     7     8    2
    12    10     9    2
    13     8     9    1
    14     8    13    1
    15    14    13    1
    16    14    25    1
    17    27    25    1
    18     9    18    1
    19    13    15    2
    20    24    21    2
    21    18    17    1
    22    15    17    1
    23    15    16    1
    24    17    19    2
    25    25    16    1
    26    25    26    1
    27    19    20    1
    28    20    21    1
    29    21    23    1
    30    21    22    1
