@<TRIPOS>MOLECULE
2bii_MTV_A_1.pdb
 27 30 0 0 0
SMALL
GASTEIGER

@<TRIPOS>ATOM
      1  N1         0.9080   -4.1290   50.8660 N.2   1479  MTV1479     0.0000
      2  C2         0.9200   -4.9630   49.7860 C.1   1479  MTV1479     0.0000
      3  N2        -0.2800   -5.3690   49.2970 N.pl3 1479  MTV1479     0.0000
      4  N3         2.0660   -5.3850   49.2170 N.2   1479  MTV1479     0.0000
      5  C4         3.2960   -5.0290   49.6470 C.1   1479  MTV1479     0.0000
      6  O4         4.3050   -5.4330   49.0670 O.2   1479  MTV1479     0.0000
      7  N5         4.5800   -3.7690   51.2890 N.2   1479  MTV1479     0.0000
      8  C6         4.5990   -3.0450   52.4430 C.2   1479  MTV1479     0.0000
      9  C7         3.3870   -2.4490   52.9830 C.2   1479  MTV1479     0.0000
     10  N8         2.1230   -2.9010   52.4090 N.2   1479  MTV1479     0.0000
     11  C9         3.3950   -4.1820   50.7650 C.2   1479  MTV1479     0.0000
     12  C10        2.1110   -3.7390   51.3670 C.1   1479  MTV1479     0.0000
     13  C1'        5.8510   -2.5540   53.1550 C.2   1479  MTV1479     0.0000
     14  S1'        7.0530   -3.6910   53.6840 S.3   1479  MTV1479     0.0000
     15  C2'        5.9430   -1.2710   53.4410 C.2   1479  MTV1479     0.0000
     16  S2'        7.2970   -0.6490   54.2430 S.3   1479  MTV1479     0.0000
     17  C3'        4.8540   -0.4550   52.8560 C.2   1479  MTV1479     0.0000
     18  O3'        3.5610   -1.0840   52.5110 O.2   1479  MTV1479     0.0000
     19  C4'        5.1670    0.7920   52.4120 C.2   1479  MTV1479     0.0000
     20  O4'        4.1020    1.5960   51.8250 O.2   1479  MTV1479     0.0000
     21  P          4.4910    2.7390   50.7720 P.3   1479  MTV1479     0.0000
     22  O1P        5.4990    3.5620   51.5230 O.3   1479  MTV1479     0.0000
     23  O2P        5.0950    2.0550   49.5850 O.2   1479  MTV1479     0.0000
     24  O3P        3.1310    3.3430   50.6110 O.3   1479  MTV1479     0.0000
     25 MOM1        8.6010   -2.4300   54.9910 Mo    1479  MTV1479     0.0000
     26  OM1        8.1120   -2.6600   56.9230 O.3   1479  MTV1479     0.0000
     27  OM2        9.8900   -3.9360   54.3430 O.3   1479  MTV1479     0.0000
@<TRIPOS>BOND
     1     6     5    2
     2     4     5    2
     3     4     2    2
     4     3     2    1
     5    23    21    2
     6     5    11    1
     7     2     1    2
     8    24    21    1
     9    11     7    2
    10    11    12    1
    11    21    22    1
    12    21    20    1
    13     1    12    2
    14     7     8    2
    15    12    10    2
    16    20    19    1
    17    10     9    2
    18    19    17    2
    19     8     9    1
    20     8    13    1
    21    18    17    1
    22    18     9    1
    23    17    15    1
    24    13    15    2
    25    13    14    1
    26    15    16    1
    27    14    25    1
    28    16    25    1
    29    27    25    1
    30    25    26    1
