@<TRIPOS>MOLECULE
2bik_BI1_B_1.pdb
 31 35 0 0 0
SMALL
GASTEIGER

@<TRIPOS>ATOM
      1  CBD      -38.9090    5.0930   -5.9810 C.3   1306  BI11306     0.0897
      2  NBC      -39.3250    4.2710   -4.8500 N.3   1306  BI11306    -0.2703
      3  CBE      -40.3670    3.2750   -5.0600 C.3   1306  BI11306     0.0897
      4  CBB      -38.6440    4.4700   -3.5680 C.3   1306  BI11306     0.0742
      5  CBA      -39.4660    3.8940   -2.4180 C.3   1306  BI11306     0.0418
      6  CAY      -38.7640    4.1710   -1.1070 C.3   1306  BI11306     0.1075
      7  NAH      -39.4380    3.5330    0.0200 N.ar  1306  BI11306    -0.3260
      8  CAW      -40.7680    3.2600    0.0980 C.ar  1306  BI11306     0.0766
      9  CAE      -38.8120    3.1400    1.1240 C.ar  1306  BI11306     0.0599
     10  CAF      -37.4750    3.2090    1.5140 C.ar  1306  BI11306     0.0172
     11  CAA      -37.0970    2.6990    2.7410 C.ar  1306  BI11306     0.0015
     12  CAB      -38.0390    2.1380    3.5960 C.ar  1306  BI11306     0.0001
     13  CAC      -39.3790    2.0700    3.2170 C.ar  1306  BI11306     0.0015
     14  CAD      -39.7410    2.5890    1.9840 C.ar  1306  BI11306     0.0180
     15  CAG      -40.9300    2.6420    1.3080 C.ar  1306  BI11306     0.0313
     16  CAI      -42.2650    2.2170    1.8390 C.2   1306  BI11306     0.1088
     17  CAT      -42.7050    2.3470    3.2570 C.1   1306  BI11306     0.2158
     18  OAZ      -41.9380    2.7590    4.2080 O.2   1306  BI11306    -0.2086
     19  NAU      -43.9890    1.9380    3.4710 N.2   1306  BI11306    -0.2576
     20  CAV      -44.4620    1.5880    2.2400 C.1   1306  BI11306     0.2158
     21  OAX      -45.6650    1.1760    2.0700 O.2   1306  BI11306    -0.2086
     22  CAJ      -43.4660    1.7130    1.1440 C.2   1306  BI11306     0.1089
     23  CAK      -43.7010    1.4380   -0.3140 C.2   1306  BI11306     0.0330
     24  CAM      -42.7950    0.9820   -1.2520 C.2   1306  BI11306     0.0160
     25  CAP      -41.4620    0.6170   -1.1950 C.2   1306  BI11306    -0.0199
     26  CAQ      -40.8210    0.1960   -2.3530 C.3   1306  BI11306     0.0521
     27  CAR      -41.5200    0.1370   -3.5520 C.2   1306  BI11306    -0.0199
     28  CAS      -42.8640    0.5000   -3.5970 C.2   1306  BI11306     0.0149
     29  CAN      -43.5100    0.9350   -2.4480 C.2   1306  BI11306     0.0808
     30  NAO      -44.7860    1.3360   -2.2110 N.2   1306  BI11306    -0.2438
     31  CAL      -44.9350    1.6590   -0.8970 C.2   1306  BI11306     0.0996
@<TRIPOS>BOND
     1     1     2    1
     2     3     2    1
     3     2     4    1
     4    28    27    2
     5    28    29    1
     6     4     5    1
     7    27    26    1
     8    29    30    2
     9    29    24    1
    10     5     6    1
    11    26    25    1
    12    30    31    1
    13    24    25    2
    14    24    23    1
    15     6     7    1
    16    31    23    2
    17    23    22    1
    18     7     8   ar
    19     7     9   ar
    20     8    15   ar
    21     9    10   ar
    22     9    14   ar
    23    22    16    2
    24    22    20    1
    25    15    16    1
    26    15    14   ar
    27    10    11   ar
    28    16    17    1
    29    14    13   ar
    30    21    20    2
    31    20    19    2
    32    11    12   ar
    33    13    12   ar
    34    17    19    2
    35    17    18    2
