@<TRIPOS>MOLECULE
2bil_BI1_B_1.pdb
 31 35 0 0 0
SMALL
GASTEIGER

@<TRIPOS>ATOM
      1  CBD      -37.5210    4.4970   -6.1060 C.3   1307  BI11307     0.0897
      2  NBC      -38.4330    4.0060   -5.0940 N.3   1307  BI11307    -0.2703
      3  CBE      -39.5560    3.1400   -5.4940 C.3   1307  BI11307     0.0897
      4  CBB      -38.1700    4.4410   -3.7080 C.3   1307  BI11307     0.0742
      5  CBA      -39.0990    3.7730   -2.6760 C.3   1307  BI11307     0.0418
      6  CAY      -38.4020    3.7770   -1.3180 C.3   1307  BI11307     0.1075
      7  NAH      -39.1690    3.1600   -0.2220 N.ar  1307  BI11307    -0.3260
      8  CAW      -40.5110    2.8980   -0.1480 C.ar  1307  BI11307     0.0766
      9  CAE      -38.5730    2.8190    0.9410 C.ar  1307  BI11307     0.0599
     10  CAF      -37.2460    2.9200    1.3520 C.ar  1307  BI11307     0.0172
     11  CAA      -36.8490    2.4850    2.6130 C.ar  1307  BI11307     0.0015
     12  CAB      -37.7990    1.9610    3.4750 C.ar  1307  BI11307     0.0001
     13  CAC      -39.1510    1.8700    3.0780 C.ar  1307  BI11307     0.0015
     14  CAD      -39.5420    2.3090    1.8140 C.ar  1307  BI11307     0.0180
     15  CAG      -40.7490    2.3310    1.1000 C.ar  1307  BI11307     0.0313
     16  CAI      -42.1210    1.9370    1.5990 C.2   1307  BI11307     0.1085
     17  CAT      -42.5910    1.9830    3.0080 C.1   1307  BI11307     0.2158
     18  OAZ      -41.8320    2.2970    3.9960 O.2   1307  BI11307    -0.2086
     19  NAU      -43.9110    1.6410    3.1770 N.2   1307  BI11307    -0.2576
     20  CAV      -44.3860    1.3800    1.9320 C.1   1307  BI11307     0.2155
     21  OAX      -45.6160    1.0380    1.7120 O.2   1307  BI11307    -0.2086
     22  CAJ      -43.3390    1.5080    0.9000 C.2   1307  BI11307     0.1056
     23  CAK      -43.5160    1.4010   -0.5540 C.2   1307  BI11307     0.0190
     24  CAM      -42.4760    1.0220   -1.4040 C.3   1307  BI11307     0.0866
     25  CAP      -41.1290    0.5880   -1.1920 C.2   1307  BI11307    -0.0160
     26  CAQ      -40.3370    0.2470   -2.2840 C.2   1307  BI11307    -0.0038
     27  CAR      -40.9070    0.3380   -3.5670 C.2   1307  BI11307     0.0009
     28  CAS      -42.2470    0.7860   -3.7660 C.2   1307  BI11307     0.0153
     29  CAN      -43.0620    1.1500   -2.6710 C.2   1307  BI11307     0.0668
     30  NAO      -44.3650    1.6020   -2.5160 N.2   1307  BI11307    -0.2478
     31  CAL      -44.6810    1.7780   -1.2050 C.2   1307  BI11307     0.0956
@<TRIPOS>BOND
     1     1     2    1
     2     3     2    1
     3     2     4    1
     4    28    27    2
     5    28    29    1
     6     4     5    1
     7    27    26    1
     8     5     6    1
     9    29    30    2
    10    29    24    1
    11    30    31    1
    12    26    25    2
    13    24    25    1
    14    24    23    1
    15     6     7    1
    16    31    23    2
    17    23    22    1
    18     7     8   ar
    19     7     9   ar
    20     8    15   ar
    21    22    16    2
    22    22    20    1
    23     9    10   ar
    24     9    14   ar
    25    15    16    1
    26    15    14   ar
    27    10    11   ar
    28    16    17    1
    29    21    20    2
    30    14    13   ar
    31    20    19    2
    32    11    12   ar
    33    17    19    2
    34    17    18    2
    35    13    12   ar
