@<TRIPOS>MOLECULE
2bir_2GP_A_1.pdb
 24 26 0 0 0
SMALL
GASTEIGER

@<TRIPOS>ATOM
      1  P          1.4650    8.2730    8.6780 P.3   105  2GP105      0.5327
      2  O1P        2.2670    8.9700    7.7820 O.2   105  2GP105     -0.2224
      3  O2P        0.5390    9.1010    9.4460 O.3   105  2GP105     -0.1145
      4  O3P        0.8290    7.0390    8.2080 O.3   105  2GP105     -0.1145
      5  O5'        3.9600    8.2320   14.9380 O.3   105  2GP105     -0.2176
      6  C5'        3.4450    7.2050   14.1560 C.3   105  2GP105      0.2142
      7  C4'        3.2560    7.9040   12.8820 C.3   105  2GP105      0.1827
      8  O4'        4.4480    7.5570   12.1650 O.3   105  2GP105     -0.3326
      9  C3'        2.0260    7.4190   12.1550 C.3   105  2GP105      0.2132
     10  O3'        0.8830    8.3300   12.3120 O.3   105  2GP105     -0.2176
     11  C2'        2.6030    7.1280   10.7070 C.3   105  2GP105      0.2054
     12  O2'        2.5680    8.1160    9.7210 O.3   105  2GP105     -0.2657
     13  C1'        4.1830    6.9750   10.8690 C.3   105  2GP105      0.2266
     14  N9         4.8020    5.5640   10.8340 N.pl3 105  2GP105     -0.2354
     15  C8         5.8930    5.1910   10.0460 C.3   105  2GP105      0.2246
     16  N7         6.1410    3.8820   10.0480 N.2   105  2GP105     -0.2322
     17  C5         5.1360    3.3730   10.9060 C.2   105  2GP105      0.2182
     18  C6         4.7860    2.0940   11.3520 C.1   105  2GP105      0.2372
     19  O6         5.1550    1.0540   10.9140 O.2   105  2GP105     -0.2069
     20  N1         3.7460    1.9970   12.2370 N.2   105  2GP105     -0.2485
     21  C2         3.0150    3.0570   12.6590 C.1   105  2GP105      0.2531
     22  N2         1.9120    2.8540   13.3060 N.pl3 105  2GP105     -0.0226
     23  N3         3.3130    4.1900   12.2570 N.2   105  2GP105     -0.3074
     24  C4         4.3560    4.3410   11.3930 C.2   105  2GP105      0.2300
@<TRIPOS>BOND
     1     2     1    2
     2     4     1    1
     3     1     3    1
     4     1    12    1
     5    12    11    1
     6    15    16    1
     7    15    14    1
     8    16    17    2
     9    11    13    1
    10    11     9    1
    11    14    13    1
    12    14    24    1
    13    13     8    1
    14    17    18    1
    15    17    24    1
    16    19    18    2
    17    18    20    2
    18    24    23    2
    19     9    10    1
    20     9     7    1
    21     8     7    1
    22    20    21    2
    23    23    21    2
    24    21    22    1
    25     7     6    1
    26     6     5    1
