@<TRIPOS>MOLECULE
2bis_GLC_A_1.pdb
 11 11 0 0 0
SMALL
GASTEIGER

@<TRIPOS>ATOM
      1  C1        78.0250   -3.1950   -5.7360 C.3   601  GLC601      0.1777
      2  C2        77.6530   -1.7150   -5.6840 C.3   601  GLC601      0.2141
      3  C3        76.3620   -1.4560   -4.8690 C.3   601  GLC601      0.2173
      4  C4        75.2390   -2.4010   -5.2790 C.3   601  GLC601      0.2142
      5  C5        75.7470   -3.8290   -5.1600 C.3   601  GLC601      0.1810
      6  C6        74.6540   -4.8230   -5.5330 C.3   601  GLC601      0.2141
      7  O2        78.7980   -1.0410   -5.1300 O.3   601  GLC601     -0.2176
      8  O3        75.8500   -0.1190   -4.9960 O.3   601  GLC601     -0.2175
      9  O4        74.0950   -2.1930   -4.4420 O.3   601  GLC601     -0.2176
     10  O5        76.8860   -4.0140   -6.0190 O.3   601  GLC601     -0.3481
     11  O6        75.1920   -6.1420   -5.4100 O.3   601  GLC601     -0.2176
@<TRIPOS>BOND
     1    10     1    1
     2    10     5    1
     3     1     2    1
     4     2     7    1
     5     2     3    1
     6     6    11    1
     7     6     5    1
     8     4     5    1
     9     4     3    1
    10     4     9    1
    11     8     3    1
