@<TRIPOS>MOLECULE
2biy_ATP_A_1.pdb
 31 33 0 0 0
SMALL
GASTEIGER

@<TRIPOS>ATOM
      1  PG        16.2830   78.7860   28.1250 P.3   1373  ATP1373     0.5373
      2  O1G       15.9440   79.0960   26.6640 O.2   1373  ATP1373    -0.2221
      3  O2G       15.1180   79.1080   29.0790 O.3   1373  ATP1373    -0.1143
      4  O3G       16.6270   77.3290   28.1860 O.3   1373  ATP1373    -0.1143
      5  PB        19.0740   79.3240   28.3400 P.3   1373  ATP1373     0.2277
      6  O1B       19.8570   80.5790   28.4740 O.3   1373  ATP1373    -0.4368
      7  O2B       19.1480   78.6650   26.9570 O.2   1373  ATP1373    -0.5168
      8  O3B       17.5210   79.7080   28.6030 O.3   1373  ATP1373    -0.2258
      9  PA        20.9470   77.5180   29.6620 P.3   1373  ATP1373     0.2189
     10  O1A       20.9480   76.9650   31.0440 O.3   1373  ATP1373    -0.4371
     11  O2A       21.2630   76.4910   28.5560 O.2   1373  ATP1373    -0.5170
     12  O3A       19.5080   78.2540   29.4900 O.3   1373  ATP1373    -0.2700
     13  O5'       22.0810   78.6730   29.5770 O.3   1373  ATP1373    -0.3112
     14  C5'       22.0780   79.6930   30.5230 C.3   1373  ATP1373     0.1813
     15  C4'       23.0880   80.7500   30.1060 C.3   1373  ATP1373     0.1821
     16  O4'       24.3880   80.3700   30.5400 O.3   1373  ATP1373    -0.3135
     17  C3'       23.2100   81.0420   28.6090 C.3   1373  ATP1373     0.2184
     18  O3'       22.1550   81.9010   28.1560 O.3   1373  ATP1373    -0.2174
     19  C2'       24.5990   81.6580   28.5770 C.3   1373  ATP1373     0.2570
     20  O2'       24.6060   83.0210   28.9740 O.3   1373  ATP1373    -0.2130
     21  C1'       25.3530   80.8730   29.6530 C.3   1373  ATP1373     0.3186
     22  N9        26.0860   79.7130   29.1120 N.pl3 1373  ATP1373    -0.1439
     23  C8        25.5390   78.5570   28.6260 C.3   1373  ATP1373     0.3377
     24  N7        26.5520   77.6960   28.2830 N.2   1373  ATP1373    -0.2095
     25  C5        27.7210   78.3270   28.5610 C.2   1373  ATP1373     0.2526
     26  C6        29.0240   77.9180   28.3820 C.2   1373  ATP1373     0.4393
     27  N6        29.2250   76.7450   27.7630 N.pl3 1373  ATP1373     0.2180
     28  N1        30.0450   78.7650   28.7590 N.2   1373  ATP1373     0.0021
     29  C2        29.7710   80.0130   29.3050 C.3   1373  ATP1373     0.5254
     30  N3        28.4550   80.4090   29.4790 N.2   1373  ATP1373    -0.0055
     31  C4        27.4510   79.5750   29.1070 C.2   1373  ATP1373     0.3518
@<TRIPOS>BOND
     1     2     1    2
     2     7     5    2
     3    27    26    1
     4     1     4    1
     5     1     8    1
     6     1     3    1
     7    18    17    1
     8    24    25    2
     9    24    23    1
    10     5     6    1
    11     5     8    1
    12     5    12    1
    13    26    25    1
    14    26    28    2
    15    11     9    2
    16    25    31    1
    17    19    17    1
    18    19    20    1
    19    19    21    1
    20    17    15    1
    21    23    22    1
    22    28    29    1
    23    31    22    1
    24    31    30    2
    25    22    21    1
    26    29    30    1
    27    12     9    1
    28    13     9    1
    29    13    14    1
    30    21    16    1
    31     9    10    1
    32    15    14    1
    33    15    16    1
