@<TRIPOS>MOLECULE
2bj4_OHT_A_1.pdb
 29 31 0 0 0
SMALL
GASTEIGER

@<TRIPOS>ATOM
      1  C10       22.3280   37.8300   26.4730 C.3   1529  OHT1529     0.0050
      2  C9        22.8310   37.4760   27.8720 C.3   1529  OHT1529     0.0264
      3  C8        21.8960   36.5560   28.6910 C.2   1529  OHT1529    -0.0222
      4  C11       21.4450   35.3850   28.0690 C.ar  1529  OHT1529    -0.0040
      5  C16       20.0530   35.2630   27.9140 C.ar  1529  OHT1529    -0.0003
      6  C15       19.4740   34.1760   27.2650 C.ar  1529  OHT1529    -0.0000
      7  C14       20.3150   33.2140   26.7010 C.ar  1529  OHT1529    -0.0000
      8  C13       21.6990   33.3470   26.8270 C.ar  1529  OHT1529    -0.0000
      9  C12       22.2720   34.4390   27.4850 C.ar  1529  OHT1529    -0.0003
     10  C7        21.4700   36.9030   29.9820 C.2   1529  OHT1529    -0.0040
     11  C1        21.8270   38.1050   30.6100 C.ar  1529  OHT1529    -0.0001
     12  C2        22.2880   38.1710   31.9230 C.ar  1529  OHT1529     0.0033
     13  C3        22.5500   39.4020   32.5310 C.ar  1529  OHT1529     0.0420
     14  C4        22.3320   40.5890   31.8520 C.ar  1529  OHT1529     0.1957
     15  O4        22.5760   41.7880   32.4750 O.3   1529  OHT1529    -0.2866
     16  C5        21.8170   40.5380   30.5550 C.ar  1529  OHT1529     0.0420
     17  C6        21.5570   39.3150   29.9580 C.ar  1529  OHT1529     0.0033
     18  C17       20.6680   36.0650   30.8100 C.ar  1529  OHT1529    -0.0001
     19  C18       19.5320   36.5250   31.4830 C.ar  1529  OHT1529     0.0031
     20  C19       18.8410   35.6580   32.3350 C.ar  1529  OHT1529     0.0369
     21  C20       19.2900   34.3530   32.5780 C.ar  1529  OHT1529     0.1386
     22  O20       18.6420   33.4890   33.4240 O.3   1529  OHT1529    -0.4740
     23  C23       17.6270   34.0990   34.1790 C.3   1529  OHT1529     0.2226
     24  C24       16.9310   32.9010   34.8220 C.3   1529  OHT1529     0.1201
     25  N24       16.3480   33.3540   36.0830 N.3   1529  OHT1529    -0.2672
     26  C25       15.3510   34.4330   35.8490 C.3   1529  OHT1529     0.0898
     27  C26       15.7640   32.1680   36.7430 C.3   1529  OHT1529     0.0898
     28  C21       20.4560   33.9020   31.9590 C.ar  1529  OHT1529     0.0369
     29  C22       21.1330   34.7600   31.0820 C.ar  1529  OHT1529     0.0031
@<TRIPOS>BOND
     1     1     2    1
     2     7     8   ar
     3     7     6   ar
     4     8     9   ar
     5     6     5   ar
     6     9     4   ar
     7     2     3    1
     8     5     4   ar
     9     4     3    1
    10     3    10    2
    11    17    16   ar
    12    17    11   ar
    13    10    11    1
    14    10    18    1
    15    16    14   ar
    16    11    12   ar
    17    18    29   ar
    18    18    19   ar
    19    29    28   ar
    20    19    20   ar
    21    14    15    1
    22    14    13   ar
    23    12    13   ar
    24    28    21   ar
    25    20    21   ar
    26    21    22    1
    27    22    23    1
    28    23    24    1
    29    24    25    1
    30    26    25    1
    31    25    27    1
