@<TRIPOS>MOLECULE
2bja_NAD_A_1.pdb
 27 29 0 0 0
SMALL
GASTEIGER

@<TRIPOS>ATOM
      1  PA         9.7670   33.5440   92.2780 P.3   1517  NAD1517     0.2231
      2  O5B       10.0030   31.9880   92.5420 O.3   1517  NAD1517    -0.3111
      3  C5B       11.3690   31.4990   92.7350 C.3   1517  NAD1517     0.1813
      4  C4B       11.2950   30.0000   93.0360 C.3   1517  NAD1517     0.1821
      5  O4B       10.4360   29.8200   94.2080 O.3   1517  NAD1517    -0.3135
      6  C3B       10.7100   29.0360   91.9510 C.3   1517  NAD1517     0.2184
      7  O3B       11.3050   27.7610   92.2020 O.3   1517  NAD1517    -0.2174
      8  C2B        9.2190   29.0270   92.3210 C.3   1517  NAD1517     0.2570
      9  O2B        8.5230   27.8940   91.8620 O.3   1517  NAD1517    -0.2130
     10  C1B        9.2700   29.0910   93.8600 C.3   1517  NAD1517     0.3186
     11  N9A        8.0650   29.6820   94.4800 N.pl3 1517  NAD1517    -0.1439
     12  C8A        7.1570   30.5920   93.9790 C.3   1517  NAD1517     0.3377
     13  N7A        6.1810   30.9120   94.8070 N.2   1517  NAD1517    -0.2095
     14  C5A        6.4620   30.1720   95.9380 C.2   1517  NAD1517     0.2526
     15  C6A        5.8140   30.0350   97.2120 C.2   1517  NAD1517     0.4393
     16  N6A        4.7030   30.6790   97.5630 N.pl3 1517  NAD1517     0.2180
     17  N1A        6.3800   29.1900   98.1340 N.2   1517  NAD1517     0.0021
     18  C2A        7.5150   28.5120   97.8180 C.3   1517  NAD1517     0.5254
     19  N3A        8.2060   28.5500   96.6640 N.2   1517  NAD1517    -0.0055
     20  C4A        7.6300   29.4050   95.7610 C.2   1517  NAD1517     0.3518
     21  O1A       10.5120   33.9450   91.0150 O.2   1517  NAD1517    -0.5169
     22  O2A       10.2320   34.2760   93.4880 O.3   1517  NAD1517    -0.4370
     23  O3         8.1850   33.6550   92.1300 O.3   1517  NAD1517    -0.2261
     24  PN         7.3030   34.0620   90.8620 P.3   1517  NAD1517     0.5373
     25  O1N        7.0440   32.8410   90.0530 O.2   1517  NAD1517    -0.2221
     26  O2N        7.9610   35.2500   90.2350 O.3   1517  NAD1517    -0.1143
     27  O5D        5.9750   34.5940   91.5800 O.3   1517  NAD1517    -0.1143
@<TRIPOS>BOND
     1    25    24    2
     2    26    24    1
     3    24    27    1
     4    24    23    1
     5    21     1    2
     6     9     8    1
     7     6     7    1
     8     6     8    1
     9     6     4    1
    10    23     1    1
    11     1     2    1
    12     1    22    1
    13     8    10    1
    14     2     3    1
    15     3     4    1
    16     4     5    1
    17    10     5    1
    18    10    11    1
    19    12    11    1
    20    12    13    1
    21    11    20    1
    22    13    14    2
    23    20    14    1
    24    20    19    2
    25    14    15    1
    26    19    18    1
    27    15    16    1
    28    15    17    2
    29    18    17    1
