@<TRIPOS>MOLECULE
2bjf_DXC_A_1.pdb
 28 31 0 0 0
SMALL
GASTEIGER

@<TRIPOS>ATOM
      1  C1        40.6790    0.4740   24.7630 C.3   330  DXC330      0.1520
      2  C2        39.5460   -0.5510   24.8050 C.3   330  DXC330      0.0329
      3  C3        38.9980   -0.9130   23.4130 C.3   330  DXC330      0.0025
      4  C4        38.6230    0.3070   22.5520 C.3   330  DXC330      0.0002
      5  C5        39.7770    1.3110   22.5590 C.3   330  DXC330      0.0026
      6  C6        40.2620    1.7000   23.9570 C.3   330  DXC330      0.0329
      7  C7        37.8420   -1.9130   23.5680 C.3   330  DXC330      0.0001
      8  C8        36.5320   -1.2790   24.0410 C.3   330  DXC330      0.0000
      9  C9        36.1460   -0.0050   23.2870 C.3   330  DXC330      0.0002
     10  C10       37.3350    0.9640   23.1140 C.3   330  DXC330      0.0025
     11  C11       35.0550    0.7660   24.0380 C.3   330  DXC330      0.0024
     12  C12       34.5630    2.0330   23.3340 C.3   330  DXC330      0.0282
     13  C13       35.7450    2.9860   23.0980 C.3   330  DXC330      0.1519
     14  C14       36.9140    2.2680   22.4040 C.3   330  DXC330      0.0329
     15  C15       33.8030    0.0270   24.5120 C.3   330  DXC330      0.0001
     16  C16       32.8170    1.1670   24.7920 C.3   330  DXC330      0.0001
     17  C17       33.5110    2.4730   24.3650 C.3   330  DXC330      0.0024
     18  C18       38.4130   -0.1240   21.1010 C.3   330  DXC330      0.0000
     19  C19       32.5020    3.5930   24.0280 C.3   330  DXC330      0.0006
     20  O1        36.1940    3.5800   24.3260 O.3   330  DXC330     -0.2232
     21  O2        41.0060    0.8750   26.0990 O.3   330  DXC330     -0.2232
     22  C20       33.9030    1.7140   21.9790 C.3   330  DXC330      0.0025
     23  C21       31.6940    4.0130   25.2630 C.3   330  DXC330      0.0118
     24  C22       32.5710    4.5530   26.3970 C.3   330  DXC330      0.1141
     25  C23       31.8090    5.4570   27.3400 C.2   330  DXC330      0.3649
     26  O3        30.6460    5.8130   27.0540 O.co2 330  DXC330     -0.2457
     27  O4        32.3880    5.8200   28.3860 O.co2 330  DXC330     -0.2457
     28  C24       33.1140    4.8350   23.3740 C.3   330  DXC330      0.0000
@<TRIPOS>BOND
     1    18     4    1
     2    22    12    1
     3    14    13    1
     4    14    10    1
     5     4     5    1
     6     4    10    1
     7     4     3    1
     8     5     6    1
     9    13    12    1
    10    13    20    1
    11    10     9    1
    12     9    11    1
    13     9     8    1
    14    12    11    1
    15    12    17    1
    16    28    19    1
    17     3     7    1
    18     3     2    1
    19     7     8    1
    20     6     1    1
    21    19    17    1
    22    19    23    1
    23    11    15    1
    24    17    16    1
    25    15    16    1
    26     1     2    1
    27     1    21    1
    28    23    24    1
    29    24    25    1
    30    26    25   ar
    31    25    27   ar
