@<TRIPOS>MOLECULE
2bjh_FER_A_1.pdb
 14 14 0 0 0
SMALL
GASTEIGER

@<TRIPOS>ATOM
      1  C4         9.2340   -2.1490   22.1990 C.ar  908  FER908      0.2293
      2  C5         9.3650   -1.1650   23.2070 C.ar  908  FER908      0.0452
      3  C6        10.4040   -0.2020   23.1300 C.ar  908  FER908      0.0035
      4  C3        10.1370   -2.1730   21.1110 C.ar  908  FER908      0.1774
      5  C2        11.1900   -1.1970   21.0300 C.ar  908  FER908      0.0402
      6  C1        11.3310   -0.2100   22.0330 C.ar  908  FER908      0.0034
      7  C10       10.7270   -3.3370   19.0370 C.3   908  FER908      0.2526
      8  C7        12.4500    0.7650   21.8790 C.2   908  FER908      0.0069
      9  C8        12.7390    1.7770   22.7470 C.2   908  FER908      0.0861
     10  C9        13.8790    2.7350   22.5520 C.2   908  FER908      0.3880
     11  O1        14.6430    2.6700   21.5710 O.co2 908  FER908     -0.2405
     12  O2        14.0080    3.6020   23.4440 O.co2 908  FER908     -0.2405
     13  O4         8.2260   -3.1040   22.2510 O.3   908  FER908     -0.2833
     14  O3         9.8920   -3.1940   20.1900 O.3   908  FER908     -0.4682
@<TRIPOS>BOND
     1     7    14    1
     2    14     4    1
     3     5     4   ar
     4     5     6   ar
     5     4     1   ar
     6    11    10   ar
     7     8     6    1
     8     8     9    2
     9     6     3   ar
    10     1    13    1
    11     1     2   ar
    12    10     9    1
    13    10    12   ar
    14     3     2   ar
