@<TRIPOS>MOLECULE
2bjk_NAD_A_1.pdb
 44 48 0 0 0
SMALL
GASTEIGER

@<TRIPOS>ATOM
      1  PA        10.4250   33.8470   92.5550 P.3   1517  NAD1517     0.2189
      2  O1A       10.4630   34.3670   93.9330 O.3   1517  NAD1517    -0.4371
      3  O2A        9.1950   34.2080   91.8010 O.2   1517  NAD1517    -0.5170
      4  O5B       10.5550   32.2650   92.6140 O.3   1517  NAD1517    -0.3112
      5  C5B       11.7430   31.6770   93.2040 C.3   1517  NAD1517     0.1813
      6  C4B       11.4680   30.2200   93.4960 C.3   1517  NAD1517     0.1821
      7  O4B       10.4420   30.1840   94.5240 O.3   1517  NAD1517    -0.3135
      8  C3B       10.9530   29.3210   92.3420 C.3   1517  NAD1517     0.2184
      9  O3B       11.4450   28.0010   92.5750 O.3   1517  NAD1517    -0.2174
     10  C2B        9.4300   29.3620   92.6060 C.3   1517  NAD1517     0.2570
     11  O2B        8.7050   28.2970   92.0600 O.3   1517  NAD1517    -0.2130
     12  C1B        9.4020   29.3430   94.1360 C.3   1517  NAD1517     0.3186
     13  N9A        8.1800   29.8880   94.7430 N.pl3 1517  NAD1517    -0.1439
     14  C8A        7.2610   30.7780   94.2470 C.3   1517  NAD1517     0.3377
     15  N7A        6.2800   31.0620   95.0700 N.2   1517  NAD1517    -0.2095
     16  C5A        6.5730   30.3160   96.1900 C.2   1517  NAD1517     0.2526
     17  C6A        5.9330   30.1540   97.4630 C.2   1517  NAD1517     0.4393
     18  N6A        4.8120   30.7750   97.8200 N.pl3 1517  NAD1517     0.2180
     19  N1A        6.5120   29.3050   98.3750 N.2   1517  NAD1517     0.0021
     20  C2A        7.6560   28.6530   98.0520 C.3   1517  NAD1517     0.5254
     21  N3A        8.3430   28.7250   96.8990 N.2   1517  NAD1517    -0.0055
     22  C4A        7.7450   29.5770   96.0090 C.2   1517  NAD1517     0.3518
     23  O3        11.7130   34.3530   91.7440 O.3   1517  NAD1517    -0.2703
     24  PN        12.2530   34.1150   90.2720 P.3   1517  NAD1517     0.2189
     25  O1N       11.4320   34.9220   89.3260 O.2   1517  NAD1517    -0.5170
     26  O2N       12.4000   32.6490   90.0800 O.3   1517  NAD1517    -0.4371
     27  O5D       13.7500   34.6910   90.3930 O.3   1517  NAD1517    -0.3112
     28  C5D       13.9940   36.1100   90.1990 C.3   1517  NAD1517     0.1813
     29  C4D       14.1180   36.7910   91.5340 C.3   1517  NAD1517     0.1799
     30  O4D       15.2270   36.1850   92.2640 O.3   1517  NAD1517    -0.3327
     31  C3D       14.4300   38.3000   91.4500 C.3   1517  NAD1517     0.2158
     32  O3D       13.8240   39.0180   92.5160 O.3   1517  NAD1517    -0.2175
     33  C2D       15.9550   38.3030   91.6730 C.3   1517  NAD1517     0.2309
     34  O2D       16.5180   39.5200   92.1100 O.3   1517  NAD1517    -0.2158
     35  C1D       16.0900   37.1800   92.7010 C.3   1517  NAD1517     0.2263
     36  N1N       17.4810   36.6350   92.7230 N.pl3 1517  NAD1517    -0.2787
     37  C2N       18.2320   36.9120   93.8050 C.3   1517  NAD1517     0.1244
     38  C3N       19.5430   36.4680   93.8720 C.2   1517  NAD1517     0.0544
     39  C7N       20.4130   36.7180   95.0710 C.2   1517  NAD1517     0.2818
     40  O7N       21.5110   36.1510   95.1180 O.2   1517  NAD1517    -0.2670
     41  N7N       19.9690   37.5280   96.0220 N.am  1517  NAD1517    -0.0839
     42  C4N       20.0730   35.7700   92.7860 C.2   1517  NAD1517     0.0033
     43  C5N       19.2640   35.5010   91.6840 C.2   1517  NAD1517     0.0157
     44  C6N       17.9630   35.9260   91.6750 C.2   1517  NAD1517     0.0633
@<TRIPOS>BOND
     1    25    24    2
     2    26    24    1
     3    28    27    1
     4    28    29    1
     5    24    27    1
     6    24    23    1
     7    31    29    1
     8    31    33    1
     9    31    32    1
    10    29    30    1
    11    33    34    1
    12    33    35    1
    13    44    43    2
    14    44    36    1
    15    43    42    1
    16    23     1    1
    17     3     1    2
    18    11    10    1
    19    30    35    1
    20     8     9    1
    21     8    10    1
    22     8     6    1
    23     1     4    1
    24     1     2    1
    25    10    12    1
    26     4     5    1
    27    35    36    1
    28    36    37    1
    29    42    38    2
    30     5     6    1
    31     6     7    1
    32    37    38    1
    33    38    39    1
    34    12     7    1
    35    12    13    1
    36    14    13    1
    37    14    15    1
    38    13    22    1
    39    15    16    2
    40    39    40    2
    41    39    41   am
    42    22    16    1
    43    22    21    2
    44    16    17    1
    45    21    20    1
    46    17    18    1
    47    17    19    2
    48    20    19    1
