@<TRIPOS>MOLECULE
2bjm_ANF_H_1.pdb
 15 17 0 0 0
SMALL
GASTEIGER

@<TRIPOS>ATOM
      1  C1        37.9990   76.6160   31.7380 C.ar  500  ANF500      0.0029
      2  C2        38.3950   77.9470   31.6960 C.ar  500  ANF500      0.0001
      3  C3        39.6240   78.3030   32.2400 C.ar  500  ANF500     -0.0003
      4  C4        40.4690   77.3730   32.8280 C.ar  500  ANF500     -0.0038
      5  C5        41.3660   72.8260   34.0850 C.ar  500  ANF500     -0.0038
      6  C6        40.9900   71.4860   34.1350 C.ar  500  ANF500     -0.0003
      7  C7        39.7680   71.0880   33.5970 C.ar  500  ANF500      0.0001
      8  C8        38.9250   72.0330   33.0130 C.ar  500  ANF500      0.0029
      9  C9        38.4640   74.3310   32.3780 C.2   500  ANF500      0.1950
     10  O9        37.3900   74.0020   31.9010 O.2   500  ANF500     -0.2866
     11  C10       40.9040   75.1020   33.4520 C.3   500  ANF500      0.0528
     12  C11       40.5220   73.7670   33.5000 C.ar  500  ANF500     -0.0147
     13  C12       39.2970   73.3760   32.9620 C.ar  500  ANF500      0.0353
     14  C13       38.8400   75.6680   32.3250 C.ar  500  ANF500      0.0353
     15  C14       40.0690   76.0460   32.8680 C.ar  500  ANF500     -0.0147
@<TRIPOS>BOND
     1     2     1   ar
     2     2     3   ar
     3     1    14   ar
     4    10     9    2
     5     3     4   ar
     6    14     9    1
     7    14    15   ar
     8     9    13    1
     9     4    15   ar
    10    15    11    1
    11    13     8   ar
    12    13    12   ar
    13     8     7   ar
    14    11    12    1
    15    12     5   ar
    16     7     6   ar
    17     5     6   ar
