@<TRIPOS>MOLECULE
2bjs_ACV_A_1.pdb
 24 23 0 0 0
SMALL
GASTEIGER

@<TRIPOS>ATOM
      1  C1        17.4780   36.1470    5.5030 C.2   1324  ACV1324     0.3819
      2  C2        16.0400   36.3360    6.0060 C.3   1324  ACV1324     0.1943
      3  C3        15.4780   37.5960    5.3740 C.3   1324  ACV1324     0.0311
      4  C4        13.9770   37.8690    5.7340 C.3   1324  ACV1324     0.0117
      5  C7        13.5950   39.1730    5.0880 C.3   1324  ACV1324     0.0869
      6  C10       12.2170   39.6400    5.3450 C.2   1324  ACV1324     0.2418
      7  N11       11.1880   38.9010    4.9440 N.am  1324  ACV1324    -0.1968
      8  C12        9.7860   39.3460    4.9360 C.3   1324  ACV1324     0.1843
      9  C13        8.9080   38.1330    4.7150 C.2   1324  ACV1324     0.2626
     10  N14       16.0250   36.3550    7.4610 N.3   1324  ACV1324    -0.1208
     11  O15       12.0310   40.7250    5.8550 O.2   1324  ACV1324    -0.2733
     12  C16        9.4980   40.4190    3.9290 C.3   1324  ACV1324     0.0997
     13  S17        9.9010   39.8370    2.2340 S.3   1324  ACV1324    -0.0797
     14  O18        9.4250   37.0580    4.3410 O.2   1324  ACV1324    -0.2714
     15  O19       18.4000   36.2470    6.3600 O.co2 1324  ACV1324    -0.2441
     16  O20       17.6610   35.9480    4.3040 O.co2 1324  ACV1324    -0.2441
     17  N29        7.6140   38.3030    4.8880 N.am  1324  ACV1324    -0.1941
     18  C30        6.6170   37.3140    4.4090 C.3   1324  ACV1324     0.1977
     19  C31        5.3920   37.3740    5.2750 C.2   1324  ACV1324     0.3842
     20  O42        4.5220   36.5620    5.0200 O.co2 1324  ACV1324    -0.2437
     21  O43        5.2930   38.2560    6.1730 O.co2 1324  ACV1324    -0.2437
     22  C32        6.2000   37.2250    2.9250 C.3   1324  ACV1324     0.0311
     23  C33        5.5590   38.5090    2.4140 C.3   1324  ACV1324     0.0023
     24  C37        7.3320   36.7980    1.9720 C.3   1324  ACV1324     0.0023
@<TRIPOS>BOND
     1    24    22    1
     2    13    12    1
     3    23    22    1
     4    22    18    1
     5    12     8    1
     6    16     1   ar
     7    14     9    2
     8    18    17    1
     9    18    19    1
    10     9    17   am
    11     9     8    1
    12     8     7    1
    13     7     6   am
    14    20    19   ar
    15     5     6    1
    16     5     4    1
    17    19    21   ar
    18     6    11    2
    19     3     4    1
    20     3     2    1
    21     1     2    1
    22     1    15   ar
    23     2    10    1
