@<TRIPOS>MOLECULE
2bju_IH4_A_1.pdb
 44 48 0 0 0
SMALL
GASTEIGER

@<TRIPOS>ATOM
      1  O27       -0.8910   68.9470    3.2560 O.2   1330  IH41330    -0.2497
      2  C26       -1.8400   68.2670    2.8570 C.2   1330  IH41330     0.3216
      3  O28       -3.0220   68.8790    2.5530 O.3   1330  IH41330    -0.4442
      4  C29       -3.0090   70.2800    2.8640 C.3   1330  IH41330     0.2556
      5  C25       -1.6310   66.7920    2.5170 C.3   1330  IH41330     0.1359
      6  C24       -2.1350   65.8060    3.5640 C.ar  1330  IH41330    -0.0111
      7  C30       -3.4910   65.6560    3.7960 C.ar  1330  IH41330    -0.0037
      8  C31       -3.9180   64.7640    4.7700 C.ar  1330  IH41330    -0.0003
      9  C23       -1.2410   65.0330    4.2950 C.ar  1330  IH41330    -0.0037
     10  C22       -1.6910   64.1420    5.2570 C.ar  1330  IH41330    -0.0003
     11  C21       -3.0430   63.9910    5.5170 C.ar  1330  IH41330    -0.0000
     12  C20       -3.5380   63.0400    6.5110 C.ar  1330  IH41330    -0.0000
     13  C32       -2.9690   61.7830    6.6330 C.ar  1330  IH41330    -0.0003
     14  C33       -3.4340   60.8790    7.5620 C.ar  1330  IH41330    -0.0026
     15  C19       -4.5980   63.3510    7.3690 C.ar  1330  IH41330    -0.0003
     16  C18       -5.0780   62.4550    8.3000 C.ar  1330  IH41330    -0.0026
     17  C17       -4.4850   61.1930    8.4090 C.ar  1330  IH41330    -0.0023
     18  C16       -4.9520   60.1540    9.4040 C.3   1330  IH41330     0.1204
     19  N3        -5.0380   60.7340   10.7380 N.am  1330  IH41330    -0.2735
     20  C2        -6.3330   60.9490   11.3390 C.2   1330  IH41330     0.2492
     21  C34       -7.5870   60.6850   10.5280 C.ar  1330  IH41330     0.0536
     22  C35       -8.1090   59.4030   10.3970 C.ar  1330  IH41330     0.0042
     23  C36       -9.3290   59.2290    9.7690 C.ar  1330  IH41330    -0.0041
     24  C37      -10.0340   60.3220    9.2920 C.ar  1330  IH41330    -0.0222
     25  C43       -9.4970   61.5990    9.4100 C.ar  1330  IH41330    -0.0041
     26  C44       -8.2740   61.7740   10.0420 C.ar  1330  IH41330     0.0042
     27  C38      -11.3810   60.1450    8.5830 C.3   1330  IH41330     0.0264
     28  C39      -11.2020   59.8990    7.0790 C.3   1330  IH41330     0.0047
     29  C40      -12.5350   59.7950    6.3510 C.3   1330  IH41330     0.0003
     30  C41      -12.3300   59.5450    4.8560 C.3   1330  IH41330     0.0000
     31  C42      -13.6550   59.4710    4.0960 C.3   1330  IH41330     0.0000
     32  O1        -6.4380   61.3570   12.5140 O.2   1330  IH41330    -0.2699
     33  C4        -3.8760   61.0000   11.5890 C.3   1330  IH41330     0.0787
     34  C5        -3.4970   59.7310   12.3300 C.3   1330  IH41330     0.0372
     35  C6        -2.3740   60.1040   13.3230 C.3   1330  IH41330     0.0747
     36  N7        -1.2360   60.7380   12.6050 N.3   1330  IH41330    -0.2601
     37  C14       -1.6340   61.8880   11.7690 C.3   1330  IH41330     0.0747
     38  C15       -2.7030   61.4740   10.7650 C.3   1330  IH41330     0.0372
     39  C8        -0.3000   61.3920   13.5590 C.3   1330  IH41330     0.1733
     40  C9         0.2830   60.3450   14.4860 C.1   1330  IH41330     0.0288
     41  N10       -0.0690   60.3280   15.8140 N.2   1330  IH41330    -0.1934
     42  C11        0.6090   59.2900   16.4040 C.2   1330  IH41330     0.1306
     43  C12        1.3660   58.7150   15.4440 C.2   1330  IH41330     0.1306
     44  N13        1.1930   59.3620   14.2420 N.2   1330  IH41330    -0.1934
@<TRIPOS>BOND
     1     5     2    1
     2     5     6    1
     3     3     2    1
     4     3     4    1
     5     2     1    2
     6     6     7   ar
     7     6     9   ar
     8     7     8   ar
     9    31    30    1
    10     9    10   ar
    11     8    11   ar
    12    30    29    1
    13    10    11   ar
    14    11    12    1
    15    29    28    1
    16    12    13   ar
    17    12    15   ar
    18    13    14   ar
    19    28    27    1
    20    15    16   ar
    21    14    17   ar
    22    16    17   ar
    23    17    18    1
    24    27    24    1
    25    24    25   ar
    26    24    23   ar
    27    18    19    1
    28    25    26   ar
    29    23    22   ar
    30    26    21   ar
    31    22    21   ar
    32    21    20    1
    33    19    20   am
    34    19    33    1
    35    38    33    1
    36    38    37    1
    37    20    32    2
    38    33    34    1
    39    37    36    1
    40    34    35    1
    41    36    35    1
    42    36    39    1
    43    39    40    1
    44    44    40    2
    45    44    43    1
    46    40    41    2
    47    43    42    2
    48    41    42    1
