@<TRIPOS>MOLECULE
2bk3_FOH_A_1.pdb
 16 15 0 0 0
SMALL
GASTEIGER

@<TRIPOS>ATOM
      1  C1        51.0680  159.7030   31.5290 C.3   1503  FOH1503     0.0260
      2  C2        49.7550  158.9760   31.4520 C.2   1503  FOH1503    -0.0478
      3  C3        48.5620  159.5780   32.1310 C.3   1503  FOH1503     0.0260
      4  C4        49.6180  157.8030   30.7980 C.2   1503  FOH1503    -0.0342
      5  C5        50.7490  157.0850   30.0840 C.3   1503  FOH1503     0.0297
      6  C6        50.3190  155.6340   29.8730 C.3   1503  FOH1503     0.0263
      7  C7        51.2960  154.7910   29.0820 C.2   1503  FOH1503    -0.0478
      8  C8        51.3690  153.3150   29.3690 C.3   1503  FOH1503     0.0260
      9  C9        52.0870  155.3260   28.1360 C.2   1503  FOH1503    -0.0342
     10  C10       53.0620  154.4840   27.3360 C.3   1503  FOH1503     0.0297
     11  C11       52.4590  154.1230   25.9830 C.3   1503  FOH1503     0.0264
     12  C12       53.4040  153.2770   25.1530 C.2   1503  FOH1503    -0.0453
     13  C13       54.6750  153.8680   24.5960 C.3   1503  FOH1503     0.0261
     14  C14       53.0780  151.9960   24.9110 C.2   1503  FOH1503     0.0006
     15  C15       53.9490  151.0730   24.0830 C.3   1503  FOH1503     0.2077
     16  O1        54.6320  150.1670   24.9370 O.3   1503  FOH1503    -0.2152
@<TRIPOS>BOND
     1    15    14    1
     2    15    16    1
     3    13    12    1
     4    14    12    2
     5    12    11    1
     6    11    10    1
     7    10     9    1
     8     9     7    2
     9     7     8    1
    10     7     6    1
    11     6     5    1
    12     5     4    1
    13     4     2    2
    14     2     1    1
    15     2     3    1
