@<TRIPOS>MOLECULE
2bk4_RAS_A_1.pdb
 13 14 0 0 0
SMALL
GASTEIGER

@<TRIPOS>ATOM
      1  N10       53.7840  154.0360   24.8930 N.2   601  RAS601     -0.2664
      2  C11       53.6400  153.4670   23.7420 C.2   601  RAS601      0.0935
      3  C12       54.6330  152.4100   23.2370 C.2   601  RAS601      0.0202
      4  C13       54.5680  151.7920   22.0920 C.2   601  RAS601      0.0016
      5  C9        52.8130  155.0280   25.3420 C.3   601  RAS601      0.1255
      6  C1        53.4350  156.4400   25.4490 C.3   601  RAS601      0.0335
      7  C2        52.9070  157.0620   26.7640 C.3   601  RAS601      0.0284
      8  C3        52.3770  155.8790   27.5230 C.ar  601  RAS601     -0.0243
      9  C8        52.3390  154.7550   26.7430 C.ar  601  RAS601     -0.0041
     10  C7        51.8880  153.5500   27.2600 C.ar  601  RAS601     -0.0027
     11  C4        51.9680  155.8600   28.8510 C.ar  601  RAS601     -0.0045
     12  C5        51.5110  154.6560   29.3900 C.ar  601  RAS601     -0.0003
     13  C6        51.4760  153.5130   28.5900 C.ar  601  RAS601     -0.0003
@<TRIPOS>BOND
     1     4     3    2
     2     3     2    1
     3     2     1    2
     4     1     5    1
     5     5     6    1
     6     5     9    1
     7     6     7    1
     8     9    10   ar
     9     9     8   ar
    10     7     8    1
    11    10    13   ar
    12     8    11   ar
    13    13    12   ar
    14    11    12   ar
