@<TRIPOS>MOLECULE
2bk5_ISN_A_1.pdb
 11 12 0 0 0
SMALL
GASTEIGER

@<TRIPOS>ATOM
      1  C5        51.9560  152.1210   26.8710 C.2   601  ISN601      0.0289
      2  C4        51.4980  152.9450   27.9030 C.2   601  ISN601     -0.0188
      3  C3        51.6960  154.3380   27.9070 C.3   601  ISN601      0.0523
      4  C2        52.3640  154.9970   26.8640 C.2   601  ISN601     -0.0148
      5  C1        52.8190  154.1870   25.8360 C.2   601  ISN601      0.0780
      6  N1        53.1580  152.1720   24.7210 N.2   601  ISN601     -0.3303
      7  C6        52.6230  152.7290   25.8260 C.2   601  ISN601      0.1477
      8  C10       53.7150  153.1440   23.9640 C.1   601  ISN601      0.2449
      9  O8        53.9460  155.6230   24.1750 O.2   601  ISN601     -0.2727
     10  O11       54.3090  152.9390   22.8510 O.2   601  ISN601     -0.2060
     11  C7        53.5510  154.4800   24.6030 C.2   601  ISN601      0.2908
@<TRIPOS>BOND
     1    10     8    2
     2     8    11    1
     3     8     6    2
     4     9    11    2
     5    11     5    1
     6     6     7    2
     7     7     5    1
     8     7     1    1
     9     5     4    2
    10     4     3    1
    11     1     2    2
    12     2     3    1
