@<TRIPOS>MOLECULE
2bk9_CXS_A_1.pdb
 32 32 0 0 0
SMALL
GASTEIGER

@<TRIPOS>ATOM
      1  S         -8.9340   15.7250   13.6310 S.3   1155  CXS1155     0.0119
      2  O1        -7.5620   16.2920   13.7620 O.3   1155  CXS1155    -0.0702
      3  O2        -9.9170   16.8110   13.8870 O.3   1155  CXS1155    -0.0702
      4  O3        -8.8950   14.5830   14.5590 O.3   1155  CXS1155    -0.0702
      5  C1        -8.9930   15.0530   12.0960 C.3   1155  CXS1155     0.0739
      6  C2       -10.3750   15.1660   11.4670 C.3   1155  CXS1155    -0.0205
      7  C3       -10.7770   13.8650   10.7920 C.3   1155  CXS1155    -0.0024
      8  N         -9.8100   13.4060    9.8080 N.3   1155  CXS1155    -0.3132
      9  C4        -9.2960   12.0420    9.7980 C.3   1155  CXS1155     0.0076
     10  C5       -10.3860   11.0000    9.9910 C.3   1155  CXS1155    -0.0375
     11  C6        -9.7400    9.6310   10.0840 C.3   1155  CXS1155    -0.0516
     12  C7        -9.0340    9.2860    8.7810 C.3   1155  CXS1155    -0.0530
     13  C8        -8.0450   10.3610    8.3520 C.3   1155  CXS1155    -0.0516
     14  C9        -8.6030   11.7840    8.4620 C.3   1155  CXS1155    -0.0375
     15  H11       -8.7020   14.0020   12.1590 H     1155  CXS1155     0.0506
     16  H12       -8.2670   15.5580   11.4550 H     1155  CXS1155     0.0506
     17  H21      -10.3730   15.9710   10.7290 H     1155  CXS1155     0.0293
     18  H22      -11.1210   15.4100   12.2260 H     1155  CXS1155     0.0293
     19  H31      -11.7430   14.0030   10.3020 H     1155  CXS1155     0.0425
     20  H32      -10.9100   13.1160   11.5680 H     1155  CXS1155     0.0425
     21  HN        -9.4840   14.0570    9.1080 H     1155  CXS1155     0.1222
     22  H4        -8.5580   11.9350   10.6050 H     1155  CXS1155     0.0460
     23  H51      -11.0780   11.0260    9.1470 H     1155  CXS1155     0.0280
     24  H52      -10.9520   11.1820   10.9040 H     1155  CXS1155     0.0280
     25  H61      -10.5040    8.8800   10.2950 H     1155  CXS1155     0.0266
     26  H62       -9.0200    9.6190   10.9050 H     1155  CXS1155     0.0266
     27  H71       -9.7800    9.1510    7.9950 H     1155  CXS1155     0.0265
     28  H72       -8.5050    8.3380    8.9000 H     1155  CXS1155     0.0265
     29  H81       -7.7500   10.1770    7.3170 H     1155  CXS1155     0.0266
     30  H82       -7.1490   10.2760    8.9670 H     1155  CXS1155     0.0266
     31  H91       -9.3140   11.9530    7.6510 H     1155  CXS1155     0.0280
     32  H92       -7.7860   12.4990    8.3390 H     1155  CXS1155     0.0280
@<TRIPOS>BOND
     1    29    13    1
     2    31    14    1
     3    27    12    1
     4    32    14    1
     5    13    14    1
     6    13    12    1
     7    13    30    1
     8    14     9    1
     9    12    28    1
    10    12    11    1
    11    21     8    1
    12    23    10    1
    13     9     8    1
    14     9    10    1
    15     9    22    1
    16     8     7    1
    17    10    11    1
    18    10    24    1
    19    11    25    1
    20    11    26    1
    21    19     7    1
    22    17     6    1
    23     7     6    1
    24     7    20    1
    25    16     5    1
    26     6     5    1
    27     6    18    1
    28     5    15    1
    29     5     1    1
    30     1     2    1
    31     1     3    1
    32     1     4    1
