@<TRIPOS>MOLECULE
2bka_NDP_A_1.pdb
 48 52 0 0 0
SMALL
GASTEIGER

@<TRIPOS>ATOM
      1  PA        15.0630   48.0590   54.6180 P.3   506  NDP506      0.2189
      2  O1A       13.9600   47.8740   55.5850 O.3   506  NDP506     -0.4371
      3  O2A       16.4080   48.2330   55.1710 O.2   506  NDP506     -0.5170
      4  O5B       14.8400   49.3820   53.7690 O.3   506  NDP506     -0.3112
      5  C5B       13.5460   49.6060   53.2950 C.3   506  NDP506      0.1813
      6  C4B       13.3350   50.9270   52.4580 C.3   506  NDP506      0.1820
      7  O4B       12.0170   51.1860   51.9780 O.3   506  NDP506     -0.3136
      8  C3B       13.7530   52.1730   53.2290 C.3   506  NDP506      0.2157
      9  O3B       14.4280   53.1150   52.3380 O.3   506  NDP506     -0.2175
     10  C2B       12.4470   52.6920   53.6650 C.3   506  NDP506      0.2314
     11  O2B       12.4140   54.0840   54.0560 O.3   506  NDP506     -0.2630
     12  C1B       11.5900   52.4490   52.4620 C.3   506  NDP506      0.3158
     13  N9A       10.2000   52.3830   52.9040 N.pl3 506  NDP506     -0.1439
     14  C8A        9.5610   51.4150   53.6810 C.3   506  NDP506      0.3377
     15  N7A        8.3150   51.7090   53.9130 N.2   506  NDP506     -0.2095
     16  C5A        8.1220   52.9120   53.2680 C.2   506  NDP506      0.2526
     17  C6A        7.0000   53.7630   53.1490 C.2   506  NDP506      0.4393
     18  N6A        5.8470   53.4770   53.7310 N.pl3 506  NDP506      0.2180
     19  N1A        7.1380   54.9100   52.4230 N.2   506  NDP506      0.0021
     20  C2A        8.3170   55.2160   51.8330 C.3   506  NDP506      0.5254
     21  N3A        9.4280   54.4710   51.9020 N.2   506  NDP506     -0.0055
     22  C4A        9.2570   53.3260   52.6380 C.2   506  NDP506      0.3518
     23  O3        15.0430   46.9500   53.4580 O.3   506  NDP506     -0.2703
     24  PN        16.1430   45.9500   52.8990 P.3   506  NDP506      0.2189
     25  O1N       16.3780   44.8510   53.8800 O.3   506  NDP506     -0.4371
     26  O2N       17.3380   46.7190   52.5330 O.2   506  NDP506     -0.5170
     27  O5D       15.3950   45.3980   51.6150 O.3   506  NDP506     -0.3112
     28  C5D       15.3710   46.1030   50.3940 C.3   506  NDP506      0.1813
     29  C4D       14.5100   45.3600   49.4250 C.3   506  NDP506      0.1799
     30  O4D       15.1090   44.0340   49.3060 O.3   506  NDP506     -0.3327
     31  C3D       13.0730   45.0860   49.8440 C.3   506  NDP506      0.2158
     32  O3D       12.2410   45.2640   48.6880 O.3   506  NDP506     -0.2175
     33  C2D       13.0540   43.6160   50.3640 C.3   506  NDP506      0.2309
     34  O2D       11.7710   43.0410   50.2100 O.3   506  NDP506     -0.2158
     35  C1D       14.0990   43.0230   49.4600 C.3   506  NDP506      0.2263
     36  N1N       14.6710   41.8330   50.0950 N.pl3 506  NDP506     -0.2787
     37  C2N       15.1900   41.8500   51.4580 C.3   506  NDP506      0.1244
     38  C3N       15.6930   40.6460   52.0170 C.2   506  NDP506      0.0544
     39  C7N       16.2910   40.6430   53.3960 C.2   506  NDP506      0.2818
     40  O7N       16.7410   39.6800   53.8920 O.2   506  NDP506     -0.2670
     41  N7N       16.2930   41.8530   54.0760 N.am  506  NDP506     -0.0839
     42  C4N       15.7300   39.4360   51.1930 C.2   506  NDP506      0.0033
     43  C5N       15.5160   39.5170   49.7690 C.2   506  NDP506      0.0157
     44  C6N       14.9780   40.7120   49.1980 C.2   506  NDP506      0.0633
     45  P2B       12.4790   54.5800   55.5920 P.3   506  NDP506      0.5328
     46  O1X       13.8830   54.4720   56.0730 O.3   506  NDP506     -0.1145
     47  O2X       11.9600   55.9430   55.4510 O.2   506  NDP506     -0.2224
     48  O3X       11.5440   53.6910   56.3080 O.3   506  NDP506     -0.1145
@<TRIPOS>BOND
     1    32    31    1
     2    44    43    2
     3    44    36    1
     4    30    29    1
     5    30    35    1
     6    29    31    1
     7    29    28    1
     8    35    36    1
     9    35    33    1
    10    43    42    1
    11    31    33    1
    12    36    37    1
    13    34    33    1
    14    28    27    1
    15    42    38    2
    16    37    38    1
    17    27    24    1
    18    20    21    1
    19    20    19    1
    20    21    22    2
    21     7     6    1
    22     7    12    1
    23    38    39    1
    24     9     8    1
    25    19    17    2
    26     6     8    1
    27     6     5    1
    28    12    13    1
    29    12    10    1
    30    26    24    2
    31    22    13    1
    32    22    16    1
    33    24    23    1
    34    24    25    1
    35    13    14    1
    36    17    16    1
    37    17    18    1
    38     8    10    1
    39    16    15    2
    40     5     4    1
    41    39    40    2
    42    39    41   am
    43    23     1    1
    44    10    11    1
    45    14    15    1
    46     4     1    1
    47    11    45    1
    48     1     3    2
    49     1     2    1
    50    47    45    2
    51    45    46    1
    52    45    48    1
