@<TRIPOS>MOLECULE
2bkj_FMN_A_1.pdb
 31 33 0 0 0
SMALL
GASTEIGER

@<TRIPOS>ATOM
      1  N1        -7.0080   -3.3490    9.4170 N.2   241  FMN241     -0.2890
      2  C2        -7.5090   -3.7700    8.2010 C.1   241  FMN241      0.3669
      3  O2        -8.5280   -4.4410    8.1030 O.2   241  FMN241     -0.1744
      4  N3        -6.7380   -3.4020    7.1130 N.2   241  FMN241     -0.2300
      5  C4        -5.5260   -2.7190    7.1620 C.1   241  FMN241      0.2513
      6  O4        -4.9430   -2.5090    6.0960 O.2   241  FMN241     -0.2057
      7  C4A       -5.1270   -2.3250    8.4960 C.2   241  FMN241      0.2700
      8  N5        -4.0740   -1.4390    8.5320 N.2   241  FMN241     -0.3878
      9  C5A       -3.7370   -0.8900    9.7390 C.2   241  FMN241      0.1320
     10  C6        -2.7750    0.0860    9.7440 C.2   241  FMN241      0.0250
     11  C7        -2.4690    0.7380   10.9230 C.2   241  FMN241     -0.0238
     12  C7M       -1.5530    1.9810   10.8860 C.3   241  FMN241      0.0308
     13  C8        -3.0750    0.3380   12.1140 C.2   241  FMN241     -0.0280
     14  C8M       -2.7280    1.0010   13.4320 C.3   241  FMN241      0.0304
     15  C9        -4.0030   -0.6620   12.1080 C.2   241  FMN241     -0.0041
     16  C9A       -4.3760   -1.2610   10.9180 C.3   241  FMN241      0.1497
     17  N10       -5.4030   -2.1940   10.9020 N.pl3 241  FMN241     -0.2691
     18  C10       -5.8320   -2.6520    9.6670 C.2   241  FMN241      0.2416
     19  C1'       -6.2650   -2.2200   11.9380 C.3   241  FMN241      0.1294
     20  C2'       -6.4260   -3.5500   12.6860 C.3   241  FMN241      0.2044
     21  O2'       -5.6570   -4.6650   12.2150 O.3   241  FMN241     -0.2185
     22  C3'       -6.5880   -3.4020   14.1950 C.3   241  FMN241      0.2164
     23  O3'       -6.0280   -2.2220   14.7850 O.3   241  FMN241     -0.2175
     24  C4'       -6.5770   -4.6580   15.0810 C.3   241  FMN241      0.2147
     25  O4'       -5.7180   -5.7400   14.8100 O.3   241  FMN241     -0.2176
     26  C5'       -6.7810   -4.4160   16.5330 C.3   241  FMN241      0.1892
     27  O5'       -8.1990   -4.4530   16.6280 O.3   241  FMN241     -0.2674
     28  P         -9.1420   -3.2130   16.9190 P.3   241  FMN241      0.5327
     29  O1P       -8.9720   -3.0620   18.3780 O.3   241  FMN241     -0.1145
     30  O2P      -10.4600   -3.7160   16.4740 O.3   241  FMN241     -0.1145
     31  O3P       -8.6130   -2.0810   16.1320 O.2   241  FMN241     -0.2224
@<TRIPOS>BOND
     1     6     5    2
     2     4     5    2
     3     4     2    2
     4     5     7    1
     5     3     2    2
     6     2     1    2
     7     7     8    2
     8     7    18    1
     9     8     9    2
    10     1    18    2
    11    18    17    1
    12     9    10    1
    13     9    16    1
    14    10    11    2
    15    12    11    1
    16    17    16    1
    17    17    19    1
    18    16    15    1
    19    11    13    1
    20    19    20    1
    21    15    13    2
    22    13    14    1
    23    21    20    1
    24    20    22    1
    25    22    23    1
    26    22    24    1
    27    25    24    1
    28    24    26    1
    29    31    28    2
    30    30    28    1
    31    26    27    1
    32    27    28    1
    33    28    29    1
