@<TRIPOS>MOLECULE
2bkj_NAD_B_1.pdb
 44 48 0 0 0
SMALL
GASTEIGER

@<TRIPOS>ATOM
      1  PA        12.5740   19.5340   19.6000 P.3   243  NAD243      0.2189
      2  O1A       12.6030   18.0580   19.5120 O.3   243  NAD243     -0.4371
      3  O2A       13.2240   20.3340   18.5390 O.2   243  NAD243     -0.5170
      4  O5B       13.1570   19.9740   21.0710 O.3   243  NAD243     -0.3112
      5  C5B       13.5050   21.3330   21.3940 C.3   243  NAD243      0.1813
      6  C4B       14.9300   21.6060   20.9340 C.3   243  NAD243      0.1821
      7  O4B       15.2120   23.0170   20.8620 O.3   243  NAD243     -0.3135
      8  C3B       15.9740   21.0050   21.8520 C.3   243  NAD243      0.2184
      9  O3B       17.0660   20.5140   21.0690 O.3   243  NAD243     -0.2174
     10  C2B       16.4060   22.1730   22.7210 C.3   243  NAD243      0.2570
     11  O2B       17.7640   22.0610   23.1490 O.3   243  NAD243     -0.2130
     12  C1B       16.2420   23.3720   21.8080 C.3   243  NAD243      0.3186
     13  N9A       15.8590   24.5840   22.5770 N.pl3 243  NAD243     -0.1439
     14  C8A       16.4570   25.7830   22.5270 C.3   243  NAD243      0.3377
     15  N7A       15.8020   26.6680   23.2870 N.2   243  NAD243     -0.2095
     16  C5A       14.8030   25.9700   23.8070 C.2   243  NAD243      0.2526
     17  C6A       13.9160   26.4400   24.7550 C.2   243  NAD243      0.4393
     18  N6A       13.8980   27.7020   25.1800 N.pl3 243  NAD243      0.2180
     19  N1A       13.0550   25.5390   25.2700 N.2   243  NAD243      0.0021
     20  C2A       13.0640   24.2640   24.8740 C.3   243  NAD243      0.5254
     21  N3A       13.9210   23.8310   23.9450 N.2   243  NAD243     -0.0055
     22  C4A       14.8170   24.6800   23.4020 C.2   243  NAD243      0.3518
     23  O3        11.0340   19.9580   19.6300 O.3   243  NAD243     -0.2703
     24  PN        10.1510   21.2370   19.2530 P.3   243  NAD243      0.2189
     25  O1N        8.7900   20.7580   18.9340 O.3   243  NAD243     -0.4371
     26  O2N       10.8870   22.0930   18.2940 O.2   243  NAD243     -0.5170
     27  O5D       10.0950   21.9610   20.6770 O.3   243  NAD243     -0.3112
     28  C5D       10.0080   23.3760   20.6620 C.3   243  NAD243      0.1813
     29  C4D        9.9680   23.9860   22.0460 C.3   243  NAD243      0.1799
     30  O4D       11.2370   24.6110   22.3330 O.3   243  NAD243     -0.3327
     31  C3D        8.9680   25.1130   21.9820 C.3   243  NAD243      0.2158
     32  O3D        8.4790   25.5210   23.2670 O.3   243  NAD243     -0.2175
     33  C2D        9.7990   26.1750   21.2830 C.3   243  NAD243      0.2309
     34  O2D        9.1930   27.4430   21.5590 O.3   243  NAD243     -0.2158
     35  C1D       11.1950   25.9860   21.8930 C.3   243  NAD243      0.2263
     36  N1N       12.3640   26.2900   21.0120 N.pl3 243  NAD243     -0.2787
     37  C2N       13.0060   27.5350   21.1390 C.3   243  NAD243      0.1244
     38  C3N       14.1820   27.8320   20.4420 C.2   243  NAD243      0.0544
     39  C7N       14.8010   29.2380   20.5480 C.2   243  NAD243      0.2818
     40  O7N       15.7630   29.5680   19.8540 O.2   243  NAD243     -0.2670
     41  N7N       14.2030   30.0710   21.4000 N.am  243  NAD243     -0.0839
     42  C4N       14.7390   26.8630   19.5980 C.2   243  NAD243      0.0033
     43  C5N       14.1210   25.6180   19.4500 C.2   243  NAD243      0.0157
     44  C6N       12.9430   25.3310   20.1500 C.2   243  NAD243      0.0633
@<TRIPOS>BOND
     1    26    24    2
     2     3     1    2
     3    25    24    1
     4    24    23    1
     5    24    27    1
     6    43    42    1
     7    43    44    2
     8     2     1    1
     9    42    38    2
    10     1    23    1
    11     1     4    1
    12    40    39    2
    13    44    36    1
    14    38    39    1
    15    38    37    1
    16    39    41   am
    17    28    27    1
    18    28    29    1
    19     7     6    1
    20     7    12    1
    21     6     5    1
    22     6     8    1
    23    36    37    1
    24    36    35    1
    25     9     8    1
    26     4     5    1
    27    33    34    1
    28    33    35    1
    29    33    31    1
    30    12    13    1
    31    12    10    1
    32     8    10    1
    33    35    30    1
    34    31    29    1
    35    31    32    1
    36    29    30    1
    37    14    13    1
    38    14    15    1
    39    13    22    1
    40    10    11    1
    41    15    16    2
    42    22    16    1
    43    22    21    2
    44    16    17    1
    45    21    20    1
    46    17    18    1
    47    17    19    2
    48    20    19    1
