@<TRIPOS>MOLECULE
2bkk_ADP_A_1.pdb
 27 29 0 0 0
SMALL
GASTEIGER

@<TRIPOS>ATOM
      1  PB        10.7670  -12.6800   16.8520 P.3   1265  ADP1265     0.5373
      2  O1B       10.2190  -13.2060   18.2220 O.3   1265  ADP1265    -0.1143
      3  O2B        9.5610  -12.5150   15.9270 O.2   1265  ADP1265    -0.2221
      4  O3B       11.4600  -11.3610   16.9630 O.3   1265  ADP1265    -0.1143
      5  PA        12.7810  -14.7820   16.8500 P.3   1265  ADP1265     0.2231
      6  O1A       14.1680  -14.3580   16.5990 O.2   1265  ADP1265    -0.5169
      7  O2A       12.6160  -14.9560   18.3660 O.3   1265  ADP1265    -0.4370
      8  O3A       11.7460  -13.7710   16.1370 O.3   1265  ADP1265    -0.2261
      9  O5'       12.4530  -16.1650   16.1170 O.3   1265  ADP1265    -0.3111
     10  C5'       11.2760  -16.8430   16.4800 C.3   1265  ADP1265     0.1813
     11  C4'       11.5450  -18.3110   16.6720 C.3   1265  ADP1265     0.1821
     12  O4'       12.3930  -18.8840   15.6920 O.3   1265  ADP1265    -0.3135
     13  C3'       12.2020  -18.5560   18.0090 C.3   1265  ADP1265     0.2184
     14  O3'       11.2930  -18.4730   19.1000 O.3   1265  ADP1265    -0.2174
     15  C2'       12.8510  -19.8780   17.7700 C.3   1265  ADP1265     0.2570
     16  O2'       11.9130  -20.9070   17.9280 O.3   1265  ADP1265    -0.2130
     17  C1'       13.3030  -19.8150   16.3110 C.3   1265  ADP1265     0.3186
     18  N9        14.7230  -19.3180   16.2090 N.pl3 1265  ADP1265    -0.1439
     19  C8        15.1210  -18.0600   15.7910 C.3   1265  ADP1265     0.3377
     20  N7        16.4830  -17.9770   15.7680 N.2   1265  ADP1265    -0.2095
     21  C5        16.9680  -19.1570   16.2120 C.2   1265  ADP1265     0.2526
     22  C6        18.2830  -19.6010   16.4260 C.2   1265  ADP1265     0.4393
     23  N6        19.3490  -18.8680   16.0610 N.pl3 1265  ADP1265     0.2180
     24  N1        18.4700  -20.8810   16.8790 N.2   1265  ADP1265     0.0021
     25  C2        17.3720  -21.7140   17.1260 C.3   1265  ADP1265     0.5254
     26  N3        16.0760  -21.2640   16.9530 N.2   1265  ADP1265    -0.0055
     27  C4        15.8710  -20.0060   16.4800 C.2   1265  ADP1265     0.3518
@<TRIPOS>BOND
     1    12    17    1
     2    12    11    1
     3    20    19    1
     4    20    21    2
     5    19    18    1
     6     3     1    2
     7    23    22    1
     8     9    10    1
     9     9     5    1
    10     8     5    1
    11     8     1    1
    12    18    17    1
    13    18    27    1
    14    21    22    1
    15    21    27    1
    16    17    15    1
    17    22    24    2
    18    27    26    2
    19    10    11    1
    20     6     5    2
    21    11    13    1
    22     5     7    1
    23     1     4    1
    24     1     2    1
    25    24    25    1
    26    26    25    1
    27    15    16    1
    28    15    13    1
    29    13    14    1
