@<TRIPOS>MOLECULE
2bkl_ZAH_A_1.pdb
 22 23 0 0 0
SMALL
GASTEIGER

@<TRIPOS>ATOM
      1  C1       -39.9290   -0.5590    8.7080 C.3   1533  ZAH1533     0.2017
      2  O2       -40.5190   -0.8880    7.4710 O.3   1533  ZAH1533    -0.2186
      3  C3       -39.2750   -1.7740    9.4080 C.3   1533  ZAH1533     0.1083
      4  C4       -38.1180   -2.3500    8.5870 C.3   1533  ZAH1533     0.0243
      5  C5       -38.7120   -3.4460    7.7110 C.3   1533  ZAH1533     0.0233
      6  C6       -39.9650   -3.9230    8.3970 C.3   1533  ZAH1533     0.0935
      7  N7       -40.1430   -2.9700    9.4850 N.am  1533  ZAH1533    -0.2772
      8  C8       -41.0850   -3.1100   10.4150 C.2   1533  ZAH1533     0.2456
      9  O9       -41.1160   -2.2290   11.3990 O.2   1533  ZAH1533    -0.2730
     10  C10      -41.9220   -4.4020   10.5390 C.3   1533  ZAH1533     0.1747
     11  C11      -43.0760   -4.1850    9.5600 C.3   1533  ZAH1533     0.0334
     12  N14      -42.4640   -4.5720   11.8640 N.am  1533  ZAH1533    -0.1611
     13  C15      -41.7090   -4.9530   12.8670 C.2   1533  ZAH1533     0.4218
     14  O16      -40.4550   -5.2820   12.6950 O.2   1533  ZAH1533    -0.2245
     15  O17      -42.3070   -5.0400   14.1670 O.3   1533  ZAH1533    -0.4285
     16  C18      -41.3660   -5.3100   15.2370 C.3   1533  ZAH1533     0.2368
     17  C19      -41.9950   -5.1040   16.6190 C.ar  1533  ZAH1533     0.0213
     18  C20      -43.0320   -5.9510   17.0320 C.ar  1533  ZAH1533    -0.0007
     19  C21      -43.6210   -5.7670   18.2830 C.ar  1533  ZAH1533    -0.0002
     20  C22      -43.1570   -4.7540   19.1260 C.ar  1533  ZAH1533    -0.0000
     21  C23      -42.1060   -3.9220   18.7290 C.ar  1533  ZAH1533    -0.0002
     22  C24      -41.5280   -4.0970   17.4720 C.ar  1533  ZAH1533    -0.0007
@<TRIPOS>BOND
     1     2     1    1
     2     5     6    1
     3     5     4    1
     4     6     7    1
     5     4     3    1
     6     1     3    1
     7     3     7    1
     8     7     8   am
     9    11    10    1
    10     8    10    1
    11     8     9    2
    12    10    12    1
    13    12    13   am
    14    14    13    2
    15    13    15    1
    16    15    16    1
    17    16    17    1
    18    17    18   ar
    19    17    22   ar
    20    18    19   ar
    21    22    21   ar
    22    19    20   ar
    23    21    20   ar
