@<TRIPOS>MOLECULE
2bkm_HEM_A_1.pdb
 43 50 0 0 0
SMALL
GASTEIGER

@<TRIPOS>ATOM
      1 FE         14.4770    0.1510    3.9300 Fe    1132  HEM1132     0.0000
      2  CHA       16.2020   -2.7690    3.7890 C.2   1132  HEM1132     0.0000
      3  CHB       16.5000    1.4410    1.4740 C.2   1132  HEM1132     0.0000
      4  CHC       13.0500    3.1760    4.4040 C.2   1132  HEM1132     0.0000
      5  CHD       12.1160   -1.2830    5.9170 C.2   1132  HEM1132     0.0000
      6  NA        16.0170   -0.4940    2.8500 N.ar  1132  HEM1132     0.0000
      7  C1A       16.5200   -1.7760    2.9060 C.ar  1132  HEM1132     0.0000
      8  C2A       17.5370   -1.9160    1.8860 C.ar  1132  HEM1132     0.0000
      9  C3A       17.6170   -0.7500    1.2480 C.ar  1132  HEM1132     0.0000
     10  C4A       16.6670    0.1500    1.8480 C.ar  1132  HEM1132     0.0000
     11  CMA       18.5490   -0.4210    0.0670 C.3   1132  HEM1132     0.0000
     12  CAA       18.3380   -3.1960    1.5920 C.3   1132  HEM1132     0.0000
     13  CBA       17.4190   -4.2230    0.9580 C.3   1132  HEM1132     0.0000
     14  CGA       17.9940   -5.6260    0.9480 C.2   1132  HEM1132     0.0000
     15  O1A       19.1940   -5.8510    1.3170 O.co2 1132  HEM1132     0.0000
     16  O2A       17.2380   -6.5680    0.5980 O.co2 1132  HEM1132     0.0000
     17  NB        14.7340    1.9670    3.1150 N.2   1132  HEM1132     0.0000
     18  C1B       15.6250    2.2750    2.1070 C.2   1132  HEM1132     0.0000
     19  C2B       15.4880    3.6930    1.8420 C.2   1132  HEM1132     0.0000
     20  C3B       14.5630    4.1630    2.6720 C.2   1132  HEM1132     0.0000
     21  C4B       14.0450    3.0930    3.4910 C.2   1132  HEM1132     0.0000
     22  CMB       16.2510    4.4970    0.7680 C.3   1132  HEM1132     0.0000
     23  CAB       14.0940    5.6080    2.7290 C.2   1132  HEM1132     0.0000
     24  CBB       13.6870    6.1900    3.8640 C.2   1132  HEM1132     0.0000
     25  NC        12.9050    0.8170    4.9660 N.ar  1132  HEM1132     0.0000
     26  C1C       12.4280    2.1050    5.0090 C.ar  1132  HEM1132     0.0000
     27  C2C       11.1860    2.1540    5.7420 C.ar  1132  HEM1132     0.0000
     28  C3C       10.9700    0.8960    6.1490 C.ar  1132  HEM1132     0.0000
     29  C4C       12.0380    0.0520    5.6760 C.ar  1132  HEM1132     0.0000
     30  CMC       10.3010    3.4100    5.9970 C.3   1132  HEM1132     0.0000
     31  CAC        9.7790    0.3190    6.9310 C.2   1132  HEM1132     0.0000
     32  CBC        8.8050    1.0290    7.4820 C.2   1132  HEM1132     0.0000
     33  ND        14.2130   -1.6920    4.7150 N.2   1132  HEM1132     0.0000
     34  C1D       13.1490   -2.0680    5.5130 C.2   1132  HEM1132     0.0000
     35  C2D       13.3080   -3.4430    5.9170 C.2   1132  HEM1132     0.0000
     36  C3D       14.5720   -3.8850    5.2720 C.2   1132  HEM1132     0.0000
     37  C4D       15.0840   -2.7340    4.5710 C.2   1132  HEM1132     0.0000
     38  CMD       12.3500   -4.2680    6.7870 C.3   1132  HEM1132     0.0000
     39  CAD       15.1970   -5.2630    5.3700 C.3   1132  HEM1132     0.0000
     40  CBD       16.2810   -5.2500    6.4560 C.3   1132  HEM1132     0.0000
     41  CGD       16.9600   -6.5980    6.3950 C.2   1132  HEM1132     0.0000
     42  O1D       17.8500   -6.8240    5.5100 O.co2 1132  HEM1132     0.0000
     43  O2D       16.5370   -7.4650    7.2070 O.co2 1132  HEM1132     0.0000
@<TRIPOS>BOND
     1    11     9    1
     2    16    14   ar
     3    22    19    1
     4    14    13    1
     5    14    15   ar
     6    13    12    1
     7     9    10   ar
     8     9     8   ar
     9     3    10    2
    10     3    18    1
    11    12     8    1
    12    19    18    1
    13    19    20    2
    14    10     6   ar
    15     8     7   ar
    16    18    17    2
    17    20    23    1
    18    20    21    1
    19    23    24    2
    20     6     7   ar
    21     6     1    1
    22     7     2    2
    23    17    21    1
    24    17     1    1
    25    21     4    2
    26     2    37    1
    27     1    33    1
    28     1    25    1
    29     4    26    1
    30    37    33    2
    31    37    36    1
    32    33    34    1
    33    25    26   ar
    34    25    29   ar
    35    26    27   ar
    36    36    39    1
    37    36    35    2
    38    39    40    1
    39    42    41   ar
    40    34     5    2
    41    34    35    1
    42    29     5    1
    43    29    28   ar
    44    27    30    1
    45    27    28   ar
    46    35    38    1
    47    28    31    1
    48    41    40    1
    49    41    43   ar
    50    31    32    2
