@<TRIPOS>MOLECULE
2bkt_RPF_A_1.pdb
 39 43 0 0 0
SMALL
GASTEIGER

@<TRIPOS>ATOM
      1  C1        79.7520   18.5230   76.1530 C.3   567  RPF567      0.2525
      2  O1        78.8870   17.6030   75.5200 O.3   567  RPF567     -0.4717
      3  C2        79.3620   16.2980   75.6200 C.ar  567  RPF567      0.1370
      4  C3        78.8790   15.4190   76.6370 C.ar  567  RPF567      0.0413
      5  C4        77.8470   15.8930   77.6370 C.3   567  RPF567      0.1716
      6  O2        76.8120   14.9580   77.8330 O.3   567  RPF567     -0.3488
      7  C5        80.3330   15.8480   74.6910 C.ar  567  RPF567      0.0367
      8  C6        80.8280   14.5220   74.7680 C.ar  567  RPF567      0.0031
      9  C7        80.3580   13.6470   75.7630 C.ar  567  RPF567     -0.0000
     10  C8        79.3900   14.0960   76.6920 C.ar  567  RPF567      0.0012
     11  C9        77.8750   22.7300   73.6350 C.2   567  RPF567      0.1220
     12  C10       78.7100   23.0140   72.5560 C.2   567  RPF567      0.0510
     13  C11       79.1600   22.0180   71.6910 C.2   567  RPF567      0.0744
     14  C12       78.7740   20.6600   71.9000 C.2   567  RPF567     -0.0086
     15  C13       77.9290   20.3440   72.9910 C.2   567  RPF567     -0.0210
     16  C14       77.4750   21.3700   73.8580 C.3   567  RPF567      0.0896
     17  C20       75.1900   23.9990   74.9170 C.3   567  RPF567      0.1640
     18  C21       75.0590   25.5080   74.6140 C.2   567  RPF567      0.0911
     19  N2        73.9080   26.1790   75.1970 N.2   567  RPF567     -0.2618
     20  C22       72.8640   25.5540   75.9970 C.3   567  RPF567      0.2101
     21  C23       73.0260   24.0520   76.2810 C.2   567  RPF567      0.2545
     22  N3        74.1250   23.3800   75.7600 N.am  567  RPF567     -0.2494
     23  O5        72.1640   23.5220   76.9670 O.2   567  RPF567     -0.2724
     24  C24       76.6340   23.7730   75.4880 C.3   567  RPF567      0.2310
     25  O6        77.5100   23.8660   74.3820 O.2   567  RPF567     -0.4771
     26  C25       73.9880   21.0510   75.0340 C.ar  567  RPF567      0.0180
     27  C26       74.2410   22.0190   76.0500 C.ar  567  RPF567      0.0545
     28  C27       74.6260   21.5730   77.3570 C.ar  567  RPF567      0.0180
     29  C28       74.7520   20.1990   77.6360 C.ar  567  RPF567      0.0382
     30  C29       74.5000   19.2320   76.6250 C.ar  567  RPF567      0.1386
     31  C30       74.1180   19.6650   75.3270 C.ar  567  RPF567      0.0382
     32  O7        74.6090   17.8630   76.8370 O.3   567  RPF567     -0.4754
     33  C31       74.4710   17.3410   78.1510 C.3   567  RPF567      0.2080
     34  C32       74.5100   15.7990   78.0690 C.3   567  RPF567      0.0794
     35  C33       75.6040   15.2170   77.1390 C.3   567  RPF567      0.1465
     36  C34       80.5930   19.9760   70.2680 C.3   567  RPF567      0.0310
     37  C35       80.5080   21.3950   69.6570 C.3   567  RPF567      0.1258
     38  N1        79.9780   22.3660   70.6380 N.2   567  RPF567     -0.2706
     39  C36       79.2640   19.5810   70.9630 C.3   567  RPF567      0.0296
@<TRIPOS>BOND
     1    37    36    1
     2    37    38    1
     3    36    39    1
     4    38    13    2
     5    39    14    1
     6    13    14    1
     7    13    12    1
     8    14    15    2
     9    12    11    2
    10    15    16    1
    11    11    16    1
    12    11    25    1
    13    25    24    1
    14    18    17    1
    15    18    19    2
    16     7     8   ar
    17     7     3   ar
    18     8     9   ar
    19    17    24    1
    20    17    22    1
    21    26    31   ar
    22    26    27   ar
    23    19    20    1
    24    31    30   ar
    25     2     3    1
    26     2     1    1
    27     3     4   ar
    28    22    27    1
    29    22    21   am
    30     9    10   ar
    31    20    21    1
    32    27    28   ar
    33    21    23    2
    34    30    32    1
    35    30    29   ar
    36     4    10   ar
    37     4     5    1
    38    32    33    1
    39    35     6    1
    40    35    34    1
    41    28    29   ar
    42     5     6    1
    43    34    33    1
