@<TRIPOS>MOLECULE
2bku_GTP_A_1.pdb
 32 34 0 0 0
SMALL
GASTEIGER

@<TRIPOS>ATOM
      1  PG       -11.5980   12.3830  -24.3870 P.3   220  GTP220      0.5373
      2  O1G      -12.1870   11.0550  -24.8030 O.3   220  GTP220     -0.1143
      3  O2G      -11.2020   12.2980  -22.9380 O.3   220  GTP220     -0.1143
      4  O3G      -10.4010   12.7300  -25.2430 O.2   220  GTP220     -0.2221
      5  O3B      -12.7760   13.4410  -24.5610 O.3   220  GTP220     -0.2258
      6  PB       -12.6190   15.0080  -24.2890 P.3   220  GTP220      0.2277
      7  O1B      -12.7700   15.2480  -22.8160 O.3   220  GTP220     -0.4368
      8  O2B      -11.3340   15.5530  -24.8510 O.2   220  GTP220     -0.5168
      9  O3A      -13.9150   15.6180  -25.0140 O.3   220  GTP220     -0.2700
     10  PA       -13.7280   16.5810  -26.2870 P.3   220  GTP220      0.2189
     11  O1A      -12.8790   17.7550  -25.8670 O.3   220  GTP220     -0.4371
     12  O2A      -13.1380   15.8220  -27.4530 O.2   220  GTP220     -0.5170
     13  O5'      -15.1780   17.1520  -26.6870 O.3   220  GTP220     -0.3112
     14  C5'      -16.3870   16.6440  -26.1990 C.3   220  GTP220      0.1813
     15  C4'      -17.5690   17.2720  -26.9210 C.3   220  GTP220      0.1799
     16  O4'      -18.1680   18.2350  -26.0820 O.3   220  GTP220     -0.3326
     17  C3'      -17.2290   17.9870  -28.2200 C.3   220  GTP220      0.2158
     18  O3'      -18.1900   17.5970  -29.1650 O.3   220  GTP220     -0.2175
     19  C2'      -17.3260   19.4670  -27.8990 C.3   220  GTP220      0.2310
     20  O2'      -17.7880   20.2150  -28.9960 O.3   220  GTP220     -0.2158
     21  C1'      -18.3210   19.4820  -26.7560 C.3   220  GTP220      0.2293
     22  N9       -18.1380   20.5260  -25.7490 N.pl3 220  GTP220     -0.2354
     23  C8       -16.9960   20.8000  -25.0570 C.3   220  GTP220      0.2246
     24  N7       -17.2470   21.8030  -24.1850 N.2   220  GTP220     -0.2322
     25  C5       -18.5370   22.1570  -24.3080 C.2   220  GTP220      0.2182
     26  C6       -19.2970   23.1210  -23.6720 C.1   220  GTP220      0.2372
     27  O6       -18.7960   23.8270  -22.7990 O.2   220  GTP220     -0.2069
     28  N1       -20.6320   23.2630  -23.9920 N.2   220  GTP220     -0.2485
     29  C2       -21.1870   22.4760  -24.9700 C.1   220  GTP220      0.2531
     30  N2       -22.4650   22.6470  -25.2450 N.pl3 220  GTP220     -0.0226
     31  N3       -20.4320   21.5070  -25.6070 N.2   220  GTP220     -0.3074
     32  C4       -19.1190   21.3530  -25.2770 C.2   220  GTP220      0.2300
@<TRIPOS>BOND
     1    18    17    1
     2    20    19    1
     3    17    19    1
     4    17    15    1
     5    19    21    1
     6    12    10    2
     7    15    14    1
     8    15    16    1
     9    21    16    1
    10    21    22    1
    11    13    10    1
    12    13    14    1
    13    10    11    1
    14    10     9    1
    15    22    32    1
    16    22    23    1
    17    31    32    2
    18    31    29    2
    19    32    25    1
    20    30    29    1
    21     4     1    2
    22    23    24    1
    23     9     6    1
    24    29    28    2
    25     8     6    2
    26     2     1    1
    27     5     1    1
    28     5     6    1
    29     1     3    1
    30    25    24    2
    31    25    26    1
    32     6     7    1
    33    28    26    2
    34    26    27    2
