@<TRIPOS>MOLECULE
2bkx_F6R_A_1.pdb
 16 15 0 0 0
SMALL
GASTEIGER

@<TRIPOS>ATOM
      1  C1        29.3360   19.6680  -18.8780 C.3   1243  F6R1243     0.2486
      2  C2        28.2440   19.4470  -19.9060 C.2   1243  F6R1243     0.2165
      3  C3        28.3470   19.7770  -21.4010 C.3   1243  F6R1243     0.2440
      4  C4        29.5190   20.7160  -21.7500 C.3   1243  F6R1243     0.2220
      5  C5        29.6000   21.0660  -23.2270 C.3   1243  F6R1243     0.2151
      6  C6        30.8040   21.9510  -23.5290 C.3   1243  F6R1243     0.1892
      7  O1        29.1090   18.9070  -17.6760 O.3   1243  F6R1243    -0.2118
      8  O2        27.1910   19.0180  -19.4880 O.2   1243  F6R1243    -0.2905
      9  O3        27.1700   20.4620  -21.7910 O.3   1243  F6R1243    -0.2122
     10  O4        29.3710   21.9120  -20.9920 O.3   1243  F6R1243    -0.2171
     11  O5        29.6210   19.9040  -24.0470 O.3   1243  F6R1243    -0.2176
     12  O6        31.9990   21.1930  -23.2860 O.3   1243  F6R1243    -0.2674
     13  P         33.4070   21.9430  -23.2880 P.3   1243  F6R1243     0.5327
     14  O1P       33.4290   22.8200  -22.0660 O.3   1243  F6R1243    -0.1145
     15  O2P       33.4360   22.7690  -24.5460 O.2   1243  F6R1243    -0.2224
     16  O3P       34.4580   20.8820  -23.2360 O.3   1243  F6R1243    -0.1145
@<TRIPOS>BOND
     1    15    13    2
     2    11     5    1
     3     6    12    1
     4     6     5    1
     5    13    12    1
     6    13    16    1
     7    13    14    1
     8     5     4    1
     9     9     3    1
    10     4     3    1
    11     4    10    1
    12     3     2    1
    13     2     8    2
    14     2     1    1
    15     1     7    1
