@<TRIPOS>MOLECULE
2bkz_SBC_A_1.pdb
 25 28 0 0 0
SMALL
GASTEIGER

@<TRIPOS>ATOM
      1  C1        -8.4480  205.0660  115.1720 C.ar  1299  SBC1299     0.0213
      2  C2        -9.7390  204.5640  114.8570 C.ar  1299  SBC1299     0.0181
      3  C3       -10.7550  205.4590  114.3880 C.ar  1299  SBC1299     0.0736
      4  C4       -10.4350  206.8480  114.2550 C.ar  1299  SBC1299     0.0181
      5  C5        -9.1610  207.3380  114.5650 C.ar  1299  SBC1299     0.0213
      6  C6        -8.1830  206.4490  115.0190 C.ar  1299  SBC1299     0.1251
      7  N7       -11.9510  205.0490  114.0950 N.pl3 1299  SBC1299    -0.1939
      8  C8       -12.5900  204.9980  112.8000 C.2   1299  SBC1299     0.0597
      9  C9       -13.9050  204.4870  113.0170 C.3   1299  SBC1299     0.0849
     10  C10      -14.0260  204.2480  114.4020 C.2   1299  SBC1299     0.1381
     11  N11      -12.8260  204.5970  115.0240 N.2   1299  SBC1299    -0.1735
     12  C12      -12.1430  205.3610  111.4240 C.2   1299  SBC1299     0.0480
     13  C13      -14.8570  204.1180  111.8240 C.3   1299  SBC1299     0.0182
     14  C14      -14.4400  204.6890  110.4200 C.3   1299  SBC1299     0.0485
     15  C15      -12.9800  205.2250  110.3120 C.2   1299  SBC1299     0.0830
     16  C16      -10.9410  205.8690  110.9420 C.2   1299  SBC1299     0.1243
     17  N17      -12.2880  205.6450  109.2060 N.2   1299  SBC1299    -0.1523
     18  N18      -11.0560  206.0340  109.5810 N.2   1299  SBC1299    -0.1466
     19  C19      -15.2650  203.6970  115.1440 C.2   1299  SBC1299     0.2996
     20  N20      -15.2030  203.5360  116.4660 N.am  1299  SBC1299    -0.0826
     21  O21      -16.3080  203.4050  114.5520 O.2   1299  SBC1299    -0.2653
     22  S22       -6.6210  207.0820  115.3970 S.O2  1299  SBC1299     0.0935
     23  O23       -6.6960  208.0660  116.7540 O.2   1299  SBC1299    -0.1503
     24  O24       -5.5950  205.8990  115.6190 O.2   1299  SBC1299    -0.1503
     25  N25       -6.0670  208.0420  114.0760 N.3   1299  SBC1299     0.0392
@<TRIPOS>BOND
     1    17    18    1
     2    17    15    2
     3    18    16    2
     4    15    14    1
     5    15    12    1
     6    14    13    1
     7    16    12    1
     8    12     8    2
     9    13     9    1
    10     8     9    1
    11     8     7    1
    12     9    10    1
    13    25    22    1
    14     7     3    1
    15     7    11    1
    16     4     3   ar
    17     4     5   ar
    18     3     2   ar
    19    10    11    2
    20    10    19    1
    21    21    19    2
    22     5     6   ar
    23     2     1   ar
    24     6     1   ar
    25     6    22    1
    26    19    20   am
    27    22    24    2
    28    22    23    2
