@<TRIPOS>MOLECULE
2bl4_NAD_A_1.pdb
 44 48 0 0 0
SMALL
GASTEIGER

@<TRIPOS>ATOM
      1  PA         8.1930   79.7530   80.4960 P.3   1385  NAD1385     0.2189
      2  O1A        7.3200   80.8370   81.0560 O.3   1385  NAD1385    -0.4371
      3  O2A        9.6360   80.0670   80.6790 O.2   1385  NAD1385    -0.5170
      4  O5B        8.0170   79.4920   78.9110 O.3   1385  NAD1385    -0.3112
      5  C5B        7.4280   78.3410   78.3370 C.3   1385  NAD1385     0.1813
      6  C4B        7.0570   78.6340   76.8880 C.3   1385  NAD1385     0.1821
      7  O4B        5.7770   78.0860   76.6580 O.3   1385  NAD1385    -0.3135
      8  C3B        6.8900   80.1100   76.5920 C.3   1385  NAD1385     0.2184
      9  O3B        7.4910   80.3690   75.3470 O.3   1385  NAD1385    -0.2174
     10  C2B        5.3820   80.3600   76.5730 C.3   1385  NAD1385     0.2570
     11  O2B        5.0010   81.3360   75.6050 O.3   1385  NAD1385    -0.2130
     12  C1B        4.7720   79.0050   76.2940 C.3   1385  NAD1385     0.3186
     13  N9A        3.6210   78.6930   77.1420 N.pl3 1385  NAD1385    -0.1439
     14  C8A        3.5770   78.8990   78.4940 C.3   1385  NAD1385     0.3377
     15  N7A        2.3790   78.4740   78.9500 N.2   1385  NAD1385    -0.2095
     16  C5A        1.6420   77.9750   77.9200 C.2   1385  NAD1385     0.2526
     17  C6A        0.3410   77.4280   77.8470 C.2   1385  NAD1385     0.4393
     18  N6A       -0.4610   77.4000   78.9160 N.pl3 1385  NAD1385     0.2180
     19  N1A       -0.1510   77.0230   76.6210 N.2   1385  NAD1385     0.0021
     20  C2A        0.6330   77.1520   75.4830 C.3   1385  NAD1385     0.5254
     21  N3A        1.9180   77.6880   75.5680 N.2   1385  NAD1385    -0.0055
     22  C4A        2.4280   78.1020   76.7630 C.2   1385  NAD1385     0.3518
     23  O3         7.7080   78.3290   81.1280 O.3   1385  NAD1385    -0.2703
     24  PN         8.0160   77.7510   82.6100 P.3   1385  NAD1385     0.2189
     25  O1N        8.6890   76.4810   82.3830 O.2   1385  NAD1385    -0.5170
     26  O2N        6.7270   77.8030   83.2900 O.3   1385  NAD1385    -0.4371
     27  O5D        9.1280   78.6760   83.3770 O.3   1385  NAD1385    -0.3112
     28  C5D       10.5340   78.4910   83.3580 C.3   1385  NAD1385     0.1813
     29  C4D       11.1390   79.5070   84.3200 C.3   1385  NAD1385     0.1799
     30  O4D       10.9200   79.1060   85.6750 O.3   1385  NAD1385    -0.3327
     31  C3D       12.6520   79.6010   84.1940 C.3   1385  NAD1385     0.2158
     32  O3D       13.0640   80.9610   84.1830 O.3   1385  NAD1385    -0.2175
     33  C2D       13.1230   78.8730   85.4520 C.3   1385  NAD1385     0.2309
     34  O2D       14.4400   79.1830   85.8090 O.3   1385  NAD1385    -0.2158
     35  C1D       12.0790   79.2270   86.5070 C.3   1385  NAD1385     0.2263
     36  N1N       12.0850   78.3030   87.6980 N.pl3 1385  NAD1385    -0.2787
     37  C2N       12.9460   78.4830   88.8050 C.3   1385  NAD1385     0.1244
     38  C3N       12.9970   77.6030   89.9460 C.2   1385  NAD1385     0.0544
     39  C7N       13.4060   78.1000   91.3460 C.2   1385  NAD1385     0.2818
     40  O7N       12.6660   77.7490   92.4860 O.2   1385  NAD1385    -0.2670
     41  N7N       14.4490   78.9000   91.5820 N.am  1385  NAD1385    -0.0839
     42  C4N       12.1340   76.5120   89.9160 C.2   1385  NAD1385     0.0033
     43  C5N       11.2740   76.3170   88.8180 C.2   1385  NAD1385     0.0157
     44  C6N       11.2430   77.1940   87.7190 C.2   1385  NAD1385     0.0633
@<TRIPOS>BOND
     1     9     8    1
     2    20    21    1
     3    20    19    1
     4    21    22    2
     5    11    10    1
     6    12    10    1
     7    12     7    1
     8    12    13    1
     9    10     8    1
    10     8     6    1
    11    19    17    2
    12     7     6    1
    13    22    13    1
    14    22    16    1
    15     6     5    1
    16    13    14    1
    17    17    16    1
    18    17    18    1
    19    16    15    2
    20     5     4    1
    21    14    15    1
    22     4     1    1
    23     1     3    2
    24     1     2    1
    25     1    23    1
    26    23    24    1
    27    25    24    2
    28    24    26    1
    29    24    27    1
    30    28    27    1
    31    28    29    1
    32    32    31    1
    33    31    29    1
    34    31    33    1
    35    29    30    1
    36    33    34    1
    37    33    35    1
    38    30    35    1
    39    35    36    1
    40    36    44    1
    41    36    37    1
    42    44    43    2
    43    37    38    1
    44    43    42    1
    45    42    38    2
    46    38    39    1
    47    39    41   am
    48    39    40    2
