@<TRIPOS>MOLECULE
2bl9_CP6_A_1.pdb
 17 18 0 0 0
SMALL
GASTEIGER

@<TRIPOS>ATOM
      1  N1        88.7590   12.7070   31.0720 N.2   1240  CP61240    -0.3112
      2  C2        89.7540   13.5690   30.6510 C.1   1240  CP61240     0.2419
      3  C3        88.6880   12.3550   32.4470 C.2   1240  CP61240     0.2201
      4  C4        89.6610   12.8690   33.4510 C.3   1240  CP61240     0.1421
      5  C5        90.6720   13.8090   32.8460 C.2   1240  CP61240     0.1122
      6  N6        90.6930   14.1270   31.5130 N.2   1240  CP61240    -0.3339
      7  C7        89.6300   12.4930   34.8720 C.ar  1240  CP61240    -0.0080
      8  C8        88.5160   12.8780   35.7510 C.ar  1240  CP61240    -0.0026
      9  C9        88.4480   12.5100   37.1440 C.ar  1240  CP61240     0.0111
     10  C10       89.4700   11.7600   37.7060 C.ar  1240  CP61240     0.0577
     11  C11       90.6140   11.3350   36.8740 C.ar  1240  CP61240     0.0111
     12  C12       90.6600   11.7120   35.4830 C.ar  1240  CP61240    -0.0026
     13  N13       87.7300   11.5320   32.8720 N.pl3 1240  CP61240    -0.0962
     14  N14       89.8390   13.8990   29.2920 N.pl3 1240  CP61240    -0.0232
     15  C15       91.7220   14.4460   33.7250 C.3   1240  CP61240     0.0563
     16  C16       91.5380   15.9350   33.9820 C.3   1240  CP61240     0.0075
     17 CL1        89.4830   11.3160   39.2940 Cl    1240  CP61240    -0.0822
@<TRIPOS>BOND
     1    14     2    1
     2     2     1    2
     3     2     6    2
     4     1     3    2
     5     6     5    2
     6     3    13    1
     7     3     4    1
     8     5     4    1
     9     5    15    1
    10     4     7    1
    11    15    16    1
    12     7    12   ar
    13     7     8   ar
    14    12    11   ar
    15     8     9   ar
    16    11    10   ar
    17     9    10   ar
    18    10    17    1
