@<TRIPOS>MOLECULE
2bl9_NDP_A_1.pdb
 48 52 0 0 0
SMALL
GASTEIGER

@<TRIPOS>ATOM
      1  PA        87.1560    3.4360   39.9400 P.3   1239  NDP1239     0.2189
      2  O1A       86.1620    3.0110   38.9890 O.2   1239  NDP1239    -0.5170
      3  O2A       87.6170    4.8250   40.0490 O.3   1239  NDP1239    -0.4371
      4  O5B       86.5710    3.0460   41.4400 O.3   1239  NDP1239    -0.3112
      5  C5B       86.3430    1.6710   41.6830 C.3   1239  NDP1239     0.1813
      6  C4B       85.3710    1.6520   42.7940 C.3   1239  NDP1239     0.1820
      7  O4B       84.1820    2.3830   42.3740 O.3   1239  NDP1239    -0.3136
      8  C3B       84.8840    0.3590   43.2210 C.3   1239  NDP1239     0.2157
      9  O3B       85.8090   -0.4680   43.9390 O.3   1239  NDP1239    -0.2175
     10  C2B       83.6430    0.6390   43.8730 C.3   1239  NDP1239     0.2314
     11  O2B       83.7640    1.1960   45.1470 O.3   1239  NDP1239    -0.2630
     12  C1B       83.1030    1.5980   42.8510 C.3   1239  NDP1239     0.3158
     13  N9A       82.2190    1.0470   41.8320 N.pl3 1239  NDP1239    -0.1439
     14  C8A       82.5320    0.6250   40.5240 C.3   1239  NDP1239     0.3377
     15  N7A       81.4610    0.1930   39.9220 N.2   1239  NDP1239    -0.2095
     16  C5A       80.4370    0.3200   40.7800 C.2   1239  NDP1239     0.2526
     17  C6A       79.0440    0.0340   40.7250 C.2   1239  NDP1239     0.4393
     18  N6A       78.4930   -0.4760   39.6140 N.pl3 1239  NDP1239     0.2180
     19  N1A       78.2710    0.2950   41.8080 N.2   1239  NDP1239     0.0021
     20  C2A       78.8330    0.8140   42.9370 C.3   1239  NDP1239     0.5254
     21  N3A       80.1400    1.1120   43.0850 N.2   1239  NDP1239    -0.0055
     22  C4A       80.8870    0.8360   41.9660 C.2   1239  NDP1239     0.3518
     23  O3        88.4820    2.5640   39.8750 O.3   1239  NDP1239    -0.2703
     24  PN        89.5790    2.1750   38.8090 P.3   1239  NDP1239     0.2189
     25  O1N       90.6400    1.4690   39.5040 O.3   1239  NDP1239    -0.4371
     26  O2N       88.8100    1.5830   37.7110 O.2   1239  NDP1239    -0.5170
     27  O5D       90.0060    3.6200   38.3400 O.3   1239  NDP1239    -0.3112
     28  C5D       90.9130    4.4430   39.1370 C.3   1239  NDP1239     0.1813
     29  C4D       92.2250    4.6100   38.3050 C.3   1239  NDP1239     0.1799
     30  O4D       91.8910    5.2080   37.0550 O.3   1239  NDP1239    -0.3327
     31  C3D       93.1250    5.6250   38.9930 C.3   1239  NDP1239     0.2158
     32  O3D       94.4940    5.2800   38.7360 O.3   1239  NDP1239    -0.2175
     33  C2D       92.6910    7.0140   38.4650 C.3   1239  NDP1239     0.2309
     34  O2D       93.7510    7.9540   38.5160 O.3   1239  NDP1239    -0.2158
     35  C1D       92.3820    6.5590   36.9560 C.3   1239  NDP1239     0.2263
     36  N1N       91.3690    7.3320   36.1880 N.pl3 1239  NDP1239    -0.2787
     37  C2N       91.8290    7.7990   34.9280 C.3   1239  NDP1239     0.1244
     38  C3N       90.8890    8.4930   34.0900 C.2   1239  NDP1239     0.0544
     39  C7N       91.3160    8.9900   32.7540 C.2   1239  NDP1239     0.2818
     40  O7N       90.5390    9.5720   31.9720 O.2   1239  NDP1239    -0.2670
     41  N7N       92.5790    8.8280   32.3250 N.am  1239  NDP1239    -0.0839
     42  C4N       89.5750    8.6780   34.5520 C.2   1239  NDP1239     0.0033
     43  C5N       89.1440    8.2320   35.8100 C.2   1239  NDP1239     0.0157
     44  C6N       90.0370    7.5550   36.6230 C.2   1239  NDP1239     0.0633
     45  P2B       83.5370    0.4040   46.4570 P.3   1239  NDP1239     0.5328
     46  O1X       82.2570   -0.2680   46.2760 O.2   1239  NDP1239    -0.2224
     47  O2X       84.7080   -0.5240   46.6440 O.3   1239  NDP1239    -0.1145
     48  O3X       83.4700    1.4670   47.5740 O.3   1239  NDP1239    -0.1145
@<TRIPOS>BOND
     1    40    39    2
     2    41    39   am
     3    39    38    1
     4    38    42    2
     5    38    37    1
     6    42    43    1
     7    37    36    1
     8    43    44    2
     9    36    44    1
    10    36    35    1
    11    35    30    1
    12    35    33    1
    13    30    29    1
    14    26    24    2
    15    29    31    1
    16    29    28    1
    17    27    24    1
    18    27    28    1
    19    33    34    1
    20    33    31    1
    21    32    31    1
    22    24    25    1
    23    24    23    1
    24     2     1    2
    25    18    17    1
    26    23     1    1
    27    15    14    1
    28    15    16    2
    29     1     3    1
    30     1     4    1
    31    14    13    1
    32    17    16    1
    33    17    19    2
    34    16    22    1
    35     4     5    1
    36     5     6    1
    37    19    20    1
    38    13    22    1
    39    13    12    1
    40    22    21    2
    41     7     6    1
    42     7    12    1
    43     6     8    1
    44    12    10    1
    45    20    21    1
    46     8    10    1
    47     8     9    1
    48    10    11    1
    49    11    45    1
    50    46    45    2
    51    45    47    1
    52    45    48    1
