@<TRIPOS>MOLECULE
2bla_CP6_A_1.pdb
 17 18 0 0 0
SMALL
GASTEIGER

@<TRIPOS>ATOM
      1  N1        28.2550    2.1360    9.7010 N.2   1240  CP61240    -0.3112
      2  C2        29.2990    3.0270    9.3370 C.1   1240  CP61240     0.2419
      3  C3        28.0280    1.8600   11.0540 C.2   1240  CP61240     0.2201
      4  C4        28.8830    2.4860   12.1380 C.3   1240  CP61240     0.1421
      5  C5        29.9630    3.4310   11.6060 C.2   1240  CP61240     0.1122
      6  N6        30.1420    3.6650   10.2720 N.2   1240  CP61240    -0.3339
      7  C7        28.6830    2.2360   13.5650 C.ar  1240  CP61240    -0.0080
      8  C8        27.8600    3.1860   14.3720 C.ar  1240  CP61240    -0.0026
      9  C9        27.6170    3.0010   15.7810 C.ar  1240  CP61240     0.0111
     10  C10       28.1710    1.8830   16.4360 C.ar  1240  CP61240     0.0577
     11  C11       28.9840    0.9280   15.6770 C.ar  1240  CP61240     0.0111
     12  C12       29.2220    1.1230   14.2670 C.ar  1240  CP61240    -0.0026
     13  N13       27.0400    1.0210   11.4330 N.pl3 1240  CP61240    -0.0962
     14  N14       29.5400    3.3060    7.9880 N.pl3 1240  CP61240    -0.0232
     15  C15       30.8810    4.1440   12.5680 C.3   1240  CP61240     0.0563
     16  C16       30.8590    5.6550   12.5910 C.3   1240  CP61240     0.0075
     17 CL1        27.9760    1.5590   18.0280 Cl    1240  CP61240    -0.0822
@<TRIPOS>BOND
     1    14     2    1
     2     2     1    2
     3     2     6    2
     4     1     3    2
     5     6     5    2
     6     3    13    1
     7     3     4    1
     8     5     4    1
     9     5    15    1
    10     4     7    1
    11    15    16    1
    12     7    12   ar
    13     7     8   ar
    14    12    11   ar
    15     8     9   ar
    16    11    10   ar
    17     9    10   ar
    18    10    17    1
