@<TRIPOS>MOLECULE
2bla_NDP_A_1.pdb
 48 52 0 0 0
SMALL
GASTEIGER

@<TRIPOS>ATOM
      1  PA        26.9160   -6.8840   19.0730 P.3   1239  NDP1239     0.2189
      2  O1A       25.9070   -7.6150   18.3320 O.2   1239  NDP1239    -0.5170
      3  O2A       26.8360   -5.3970   19.2830 O.3   1239  NDP1239    -0.4371
      4  O5B       27.0120   -7.5860   20.5810 O.3   1239  NDP1239    -0.3112
      5  C5B       26.7100   -8.9850   20.7510 C.3   1239  NDP1239     0.1813
      6  C4B       25.6300   -8.9970   21.8220 C.3   1239  NDP1239     0.1820
      7  O4B       24.5200   -8.2380   21.2540 O.3   1239  NDP1239    -0.3136
      8  C3B       25.0420  -10.3060   22.2070 C.3   1239  NDP1239     0.2157
      9  O3B       25.8110  -11.2250   23.0190 O.3   1239  NDP1239    -0.2175
     10  C2B       23.6280  -10.0520   22.5700 C.3   1239  NDP1239     0.2314
     11  O2B       23.3330   -9.5240   23.8640 O.3   1239  NDP1239    -0.2630
     12  C1B       23.3550   -9.0420   21.4750 C.3   1239  NDP1239     0.3158
     13  N9A       22.7440   -9.5830   20.2520 N.pl3 1239  NDP1239    -0.1439
     14  C8A       23.3270   -9.7690   18.9740 C.3   1239  NDP1239     0.3377
     15  N7A       22.4600  -10.2840   18.1420 N.2   1239  NDP1239    -0.2095
     16  C5A       21.2900  -10.4390   18.8320 C.2   1239  NDP1239     0.2526
     17  C6A       20.0220  -10.9460   18.5020 C.2   1239  NDP1239     0.4393
     18  N6A       19.7830  -11.3730   17.2580 N.pl3 1239  NDP1239     0.2180
     19  N1A       19.0440  -10.9710   19.4530 N.2   1239  NDP1239     0.0021
     20  C2A       19.3000  -10.5270   20.7220 C.3   1239  NDP1239     0.5254
     21  N3A       20.4740  -10.0340   21.1370 N.2   1239  NDP1239    -0.0055
     22  C4A       21.4450  -10.0320   20.1280 C.2   1239  NDP1239     0.3518
     23  O3        28.3730   -7.0870   18.5170 O.3   1239  NDP1239    -0.2703
     24  PN        29.4550   -8.2490   18.2960 P.3   1239  NDP1239     0.2189
     25  O1N       29.8390   -8.6860   19.6500 O.3   1239  NDP1239    -0.4371
     26  O2N       28.8790   -9.2100   17.2810 O.2   1239  NDP1239    -0.5170
     27  O5D       30.5910   -7.4050   17.5100 O.3   1239  NDP1239    -0.3112
     28  C5D       31.0320   -6.0650   17.9470 C.3   1239  NDP1239     0.1813
     29  C4D       32.2330   -5.6510   17.0280 C.3   1239  NDP1239     0.1799
     30  O4D       31.6770   -5.2550   15.7600 O.3   1239  NDP1239    -0.3327
     31  C3D       32.8900   -4.3640   17.5430 C.3   1239  NDP1239     0.2158
     32  O3D       34.3250   -4.4610   17.4120 O.3   1239  NDP1239    -0.2175
     33  C2D       32.2160   -3.1800   16.8170 C.3   1239  NDP1239     0.2309
     34  O2D       33.1120   -2.0670   16.7540 O.3   1239  NDP1239    -0.2158
     35  C1D       32.0690   -3.9060   15.3940 C.3   1239  NDP1239     0.2263
     36  N1N       30.9930   -3.2960   14.5290 N.pl3 1239  NDP1239    -0.2787
     37  C2N       31.4540   -2.6350   13.3530 C.3   1239  NDP1239     0.1244
     38  C3N       30.4390   -2.0320   12.4670 C.2   1239  NDP1239     0.0544
     39  C7N       30.8520   -1.3230   11.2110 C.2   1239  NDP1239     0.2818
     40  O7N       30.0330   -0.7890   10.4180 O.2   1239  NDP1239    -0.2670
     41  N7N       32.1710   -1.2300   10.8680 N.am  1239  NDP1239    -0.0839
     42  C4N       29.0890   -2.1460   12.8350 C.2   1239  NDP1239     0.0033
     43  C5N       28.6760   -2.7880   13.9770 C.2   1239  NDP1239     0.0157
     44  C6N       29.6220   -3.3670   14.8270 C.2   1239  NDP1239     0.0633
     45  P2B       23.0110  -10.2960   25.1520 P.3   1239  NDP1239     0.5328
     46  O1X       21.7560  -11.0200   24.8420 O.2   1239  NDP1239    -0.2224
     47  O2X       24.1560  -11.1700   25.5030 O.3   1239  NDP1239    -0.1145
     48  O3X       22.7880   -9.2430   26.2300 O.3   1239  NDP1239    -0.1145
@<TRIPOS>BOND
     1    40    39    2
     2    41    39   am
     3    39    38    1
     4    38    42    2
     5    38    37    1
     6    42    43    1
     7    37    36    1
     8    43    44    2
     9    36    44    1
    10    36    35    1
    11    35    30    1
    12    35    33    1
    13    30    29    1
    14    34    33    1
    15    33    31    1
    16    29    31    1
    17    29    28    1
    18    18    17    1
    19    26    24    2
    20    32    31    1
    21    27    28    1
    22    27    24    1
    23    15    16    2
    24    15    14    1
    25    24    23    1
    26    24    25    1
    27     2     1    2
    28    17    16    1
    29    17    19    2
    30    23     1    1
    31    16    22    1
    32    14    13    1
    33     1     3    1
    34     1     4    1
    35    19    20    1
    36    22    13    1
    37    22    21    2
    38    13    12    1
    39     4     5    1
    40    20    21    1
    41     5     6    1
    42     7    12    1
    43     7     6    1
    44    12    10    1
    45     6     8    1
    46     8    10    1
    47     8     9    1
    48    10    11    1
    49    11    45    1
    50    46    45    2
    51    45    47    1
    52    45    48    1
