@<TRIPOS>MOLECULE
2blb_NDP_A_1.pdb
 48 52 0 0 0
SMALL
GASTEIGER

@<TRIPOS>ATOM
      1  PA        25.9580   -6.7710   18.1170 P.3   1239  NDP1239     0.2189
      2  O1A       24.9950   -7.2830   17.1730 O.2   1239  NDP1239    -0.5170
      3  O2A       26.2830   -5.3160   18.2530 O.3   1239  NDP1239    -0.4371
      4  O5B       25.4860   -7.2840   19.6000 O.3   1239  NDP1239    -0.3112
      5  C5B       25.2210   -8.6520   19.7860 C.3   1239  NDP1239     0.1813
      6  C4B       24.2600   -8.5990   20.9210 C.3   1239  NDP1239     0.1820
      7  O4B       23.0820   -8.0000   20.3710 O.3   1239  NDP1239    -0.3136
      8  C3B       23.8080   -9.8630   21.4990 C.3   1239  NDP1239     0.2157
      9  O3B       24.6920  -10.6250   22.3400 O.3   1239  NDP1239    -0.2175
     10  C2B       22.4310   -9.6840   21.9450 C.3   1239  NDP1239     0.2314
     11  O2B       22.1980   -9.0910   23.1970 O.3   1239  NDP1239    -0.2630
     12  C1B       22.0120   -8.8090   20.8340 C.3   1239  NDP1239     0.3158
     13  N9A       21.0880   -9.3480   19.8420 N.pl3 1239  NDP1239    -0.1439
     14  C8A       21.3270   -9.6740   18.5030 C.3   1239  NDP1239     0.3377
     15  N7A       20.2220  -10.1280   17.9370 N.2   1239  NDP1239    -0.2095
     16  C5A       19.2470  -10.1070   18.8870 C.2   1239  NDP1239     0.2526
     17  C6A       17.8620  -10.4560   18.9250 C.2   1239  NDP1239     0.4393
     18  N6A       17.2290  -10.9350   17.8410 N.pl3 1239  NDP1239     0.2180
     19  N1A       17.1700  -10.2920   20.0870 N.2   1239  NDP1239     0.0021
     20  C2A       17.8020   -9.8020   21.2040 C.3   1239  NDP1239     0.5254
     21  N3A       19.1030   -9.4500   21.2660 N.2   1239  NDP1239    -0.0055
     22  C4A       19.7680   -9.6290   20.0620 C.2   1239  NDP1239     0.3518
     23  O3        27.3440   -7.4640   18.0390 O.3   1239  NDP1239    -0.2703
     24  PN        28.3930   -7.9660   16.9830 P.3   1239  NDP1239     0.2189
     25  O1N       29.3920   -8.6860   17.7560 O.3   1239  NDP1239    -0.4371
     26  O2N       27.6130   -8.6340   15.8870 O.2   1239  NDP1239    -0.5170
     27  O5D       28.9080   -6.5280   16.5040 O.3   1239  NDP1239    -0.3112
     28  C5D       29.7590   -5.7350   17.4270 C.3   1239  NDP1239     0.1813
     29  C4D       31.1340   -5.4060   16.7460 C.3   1239  NDP1239     0.1799
     30  O4D       30.8160   -4.9130   15.4710 O.3   1239  NDP1239    -0.3327
     31  C3D       31.8380   -4.2140   17.4530 C.3   1239  NDP1239     0.2158
     32  O3D       33.2660   -4.3590   17.3950 O.3   1239  NDP1239    -0.2175
     33  C2D       31.3490   -2.9520   16.7820 C.3   1239  NDP1239     0.2309
     34  O2D       32.3550   -1.9370   16.8510 O.3   1239  NDP1239    -0.2158
     35  C1D       31.2300   -3.5390   15.3080 C.3   1239  NDP1239     0.2263
     36  N1N       30.2360   -2.8060   14.4560 N.pl3 1239  NDP1239    -0.2787
     37  C2N       30.7460   -2.3220   13.2150 C.3   1239  NDP1239     0.1244
     38  C3N       29.7970   -1.6090   12.3540 C.2   1239  NDP1239     0.0544
     39  C7N       30.2220   -1.0640   11.0880 C.2   1239  NDP1239     0.2818
     40  O7N       29.4540   -0.4370   10.3350 O.2   1239  NDP1239    -0.2670
     41  N7N       31.4930   -1.2110   10.6770 N.am  1239  NDP1239    -0.0839
     42  C4N       28.4730   -1.4530   12.7870 C.2   1239  NDP1239     0.0033
     43  C5N       28.0080   -1.9250   13.9830 C.2   1239  NDP1239     0.0157
     44  C6N       28.8800   -2.6040   14.8320 C.2   1239  NDP1239     0.0633
     45  P2B       22.2290   -9.8120   24.5440 P.3   1239  NDP1239     0.5328
     46  O1X       21.1700  -10.8550   24.4320 O.2   1239  NDP1239    -0.2224
     47  O2X       23.6100  -10.2910   24.7480 O.3   1239  NDP1239    -0.1145
     48  O3X       21.8800   -8.8050   25.6290 O.3   1239  NDP1239    -0.1145
@<TRIPOS>BOND
     1    40    39    2
     2    41    39   am
     3    39    38    1
     4    38    42    2
     5    38    37    1
     6    42    43    1
     7    37    36    1
     8    43    44    2
     9    36    44    1
    10    36    35    1
    11    35    30    1
    12    35    33    1
    13    30    29    1
    14    26    24    2
    15    27    24    1
    16    27    28    1
    17    29    28    1
    18    29    31    1
    19    33    34    1
    20    33    31    1
    21    24    25    1
    22    24    23    1
    23     2     1    2
    24    32    31    1
    25    18    17    1
    26    15    14    1
    27    15    16    2
    28    23     1    1
    29     1     3    1
    30     1     4    1
    31    14    13    1
    32    16    17    1
    33    16    22    1
    34    17    19    2
    35     4     5    1
    36     5     6    1
    37    13    22    1
    38    13    12    1
    39    22    21    2
    40    19    20    1
    41     7    12    1
    42     7     6    1
    43    12    10    1
    44     6     8    1
    45    20    21    1
    46     8    10    1
    47     8     9    1
    48    10    11    1
    49    11    45    1
    50    46    45    2
    51    45    47    1
    52    45    48    1
