@<TRIPOS>MOLECULE
2blb_CP7_A_1.pdb
 16 17 0 0 0
SMALL
GASTEIGER

@<TRIPOS>ATOM
      1  N1        27.4260    2.4380    9.4360 N.2   1240  CP71240    -0.3112
      2  C2        28.3810    3.3090    9.0110 C.1   1240  CP71240     0.2419
      3  C3        27.4140    2.1780   10.8280 C.2   1240  CP71240     0.2201
      4  C4        28.3570    2.7940   11.7670 C.3   1240  CP71240     0.1421
      5  C5        29.2890    3.6850   11.1380 C.2   1240  CP71240     0.1122
      6  N6        29.2860    3.9340    9.7530 N.2   1240  CP71240    -0.3339
      7  C7        28.2750    2.4500   13.2410 C.ar  1240  CP71240    -0.0080
      8  C8        27.1610    2.8860   14.0600 C.ar  1240  CP71240    -0.0034
      9  C9        27.1150    2.5270   15.4580 C.ar  1240  CP71240    -0.0003
     10  C10       28.1560    1.7500   16.0230 C.ar  1240  CP71240    -0.0000
     11  C11       29.2690    1.3050   15.2470 C.ar  1240  CP71240    -0.0003
     12  C12       29.3010    1.6700   13.8580 C.ar  1240  CP71240    -0.0034
     13  N13       26.4770    1.3260   11.2560 N.pl3 1240  CP71240    -0.0962
     14  N14       28.3970    3.5630    7.6280 N.pl3 1240  CP71240    -0.0232
     15  C15       30.3840    4.4740   11.8450 C.3   1240  CP71240     0.0563
     16  C16       30.2440    5.9440   11.6200 C.3   1240  CP71240     0.0075
@<TRIPOS>BOND
     1    14     2    1
     2     2     1    2
     3     2     6    2
     4     1     3    2
     5     6     5    2
     6     3    13    1
     7     3     4    1
     8     5     4    1
     9     5    15    1
    10    16    15    1
    11     4     7    1
    12     7    12   ar
    13     7     8   ar
    14    12    11   ar
    15     8     9   ar
    16    11    10   ar
    17     9    10   ar
