@<TRIPOS>MOLECULE
2blc_CP7_A_1.pdb
 16 17 0 0 0
SMALL
GASTEIGER

@<TRIPOS>ATOM
      1  N1        28.5410    2.5140    9.0080 N.2   1240  CP71240    -0.3112
      2  C2        29.5460    3.3450    8.6160 C.1   1240  CP71240     0.2419
      3  C3        28.4710    2.2810   10.3940 C.2   1240  CP71240     0.2201
      4  C4        29.4010    2.8640   11.3750 C.3   1240  CP71240     0.1421
      5  C5        30.4070    3.7120   10.7940 C.2   1240  CP71240     0.1122
      6  N6        30.4730    3.9460    9.4000 N.2   1240  CP71240    -0.3339
      7  C7        29.2050    2.5380   12.8540 C.ar  1240  CP71240    -0.0080
      8  C8        28.3080    3.3120   13.6650 C.ar  1240  CP71240    -0.0034
      9  C9        28.1230    2.9810   15.0400 C.ar  1240  CP71240    -0.0003
     10  C10       28.8130    1.9040   15.5950 C.ar  1240  CP71240    -0.0000
     11  C11       29.7090    1.1190   14.8300 C.ar  1240  CP71240    -0.0003
     12  C12       29.8810    1.4660   13.4590 C.ar  1240  CP71240    -0.0034
     13  N13       27.4910    1.4830   10.7920 N.pl3 1240  CP71240    -0.0962
     14  N14       29.6050    3.5900    7.2350 N.pl3 1240  CP71240    -0.0232
     15  C15       31.5120    4.4540   11.5770 C.3   1240  CP71240     0.0563
     16  C16       31.2660    5.9350   11.7730 C.3   1240  CP71240     0.0075
@<TRIPOS>BOND
     1    14     2    1
     2     2     1    2
     3     2     6    2
     4     1     3    2
     5     6     5    2
     6     3    13    1
     7     3     4    1
     8     5     4    1
     9     5    15    1
    10     4     7    1
    11    15    16    1
    12     7    12   ar
    13     7     8   ar
    14    12    11   ar
    15     8     9   ar
    16    11    10   ar
    17     9    10   ar
