@<TRIPOS>MOLECULE
2blc_NDP_A_1.pdb
 48 52 0 0 0
SMALL
GASTEIGER

@<TRIPOS>ATOM
      1  PA        26.6120   -7.1430   17.7510 P.3   1239  NDP1239     0.2189
      2  O1A       25.7340   -7.7300   16.8070 O.2   1239  NDP1239    -0.5170
      3  O2A       26.8520   -5.6970   17.8340 O.3   1239  NDP1239    -0.4371
      4  O5B       26.0320   -7.5460   19.2070 O.3   1239  NDP1239    -0.3112
      5  C5B       25.9250   -8.9320   19.5380 C.3   1239  NDP1239     0.1813
      6  C4B       24.9600   -8.8940   20.6590 C.3   1239  NDP1239     0.1820
      7  O4B       23.7900   -8.1590   20.1740 O.3   1239  NDP1239    -0.3136
      8  C3B       24.4430  -10.1700   21.2090 C.3   1239  NDP1239     0.2157
      9  O3B       25.3480  -11.0370   21.9650 O.3   1239  NDP1239    -0.2175
     10  C2B       23.1410   -9.8660   21.7910 C.3   1239  NDP1239     0.2314
     11  O2B       23.1310   -9.3190   23.0710 O.3   1239  NDP1239    -0.2630
     12  C1B       22.6650   -8.9060   20.7210 C.3   1239  NDP1239     0.3158
     13  N9A       21.7960   -9.4970   19.7380 N.pl3 1239  NDP1239    -0.1439
     14  C8A       22.1280   -9.9100   18.4320 C.3   1239  NDP1239     0.3377
     15  N7A       21.0840  -10.4020   17.8410 N.2   1239  NDP1239    -0.2095
     16  C5A       20.0460  -10.3230   18.7270 C.2   1239  NDP1239     0.2526
     17  C6A       18.6870  -10.6850   18.6800 C.2   1239  NDP1239     0.4393
     18  N6A       18.1720  -11.2470   17.5830 N.pl3 1239  NDP1239     0.2180
     19  N1A       17.8980  -10.4540   19.7560 N.2   1239  NDP1239     0.0021
     20  C2A       18.4300   -9.8890   20.8710 C.3   1239  NDP1239     0.5254
     21  N3A       19.7140   -9.5210   21.0160 N.2   1239  NDP1239    -0.0055
     22  C4A       20.4690   -9.7690   19.8920 C.2   1239  NDP1239     0.3518
     23  O3        28.0070   -7.8170   17.8340 O.3   1239  NDP1239    -0.2703
     24  PN        29.1680   -8.4830   16.9270 P.3   1239  NDP1239     0.2189
     25  O1N       30.1520   -9.0240   17.8770 O.3   1239  NDP1239    -0.4371
     26  O2N       28.5170   -9.3340   15.8930 O.2   1239  NDP1239    -0.5170
     27  O5D       29.7020   -7.1710   16.1860 O.3   1239  NDP1239    -0.3112
     28  C5D       30.5160   -6.1990   16.9820 C.3   1239  NDP1239     0.1813
     29  C4D       31.8340   -5.8150   16.2040 C.3   1239  NDP1239     0.1799
     30  O4D       31.3910   -5.1400   15.0120 O.3   1239  NDP1239    -0.3327
     31  C3D       32.6110   -4.6960   16.9870 C.3   1239  NDP1239     0.2158
     32  O3D       34.0300   -4.8810   16.8730 O.3   1239  NDP1239    -0.2175
     33  C2D       32.0910   -3.3400   16.4670 C.3   1239  NDP1239     0.2309
     34  O2D       33.0760   -2.3580   16.5830 O.3   1239  NDP1239    -0.2158
     35  C1D       31.9440   -3.7780   14.9420 C.3   1239  NDP1239     0.2263
     36  N1N       30.9760   -2.9830   14.1510 N.pl3 1239  NDP1239    -0.2787
     37  C2N       31.4780   -2.5080   12.9080 C.3   1239  NDP1239     0.1244
     38  C3N       30.5470   -1.7640   12.0610 C.2   1239  NDP1239     0.0544
     39  C7N       31.0000   -1.2330   10.7560 C.2   1239  NDP1239     0.2818
     40  O7N       30.2430   -0.5920    9.9750 O.2   1239  NDP1239    -0.2670
     41  N7N       32.3000   -1.4300   10.3530 N.am  1239  NDP1239    -0.0839
     42  C4N       29.2330   -1.5760   12.5220 C.2   1239  NDP1239     0.0033
     43  C5N       28.7760   -2.0410   13.7430 C.2   1239  NDP1239     0.0157
     44  C6N       29.6430   -2.7480   14.5670 C.2   1239  NDP1239     0.0633
     45  P2B       23.0160  -10.1040   24.3830 P.3   1239  NDP1239     0.5328
     46  O1X       21.7480  -10.8200   24.2480 O.2   1239  NDP1239    -0.2224
     47  O2X       24.1850  -10.9790   24.5280 O.3   1239  NDP1239    -0.1145
     48  O3X       22.9650   -9.0800   25.5120 O.3   1239  NDP1239    -0.1145
@<TRIPOS>BOND
     1    40    39    2
     2    41    39   am
     3    39    38    1
     4    38    42    2
     5    38    37    1
     6    42    43    1
     7    37    36    1
     8    43    44    2
     9    36    44    1
    10    36    35    1
    11    35    30    1
    12    35    33    1
    13    30    29    1
    14    26    24    2
    15    27    24    1
    16    27    28    1
    17    29    28    1
    18    29    31    1
    19    33    34    1
    20    33    31    1
    21     2     1    2
    22    32    31    1
    23    24    23    1
    24    24    25    1
    25    18    17    1
    26     1    23    1
    27     1     3    1
    28     1     4    1
    29    15    14    1
    30    15    16    2
    31    14    13    1
    32    17    16    1
    33    17    19    2
    34    16    22    1
    35     4     5    1
    36     5     6    1
    37    13    22    1
    38    13    12    1
    39    19    20    1
    40    22    21    2
    41     7     6    1
    42     7    12    1
    43     6     8    1
    44    12    10    1
    45    20    21    1
    46     8    10    1
    47     8     9    1
    48    10    11    1
    49    11    45    1
    50    46    45    2
    51    45    47    1
    52    45    48    1
