@<TRIPOS>MOLECULE
2ble_5GP_A_1.pdb
 24 26 0 0 0
SMALL
GASTEIGER

@<TRIPOS>ATOM
      1  P         57.9370   22.4050   13.2010 P.3   1344  5GP1344     0.5327
      2  O1P       56.6000   23.0020   13.4820 O.3   1344  5GP1344    -0.1145
      3  O2P       58.2920   22.4690   11.7330 O.2   1344  5GP1344    -0.2224
      4  O3P       58.1070   21.0030   13.7540 O.3   1344  5GP1344    -0.1145
      5  O5'       59.0370   23.2500   14.0000 O.3   1344  5GP1344    -0.2675
      6  C5'       59.1850   24.6640   13.8390 C.3   1344  5GP1344     0.1859
      7  C4'       60.5100   25.1120   14.4290 C.3   1344  5GP1344     0.1801
      8  O4'       61.6290   24.4290   13.8310 O.3   1344  5GP1344    -0.3326
      9  C3'       60.8720   26.5990   14.2790 C.3   1344  5GP1344     0.2158
     10  O3'       60.0870   27.4890   15.1210 O.3   1344  5GP1344    -0.2175
     11  C2'       62.3050   26.5390   14.7540 C.3   1344  5GP1344     0.2310
     12  O2'       62.2870   26.5930   16.2210 O.3   1344  5GP1344    -0.2158
     13  C1'       62.8000   25.1780   14.2390 C.3   1344  5GP1344     0.2293
     14  N9        63.7590   25.2920   13.0890 N.pl3 1344  5GP1344    -0.2354
     15  C8        63.5300   25.7220   11.8370 C.3   1344  5GP1344     0.2246
     16  N7        64.6640   25.6640   11.0940 N.2   1344  5GP1344    -0.2322
     17  C5        65.6250   25.1650   11.9210 C.2   1344  5GP1344     0.2182
     18  C6        66.9870   24.9030   11.7810 C.1   1344  5GP1344     0.2372
     19  O6        67.5420   25.0980   10.6680 O.2   1344  5GP1344    -0.2069
     20  N1        67.6750   24.4020   12.8490 N.2   1344  5GP1344    -0.2485
     21  C2        67.0750   24.1900   14.0280 C.1   1344  5GP1344     0.2531
     22  N2        67.7880   23.7320   15.0760 N.pl3 1344  5GP1344    -0.0226
     23  N3        65.7530   24.4830   14.2100 N.2   1344  5GP1344    -0.3074
     24  C4        65.0340   24.9440   13.1690 C.2   1344  5GP1344     0.2300
@<TRIPOS>BOND
     1    19    18    2
     2    16    15    1
     3    16    17    2
     4     3     1    2
     5    18    17    1
     6    18    20    2
     7    15    14    1
     8    17    24    1
     9    20    21    2
    10    14    24    1
    11    14    13    1
    12    24    23    2
    13     1     2    1
    14     1     4    1
    15     1     5    1
    16     8    13    1
    17     8     7    1
    18     6     5    1
    19     6     7    1
    20    21    23    2
    21    21    22    1
    22    13    11    1
    23     9     7    1
    24     9    11    1
    25     9    10    1
    26    11    12    1
