@<TRIPOS>MOLECULE
2blf_HEC_B_1.pdb
 43 50 0 0 0
SMALL
GASTEIGER

@<TRIPOS>ATOM
      1 FE         84.3890   17.8160   30.6690 Fe    1582  HEC1582     0.0000
      2  CHA       82.1980   15.1630   30.6490 C.2   1582  HEC1582     0.0000
      3  CHB       85.3820   16.9280   33.8290 C.2   1582  HEC1582     0.0000
      4  CHC       86.4010   20.5920   30.7940 C.2   1582  HEC1582     0.0000
      5  CHD       83.7320   18.4770   27.4100 C.2   1582  HEC1582     0.0000
      6  NA        83.8730   16.3320   31.9850 N.2   1582  HEC1582     0.0000
      7  C1A       82.9400   15.3360   31.7830 C.2   1582  HEC1582     0.0000
      8  C2A       82.8920   14.5150   32.9710 C.2   1582  HEC1582     0.0000
      9  C3A       83.7690   15.0140   33.8450 C.2   1582  HEC1582     0.0000
     10  C4A       84.4160   16.1530   33.2450 C.2   1582  HEC1582     0.0000
     11  CMA       84.0900   14.4720   35.2380 C.3   1582  HEC1582     0.0000
     12  CAA       81.9920   13.2750   33.1860 C.3   1582  HEC1582     0.0000
     13  CBA       82.8430   12.0120   33.0590 C.3   1582  HEC1582     0.0000
     14  CGA       83.2520   11.7780   31.6300 C.2   1582  HEC1582     0.0000
     15  O1A       84.4810   11.6680   31.3700 O.co2 1582  HEC1582     0.0000
     16  O2A       82.3670   11.6980   30.7430 O.co2 1582  HEC1582     0.0000
     17  NB        85.5870   18.6400   32.0770 N.ar  1582  HEC1582     0.0000
     18  C1B       85.9630   18.0350   33.2510 C.ar  1582  HEC1582     0.0000
     19  C2B       87.0690   18.7870   33.7920 C.ar  1582  HEC1582     0.0000
     20  C3B       87.3730   19.7810   32.9480 C.ar  1582  HEC1582     0.0000
     21  C4B       86.4370   19.7220   31.8550 C.ar  1582  HEC1582     0.0000
     22  CMB       87.8180   18.4160   35.0750 C.3   1582  HEC1582     0.0000
     23  CAB       88.5060   20.8360   33.0680 C.3   1582  HEC1582     0.0000
     24  CBB       89.8780   20.1650   32.8440 C.3   1582  HEC1582     0.0000
     25  NC        85.0010   19.2550   29.3370 N.2   1582  HEC1582     0.0000
     26  C1C       85.7100   20.3970   29.6370 C.2   1582  HEC1582     0.0000
     27  C2C       85.6550   21.2900   28.4990 C.2   1582  HEC1582     0.0000
     28  C3C       84.8960   20.7050   27.5770 C.2   1582  HEC1582     0.0000
     29  C4C       84.4860   19.4070   28.0770 C.2   1582  HEC1582     0.0000
     30  CMC       86.2370   22.7200   28.4520 C.3   1582  HEC1582     0.0000
     31  CAC       84.5000   21.2790   26.1910 C.3   1582  HEC1582     0.0000
     32  CBC       85.7630   21.4050   25.2930 C.3   1582  HEC1582     0.0000
     33  ND        83.1660   16.9420   29.2590 N.ar  1582  HEC1582     0.0000
     34  C1D       83.0670   17.4050   27.9580 C.ar  1582  HEC1582     0.0000
     35  C2D       82.1330   16.5650   27.2460 C.ar  1582  HEC1582     0.0000
     36  C3D       81.6650   15.5510   28.2540 C.ar  1582  HEC1582     0.0000
     37  C4D       82.3540   15.8520   29.4790 C.ar  1582  HEC1582     0.0000
     38  CMD       81.7010   16.6730   25.7840 C.3   1582  HEC1582     0.0000
     39  CAD       80.6650   14.4160   28.0330 C.3   1582  HEC1582     0.0000
     40  CBD       79.3180   14.9490   28.4600 C.3   1582  HEC1582     0.0000
     41  CGD       78.2760   13.8540   28.5020 C.2   1582  HEC1582     0.0000
     42  O1D       78.5540   12.6970   28.0880 O.co2 1582  HEC1582     0.0000
     43  O2D       77.1520   14.1610   28.9490 O.co2 1582  HEC1582     0.0000
@<TRIPOS>BOND
     1    32    31    1
     2    38    35    1
     3    31    28    1
     4    35    34   ar
     5    35    36   ar
     6     5    34    2
     7     5    29    1
     8    28    29    1
     9    28    27    2
    10    34    33   ar
    11    39    36    1
    12    39    40    1
    13    29    25    2
    14    42    41   ar
    15    36    37   ar
    16    30    27    1
    17    40    41    1
    18    27    26    1
    19    41    43   ar
    20    33    37   ar
    21    33     1    1
    22    25    26    1
    23    25     1    1
    24    37     2    2
    25    26     4    2
    26     2     7    1
    27     1     6    1
    28     1    17    1
    29    16    14   ar
    30     4    21    1
    31    15    14   ar
    32    14    13    1
    33     7     6    2
    34     7     8    1
    35    21    17   ar
    36    21    20   ar
    37     6    10    1
    38    17    18   ar
    39    24    23    1
    40    20    23    1
    41    20    19   ar
    42     8    12    1
    43     8     9    2
    44    13    12    1
    45    10     3    2
    46    10     9    1
    47    18    19   ar
    48    18     3    1
    49    19    22    1
    50     9    11    1
