@<TRIPOS>MOLECULE
2blf_MSS_A_1.pdb
 26 29 0 0 0
SMALL
GASTEIGER

@<TRIPOS>ATOM
      1  N1        69.6240   13.1750   21.0960 N.2   1374  MSS1374     0.0000
      2  C2        70.3570   14.3000   20.9630 C.1   1374  MSS1374     0.0000
      3  N2        70.0830   15.1500   19.9590 N.pl3 1374  MSS1374     0.0000
      4  N3        71.3910   14.6080   21.7870 N.2   1374  MSS1374     0.0000
      5  C4        71.7400   13.8080   22.8300 C.1   1374  MSS1374     0.0000
      6  O4        72.6940   14.1080   23.5800 O.2   1374  MSS1374     0.0000
      7  N5        71.2730   11.6680   24.0200 N.2   1374  MSS1374     0.0000
      8  C6        70.7970   10.3020   23.8690 C.3   1374  MSS1374     0.0000
      9  C7        69.3940   10.2380   23.2640 C.3   1374  MSS1374     0.0000
     10  N8        69.1670   11.2120   22.2340 N.2   1374  MSS1374     0.0000
     11  C9        70.9730   12.5810   23.0610 C.2   1374  MSS1374     0.0000
     12  C10       69.8850   12.3180   22.1120 C.1   1374  MSS1374     0.0000
     13  C1'       70.9140    9.4010   25.0710 C.2   1374  MSS1374     0.0000
     14  S1'       72.4830    8.8920   25.5110 S.3   1374  MSS1374     0.0000
     15  C2'       69.8050    8.9340   25.6760 C.2   1374  MSS1374     0.0000
     16  S2'       69.9220    7.7520   26.9000 S.3   1374  MSS1374     0.0000
     17  C3'       68.4210    9.3940   25.2530 C.3   1374  MSS1374     0.0000
     18  O3'       68.4100   10.4390   24.2590 O.3   1374  MSS1374     0.0000
     19  C4'       67.6210    9.8920   26.4350 C.3   1374  MSS1374     0.0000
     20  O4'       66.3380   10.3490   25.9690 O.3   1374  MSS1374     0.0000
     21  P         65.4420   11.2760   26.9400 P.3   1374  MSS1374     0.0000
     22  O1P       64.2050   11.5870   26.1790 O.2   1374  MSS1374     0.0000
     23  O2P       66.3260   12.4260   27.3340 O.3   1374  MSS1374     0.0000
     24  O3P       65.1040   10.3220   28.0960 O.3   1374  MSS1374     0.0000
     25 MOM1       72.2820    7.0900   27.0840 Mo    1374  MSS1374     0.0000
     26  OM1       72.5910    5.6190   26.2010 O.3   1374  MSS1374     0.0000
@<TRIPOS>BOND
     1     3     2    1
     2     2     1    2
     3     2     4    2
     4     1    12    2
     5     4     5    2
     6    12    10    2
     7    12    11    1
     8    10     9    1
     9     5    11    1
    10     5     6    2
    11    11     7    2
    12     9     8    1
    13     9    18    1
    14     8     7    1
    15     8    13    1
    16    18    17    1
    17    13    14    1
    18    13    15    2
    19    17    15    1
    20    17    19    1
    21    14    25    1
    22    15    16    1
    23    20    19    1
    24    20    21    1
    25    22    21    2
    26    26    25    1
    27    16    25    1
    28    21    23    1
    29    21    24    1
