@<TRIPOS>MOLECULE
2blh_HEM_A_1.pdb
 43 50 0 0 0
SMALL
GASTEIGER

@<TRIPOS>ATOM
      1 FE         35.7030    4.1500   10.1990 Fe    1154  HEM1154     0.0000
      2  CHA       38.3540    2.2630   11.4140 C.2   1154  HEM1154     0.0000
      3  CHB       37.6760    5.3360    7.6500 C.2   1154  HEM1154     0.0000
      4  CHC       33.1460    6.2370    9.2390 C.2   1154  HEM1154     0.0000
      5  CHD       33.8310    3.1820   12.9870 C.2   1154  HEM1154     0.0000
      6  NA        37.5790    3.8710    9.6690 N.ar  1154  HEM1154     0.0000
      7  C1A       38.5340    3.0290   10.2470 C.ar  1154  HEM1154     0.0000
      8  C2A       39.7610    3.0380    9.4640 C.ar  1154  HEM1154     0.0000
      9  C3A       39.5820    3.9110    8.4380 C.ar  1154  HEM1154     0.0000
     10  C4A       38.2270    4.4200    8.5490 C.ar  1154  HEM1154     0.0000
     11  CMA       40.5910    4.2760    7.3490 C.3   1154  HEM1154     0.0000
     12  CAA       40.9960    2.1560    9.7140 C.3   1154  HEM1154     0.0000
     13  CBA       41.0980    0.9880    8.7300 C.3   1154  HEM1154     0.0000
     14  CGA       39.8590    0.1050    8.7280 C.2   1154  HEM1154     0.0000
     15  O1A       39.5580   -0.5200    9.7700 O.co2 1154  HEM1154     0.0000
     16  O2A       39.1840    0.0380    7.6800 O.co2 1154  HEM1154     0.0000
     17  NB        35.4530    5.4700    8.7420 N.2   1154  HEM1154     0.0000
     18  C1B       36.3690    5.8360    7.7450 C.2   1154  HEM1154     0.0000
     19  C2B       35.7850    6.7960    6.8160 C.2   1154  HEM1154     0.0000
     20  C3B       34.5070    7.0320    7.2550 C.2   1154  HEM1154     0.0000
     21  C4B       34.3110    6.2290    8.4560 C.2   1154  HEM1154     0.0000
     22  CMB       36.4520    7.3850    5.5590 C.3   1154  HEM1154     0.0000
     23  CAB       33.5520    7.8450    6.6390 C.3   1154  HEM1154     0.0000
     24  CBB       33.6090    9.2880    6.6810 C.3   1154  HEM1154     0.0000
     25  NC        33.8880    4.5860   10.9370 N.ar  1154  HEM1154     0.0000
     26  C1C       32.9650    5.4890   10.4110 C.ar  1154  HEM1154     0.0000
     27  C2C       31.8060    5.6290   11.2810 C.ar  1154  HEM1154     0.0000
     28  C3C       31.9960    4.7930   12.3490 C.ar  1154  HEM1154     0.0000
     29  C4C       33.2810    4.1270   12.1160 C.ar  1154  HEM1154     0.0000
     30  CMC       30.5920    6.5390   11.0230 C.3   1154  HEM1154     0.0000
     31  CAC       31.1690    4.5550   13.4620 C.3   1154  HEM1154     0.0000
     32  CBC       30.1660    5.4290   14.0500 C.3   1154  HEM1154     0.0000
     33  ND        36.0010    2.9260   11.8000 N.2   1154  HEM1154     0.0000
     34  C1D       35.1150    2.6300   12.8380 C.2   1154  HEM1154     0.0000
     35  C2D       35.7150    1.7180   13.8120 C.2   1154  HEM1154     0.0000
     36  C3D       36.9900    1.4970   13.4060 C.2   1154  HEM1154     0.0000
     37  C4D       37.1600    2.2250   12.1420 C.2   1154  HEM1154     0.0000
     38  CMD       35.0750    1.1330   15.0750 C.3   1154  HEM1154     0.0000
     39  CAD       38.0510    0.7560   14.2220 C.3   1154  HEM1154     0.0000
     40  CBD       38.7300    1.7060   15.2010 C.3   1154  HEM1154     0.0000
     41  CGD       39.7570    1.0140   16.0790 C.2   1154  HEM1154     0.0000
     42  O1D       39.3590    0.2490   16.9850 O.co2 1154  HEM1154     0.0000
     43  O2D       40.9650    1.2310   15.8580 O.co2 1154  HEM1154     0.0000
@<TRIPOS>BOND
     1    22    19    1
     2    23    24    1
     3    23    20    1
     4    19    20    2
     5    19    18    1
     6    20    21    1
     7    11     9    1
     8     3    18    1
     9     3    10    2
    10    16    14   ar
    11    18    17    2
    12     9    10   ar
    13     9     8   ar
    14    21    17    1
    15    21     4    2
    16    10     6   ar
    17    14    13    1
    18    14    15   ar
    19    13    12    1
    20    17     1    1
    21     4    26    1
    22     8    12    1
    23     8     7   ar
    24     6     1    1
    25     6     7   ar
    26     1    25    1
    27     1    33    1
    28     7     2    2
    29    26    25   ar
    30    26    27   ar
    31    25    29   ar
    32    30    27    1
    33    27    28   ar
    34     2    37    1
    35    33    37    2
    36    33    34    1
    37    29    28   ar
    38    29     5    1
    39    37    36    1
    40    28    31    1
    41    34     5    2
    42    34    35    1
    43    36    35    2
    44    36    39    1
    45    31    32    1
    46    35    38    1
    47    39    40    1
    48    40    41    1
    49    43    41   ar
    50    41    42   ar
