@<TRIPOS>MOLECULE
2bli_HEM_A_1.pdb
 43 50 0 0 0
SMALL
GASTEIGER

@<TRIPOS>ATOM
      1 FE         35.3470    4.2450    9.8880 Fe    1154  HEM1154     0.0000
      2  CHA       38.0830    2.5400   11.2410 C.2   1154  HEM1154     0.0000
      3  CHB       37.3600    5.5120    7.4300 C.2   1154  HEM1154     0.0000
      4  CHC       32.8940    6.5460    9.0500 C.2   1154  HEM1154     0.0000
      5  CHD       33.5740    3.4890   12.7660 C.2   1154  HEM1154     0.0000
      6  NA        37.2820    4.0730    9.4540 N.ar  1154  HEM1154     0.0000
      7  C1A       38.2620    3.2920   10.0800 C.ar  1154  HEM1154     0.0000
      8  C2A       39.4980    3.2820    9.3030 C.ar  1154  HEM1154     0.0000
      9  C3A       39.2910    4.1000    8.2340 C.ar  1154  HEM1154     0.0000
     10  C4A       37.9360    4.6220    8.3430 C.ar  1154  HEM1154     0.0000
     11  CMA       40.2730    4.3620    7.0950 C.3   1154  HEM1154     0.0000
     12  CAA       40.7440    2.4180    9.5660 C.3   1154  HEM1154     0.0000
     13  CBA       40.8300    1.2160    8.6220 C.3   1154  HEM1154     0.0000
     14  CGA       39.6090    0.3170    8.6970 C.2   1154  HEM1154     0.0000
     15  O1A       39.3720   -0.2890    9.7620 O.co2 1154  HEM1154     0.0000
     16  O2A       38.8830    0.2210    7.6860 O.co2 1154  HEM1154     0.0000
     17  NB        35.1570    5.6770    8.5100 N.2   1154  HEM1154     0.0000
     18  C1B       36.0520    6.0020    7.5080 C.2   1154  HEM1154     0.0000
     19  C2B       35.4610    6.9510    6.5520 C.2   1154  HEM1154     0.0000
     20  C3B       34.2230    7.2820    7.0350 C.2   1154  HEM1154     0.0000
     21  C4B       34.0480    6.5000    8.2600 C.2   1154  HEM1154     0.0000
     22  CMB       36.0930    7.4070    5.2260 C.3   1154  HEM1154     0.0000
     23  CAB       33.2560    8.1430    6.4890 C.3   1154  HEM1154     0.0000
     24  CBB       33.4580    9.5640    6.2720 C.3   1154  HEM1154     0.0000
     25  NC        33.6060    4.8470   10.6960 N.ar  1154  HEM1154     0.0000
     26  C1C       32.6960    5.7780   10.2010 C.ar  1154  HEM1154     0.0000
     27  C2C       31.5360    5.9280   11.0990 C.ar  1154  HEM1154     0.0000
     28  C3C       31.7450    5.1070   12.1740 C.ar  1154  HEM1154     0.0000
     29  C4C       33.0140    4.4270   11.9040 C.ar  1154  HEM1154     0.0000
     30  CMC       30.3040    6.8140   10.8420 C.3   1154  HEM1154     0.0000
     31  CAC       30.9720    4.8990   13.3400 C.3   1154  HEM1154     0.0000
     32  CBC       29.8410    5.6680   13.8200 C.3   1154  HEM1154     0.0000
     33  ND        35.7340    3.2030   11.5760 N.2   1154  HEM1154     0.0000
     34  C1D       34.8440    2.9390   12.6220 C.2   1154  HEM1154     0.0000
     35  C2D       35.4330    2.0640   13.6060 C.2   1154  HEM1154     0.0000
     36  C3D       36.7120    1.8250   13.2180 C.2   1154  HEM1154     0.0000
     37  C4D       36.8850    2.5110   11.9450 C.2   1154  HEM1154     0.0000
     38  CMD       34.7310    1.5170   14.8500 C.3   1154  HEM1154     0.0000
     39  CAD       37.7800    1.0930   14.0330 C.3   1154  HEM1154     0.0000
     40  CBD       38.3800    1.9780   15.1180 C.3   1154  HEM1154     0.0000
     41  CGD       39.4450    1.2630   15.9280 C.2   1154  HEM1154     0.0000
     42  O1D       39.1130    0.2610   16.5940 O.co2 1154  HEM1154     0.0000
     43  O2D       40.6120    1.7030   15.8950 O.co2 1154  HEM1154     0.0000
@<TRIPOS>BOND
     1    22    19    1
     2    24    23    1
     3    23    20    1
     4    19    20    2
     5    19    18    1
     6    20    21    1
     7    11     9    1
     8     3    18    1
     9     3    10    2
    10    18    17    2
    11    16    14   ar
    12     9    10   ar
    13     9     8   ar
    14    21    17    1
    15    21     4    2
    16    10     6   ar
    17    17     1    1
    18    13    14    1
    19    13    12    1
    20    14    15   ar
    21     4    26    1
    22     8    12    1
    23     8     7   ar
    24     6     1    1
    25     6     7   ar
    26     1    25    1
    27     1    33    1
    28     7     2    2
    29    26    25   ar
    30    26    27   ar
    31    25    29   ar
    32    30    27    1
    33    27    28   ar
    34     2    37    1
    35    33    37    2
    36    33    34    1
    37    29    28   ar
    38    29     5    1
    39    37    36    1
    40    28    31    1
    41    34     5    2
    42    34    35    1
    43    36    35    2
    44    36    39    1
    45    31    32    1
    46    35    38    1
    47    39    40    1
    48    40    41    1
    49    43    41   ar
    50    41    42   ar
