@<TRIPOS>MOLECULE
2blj_HEM_M_1.pdb
 43 50 0 0 0
SMALL
GASTEIGER

@<TRIPOS>ATOM
      1 FE         35.4470    4.1770    9.9450 Fe    1154  HEM1154     0.0000
      2  CHA       38.0720    2.2790   11.1950 C.2   1154  HEM1154     0.0000
      3  CHB       37.4030    5.3010    7.3960 C.2   1154  HEM1154     0.0000
      4  CHC       32.8840    6.2080    8.9170 C.2   1154  HEM1154     0.0000
      5  CHD       33.5000    3.0930   12.6010 C.2   1154  HEM1154     0.0000
      6  NA        37.3020    3.8800    9.4380 N.ar  1154  HEM1154     0.0000
      7  C1A       38.2760    3.0520   10.0520 C.ar  1154  HEM1154     0.0000
      8  C2A       39.5190    3.0730    9.3140 C.ar  1154  HEM1154     0.0000
      9  C3A       39.3210    3.9000    8.2560 C.ar  1154  HEM1154     0.0000
     10  C4A       37.9620    4.4290    8.3410 C.ar  1154  HEM1154     0.0000
     11  CMA       40.3250    4.2310    7.1580 C.3   1154  HEM1154     0.0000
     12  CAA       40.7850    2.2530    9.6180 C.3   1154  HEM1154     0.0000
     13  CBA       40.9410    1.0580    8.6740 C.3   1154  HEM1154     0.0000
     14  CGA       39.6930    0.1880    8.6220 C.2   1154  HEM1154     0.0000
     15  O1A       39.3210   -0.3920    9.6650 O.co2 1154  HEM1154     0.0000
     16  O2A       39.0780    0.0880    7.5360 O.co2 1154  HEM1154     0.0000
     17  NB        35.1640    5.4130    8.4090 N.2   1154  HEM1154     0.0000
     18  C1B       36.0780    5.7550    7.4110 C.2   1154  HEM1154     0.0000
     19  C2B       35.4900    6.7060    6.4680 C.2   1154  HEM1154     0.0000
     20  C3B       34.2220    6.9750    6.9180 C.2   1154  HEM1154     0.0000
     21  C4B       34.0300    6.1630    8.1210 C.2   1154  HEM1154     0.0000
     22  CMB       36.1620    7.2840    5.2160 C.3   1154  HEM1154     0.0000
     23  CAB       33.2790    7.8540    6.3700 C.3   1154  HEM1154     0.0000
     24  CBB       33.5070    9.2770    6.2780 C.3   1154  HEM1154     0.0000
     25  NC        33.6230    4.5790   10.6360 N.ar  1154  HEM1154     0.0000
     26  C1C       32.7030    5.4980   10.1090 C.ar  1154  HEM1154     0.0000
     27  C2C       31.5180    5.6360   10.9650 C.ar  1154  HEM1154     0.0000
     28  C3C       31.6980    4.7480   12.0170 C.ar  1154  HEM1154     0.0000
     29  C4C       32.9860    4.0770   11.7760 C.ar  1154  HEM1154     0.0000
     30  CMC       30.3100    6.5780   10.6960 C.3   1154  HEM1154     0.0000
     31  CAC       30.9000    4.4960   13.1440 C.3   1154  HEM1154     0.0000
     32  CBC       29.7690    5.2700   13.6270 C.3   1154  HEM1154     0.0000
     33  ND        35.7140    2.9350   11.5180 N.2   1154  HEM1154     0.0000
     34  C1D       34.7920    2.5850   12.4990 C.2   1154  HEM1154     0.0000
     35  C2D       35.3820    1.7260   13.4960 C.2   1154  HEM1154     0.0000
     36  C3D       36.6740    1.5520   13.1560 C.2   1154  HEM1154     0.0000
     37  C4D       36.8730    2.2540   11.8980 C.2   1154  HEM1154     0.0000
     38  CMD       34.6920    1.1400   14.7280 C.3   1154  HEM1154     0.0000
     39  CAD       37.7250    0.8510   14.0120 C.3   1154  HEM1154     0.0000
     40  CBD       38.4400    1.8240   14.9450 C.3   1154  HEM1154     0.0000
     41  CGD       39.4810    1.1440   15.8150 C.2   1154  HEM1154     0.0000
     42  O1D       39.1020    0.3260   16.6790 O.co2 1154  HEM1154     0.0000
     43  O2D       40.6820    1.4240   15.6300 O.co2 1154  HEM1154     0.0000
@<TRIPOS>BOND
     1    22    19    1
     2    24    23    1
     3    23    20    1
     4    19    20    2
     5    19    18    1
     6    20    21    1
     7    11     9    1
     8     3    18    1
     9     3    10    2
    10    18    17    2
    11    16    14   ar
    12    21    17    1
    13    21     4    2
    14     9    10   ar
    15     9     8   ar
    16    10     6   ar
    17    17     1    1
    18    14    13    1
    19    14    15   ar
    20    13    12    1
    21     4    26    1
    22     8    12    1
    23     8     7   ar
    24     6     1    1
    25     6     7   ar
    26     1    25    1
    27     1    33    1
    28     7     2    2
    29    26    25   ar
    30    26    27   ar
    31    25    29   ar
    32    30    27    1
    33    27    28   ar
    34     2    37    1
    35    33    37    2
    36    33    34    1
    37    29    28   ar
    38    29     5    1
    39    37    36    1
    40    28    31    1
    41    34     5    2
    42    34    35    1
    43    31    32    1
    44    36    35    2
    45    36    39    1
    46    35    38    1
    47    39    40    1
    48    40    41    1
    49    43    41   ar
    50    41    42   ar
