@<TRIPOS>MOLECULE
2bln_FON_A_1.pdb
 34 36 0 0 0
SMALL
GASTEIGER

@<TRIPOS>ATOM
      1  N1        16.0750   45.3870    4.0070 N.2   1305  FON1305    -0.2723
      2  C2        15.5320   45.0700    2.8460 C.1   1305  FON1305     0.2603
      3  NA2       14.3980   44.4270    2.8390 N.pl3 1305  FON1305    -0.0221
      4  N3        16.1850   45.3510    1.6700 N.2   1305  FON1305    -0.2512
      5  C4        17.4030   45.9970    1.6360 C.1   1305  FON1305     0.2257
      6  O4        17.9240   46.2130    0.5110 O.2   1305  FON1305    -0.2106
      7  C4A       17.9670   46.3520    2.8420 C.3   1305  FON1305     0.2941
      8  N5        19.3000   46.9360    3.0230 N.am  1305  FON1305    -0.2411
      9  C6        19.8120   46.6230    4.2910 C.3   1305  FON1305     0.1441
     10  C7        18.9970   47.1350    5.4030 C.3   1305  FON1305     0.1630
     11  N8        17.7450   46.3860    5.2400 N.2   1305  FON1305    -0.2086
     12  C8A       17.2430   46.0410    4.0090 C.1   1305  FON1305     0.1088
     13  C9        20.4150   45.3030    4.4770 C.2   1305  FON1305     0.0942
     14  N10       21.4160   44.9300    3.4860 N.2   1305  FON1305    -0.2467
     15  C11       22.9010   41.1290    3.0290 C.ar  1305  FON1305     0.0551
     16  C12       21.8600   41.3890    3.9470 C.ar  1305  FON1305     0.0061
     17  C13       21.3680   42.6730    4.1120 C.ar  1305  FON1305     0.0192
     18  C14       21.9090   43.7050    3.3770 C.ar  1305  FON1305     0.0810
     19  C15       22.9220   43.4450    2.4340 C.ar  1305  FON1305     0.0192
     20  C16       23.4070   42.1640    2.2830 C.ar  1305  FON1305     0.0061
     21  C         23.4390   39.7240    2.7520 C.2   1305  FON1305     0.2652
     22  O         24.0440   39.4810    1.7000 O.2   1305  FON1305    -0.2684
     23  N         23.1860   38.7840    3.6170 N.am  1305  FON1305    -0.1918
     24  CA        23.6660   37.4380    3.2150 C.3   1305  FON1305     0.1986
     25  CB        24.9100   36.9510    3.9790 C.3   1305  FON1305     0.0451
     26  CG        25.0830   37.3440    5.4290 C.3   1305  FON1305     0.1164
     27  CD        25.2150   38.8450    5.6110 C.2   1305  FON1305     0.3649
     28  OE1       24.4080   39.3310    6.4200 O.co2 1305  FON1305    -0.2457
     29  OE2       26.0920   39.4680    4.9600 O.co2 1305  FON1305    -0.2457
     30  CT        22.4270   36.5110    3.1470 C.2   1305  FON1305     0.3842
     31  O1        21.3340   37.0000    3.5150 O.co2 1305  FON1305    -0.2437
     32  O2        22.5720   35.3510    2.6950 O.co2 1305  FON1305    -0.2437
     33  CP1       19.9610   47.6640    2.1740 C.2   1305  FON1305     0.3048
     34  O3        21.1110   48.0650    2.4110 O.2   1305  FON1305    -0.2649
@<TRIPOS>BOND
     1     6     5    2
     2     5     4    2
     3     5     7    1
     4     4     2    2
     5    22    21    2
     6    33    34    2
     7    33     8   am
     8    20    19   ar
     9    20    15   ar
    10    19    18   ar
    11    32    30   ar
    12    21    15    1
    13    21    23   am
    14     3     2    1
    15     7     8    1
    16     7    12    1
    17     2     1    2
    18     8     9    1
    19    15    16   ar
    20    30    24    1
    21    30    31   ar
    22    24    23    1
    23    24    25    1
    24    18    14    1
    25    18    17   ar
    26    14    13    2
    27    16    17   ar
    28    25    26    1
    29     1    12    2
    30    12    11    2
    31     9    13    1
    32     9    10    1
    33    29    27   ar
    34    11    10    1
    35    26    27    1
    36    27    28   ar
