@<TRIPOS>MOLECULE
2bln_U5P_A_1.pdb
 21 22 0 0 0
SMALL
GASTEIGER

@<TRIPOS>ATOM
      1  N1        35.6400   44.8240    7.7660 N.am  1306  U5P1306    -0.1766
      2  C2        36.8070   44.2070    7.3380 C.1   1306  U5P1306     0.2845
      3  N3        37.2870   44.5040    6.0470 N.2   1306  U5P1306    -0.2452
      4  C4        36.5880   45.3580    5.1970 C.1   1306  U5P1306     0.2182
      5  C5        35.3790   45.9720    5.6180 C.2   1306  U5P1306     0.1242
      6  C6        34.9530   45.6990    6.9090 C.2   1306  U5P1306     0.0929
      7  O2        37.4210   43.4350    8.0720 O.2   1306  U5P1306    -0.1918
      8  O4        37.0820   45.5420    4.0850 O.2   1306  U5P1306    -0.2085
      9  C1'       35.1030   44.5290    9.1270 C.3   1306  U5P1306     0.2401
     10  C2'       35.1780   45.7320   10.0450 C.3   1306  U5P1306     0.2319
     11  O2'       36.4560   45.7690   10.6880 O.3   1306  U5P1306    -0.2157
     12  C3'       34.0470   45.4270   11.0260 C.3   1306  U5P1306     0.2158
     13  C4'       32.9920   44.7810   10.1250 C.3   1306  U5P1306     0.1801
     14  O3'       34.5040   44.4850   11.9980 O.3   1306  U5P1306    -0.2175
     15  O4'       33.6800   44.3160    8.9110 O.3   1306  U5P1306    -0.3320
     16  C5'       31.9210   45.7780    9.6520 C.3   1306  U5P1306     0.1859
     17  O5'       32.4830   47.1130    9.4890 O.3   1306  U5P1306    -0.2675
     18  P         31.5850   48.5150    9.5640 P.3   1306  U5P1306     0.5327
     19  O1P       33.0270   49.2100    9.2330 O.3   1306  U5P1306    -0.1145
     20  O2P       30.8350   47.8540    8.2710 O.2   1306  U5P1306    -0.2224
     21  O3P       31.2320   48.0900   10.9630 O.3   1306  U5P1306    -0.1145
@<TRIPOS>BOND
     1     8     4    2
     2     4     5    1
     3     4     3    2
     4     5     6    2
     5     3     2    2
     6     6     1    1
     7     2     1   am
     8     2     7    2
     9     1     9    1
    10    20    18    2
    11    15     9    1
    12    15    13    1
    13     9    10    1
    14    19    18    1
    15    17    18    1
    16    17    16    1
    17    18    21    1
    18    16    13    1
    19    10    11    1
    20    10    12    1
    21    13    12    1
    22    12    14    1
