@<TRIPOS>MOLECULE
2bm0_GDP_A_1.pdb
 28 30 0 0 0
SMALL
GASTEIGER

@<TRIPOS>ATOM
      1  PB         2.1450  -61.2940   19.3010 P.3   1690  GDP1690     0.5373
      2  O1B        0.6630  -61.2890   19.3690 O.3   1690  GDP1690    -0.1143
      3  O2B        2.6200  -60.9220   20.7320 O.3   1690  GDP1690    -0.1143
      4  O3B        2.6090  -60.2910   18.2310 O.2   1690  GDP1690    -0.2221
      5  O3A        2.7210  -62.7060   18.8050 O.3   1690  GDP1690    -0.2261
      6  PA         3.3680  -63.7350   19.8650 P.3   1690  GDP1690     0.2231
      7  O1A        2.4980  -63.9620   21.0450 O.3   1690  GDP1690    -0.4370
      8  O2A        4.8090  -63.3720   20.2640 O.2   1690  GDP1690    -0.5169
      9  O5'        3.4750  -65.0550   18.9860 O.3   1690  GDP1690    -0.3111
     10  C5'        2.3580  -65.5920   18.3210 C.3   1690  GDP1690     0.1813
     11  C4'        2.7480  -67.0060   17.9480 C.3   1690  GDP1690     0.1799
     12  O4'        3.8200  -66.9490   17.0170 O.3   1690  GDP1690    -0.3326
     13  C3'        3.2070  -67.7440   19.2110 C.3   1690  GDP1690     0.2158
     14  O3'        2.6000  -69.0090   19.3520 O.3   1690  GDP1690    -0.2175
     15  C2'        4.7170  -67.7920   19.0340 C.3   1690  GDP1690     0.2310
     16  O2'        5.3140  -68.9260   19.5970 O.3   1690  GDP1690    -0.2158
     17  C1'        4.8930  -67.7100   17.5230 C.3   1690  GDP1690     0.2293
     18  N9         6.2140  -67.1570   17.1910 N.pl3 1690  GDP1690    -0.2354
     19  C8         6.8890  -66.0530   17.6830 C.3   1690  GDP1690     0.2246
     20  N7         8.1050  -65.9840   17.0790 N.2   1690  GDP1690    -0.2322
     21  C5         8.2040  -67.0260   16.2160 C.2   1690  GDP1690     0.2182
     22  C6         9.1970  -67.4520   15.3380 C.1   1690  GDP1690     0.2372
     23  O6        10.3170  -66.9290   15.3770 O.2   1690  GDP1690    -0.2069
     24  N1         8.9580  -68.5930   14.5650 N.2   1690  GDP1690    -0.2485
     25  C2         7.7530  -69.2970   14.6740 C.1   1690  GDP1690     0.2531
     26  N2         7.5150  -70.4290   13.9960 N.pl3 1690  GDP1690    -0.0226
     27  N3         6.7860  -68.8660   15.5490 N.2   1690  GDP1690    -0.3074
     28  C4         7.0180  -67.7640   16.2920 C.2   1690  GDP1690     0.2300
@<TRIPOS>BOND
     1    26    25    1
     2    24    25    2
     3    24    22    2
     4    25    27    2
     5    22    23    2
     6    22    21    1
     7    27    28    2
     8    21    28    1
     9    21    20    2
    10    28    18    1
    11    12    17    1
    12    12    11    1
    13    20    19    1
    14    18    17    1
    15    18    19    1
    16    17    15    1
    17    11    10    1
    18    11    13    1
    19     4     1    2
    20    10     9    1
    21     5     1    1
    22     5     6    1
    23     9     6    1
    24    15    13    1
    25    15    16    1
    26    13    14    1
    27     1     2    1
    28     1     3    1
    29     6     8    2
    30     6     7    1
