@<TRIPOS>MOLECULE
2bm1_GDP_A_1.pdb
 28 30 0 0 0
SMALL
GASTEIGER

@<TRIPOS>ATOM
      1  PB         2.1190  -61.9790   19.6600 P.3   1689  GDP1689     0.5373
      2  O1B        0.6500  -61.9710   19.4090 O.3   1689  GDP1689    -0.1143
      3  O2B        2.4170  -61.6600   21.1560 O.3   1689  GDP1689    -0.1143
      4  O3B        2.7380  -61.0700   18.5880 O.2   1689  GDP1689    -0.2221
      5  O3A        2.6570  -63.4780   19.3480 O.3   1689  GDP1689    -0.2261
      6  PA         3.3800  -64.4250   20.4480 P.3   1689  GDP1689     0.2231
      7  O1A        2.5230  -64.7760   21.5810 O.3   1689  GDP1689    -0.4370
      8  O2A        4.7450  -63.8780   20.9260 O.2   1689  GDP1689    -0.5169
      9  O5'        3.6150  -65.6460   19.4540 O.3   1689  GDP1689    -0.3111
     10  C5'        2.5250  -66.2560   18.8020 C.3   1689  GDP1689     0.1813
     11  C4'        2.9280  -67.6920   18.5050 C.3   1689  GDP1689     0.1799
     12  O4'        4.0270  -67.6270   17.6200 O.3   1689  GDP1689    -0.3326
     13  C3'        3.3980  -68.4260   19.7250 C.3   1689  GDP1689     0.2158
     14  O3'        3.1320  -69.7870   19.5440 O.3   1689  GDP1689    -0.2175
     15  C2'        4.8740  -68.2420   19.6300 C.3   1689  GDP1689     0.2310
     16  O2'        5.5740  -69.2750   20.2470 O.3   1689  GDP1689    -0.2158
     17  C1'        5.0920  -68.3060   18.1410 C.3   1689  GDP1689     0.2293
     18  N9         6.3820  -67.7440   17.7450 N.pl3 1689  GDP1689    -0.2354
     19  C8         6.9970  -66.5950   18.1830 C.3   1689  GDP1689     0.2246
     20  N7         8.2140  -66.5230   17.5770 N.2   1689  GDP1689    -0.2322
     21  C5         8.3750  -67.6070   16.7700 C.2   1689  GDP1689     0.2182
     22  C6         9.4180  -68.0280   15.9510 C.1   1689  GDP1689     0.2372
     23  O6        10.5560  -67.5460   16.0820 O.2   1689  GDP1689    -0.2069
     24  N1         9.2560  -69.2210   15.2620 N.2   1689  GDP1689    -0.2485
     25  C2         8.1040  -69.9800   15.3860 C.1   1689  GDP1689     0.2531
     26  N2         7.7990  -70.8130   14.4150 N.pl3 1689  GDP1689    -0.0226
     27  N3         7.0950  -69.5600   16.2010 N.2   1689  GDP1689    -0.3074
     28  C4         7.2350  -68.3910   16.8750 C.2   1689  GDP1689     0.2300
@<TRIPOS>BOND
     1    26    25    1
     2    24    25    2
     3    24    22    2
     4    25    27    2
     5    22    23    2
     6    22    21    1
     7    27    28    2
     8    21    28    1
     9    21    20    2
    10    28    18    1
    11    20    19    1
    12    12    17    1
    13    12    11    1
    14    18    17    1
    15    18    19    1
    16    17    15    1
    17    11    10    1
    18    11    13    1
    19     4     1    2
    20    10     9    1
    21     5     1    1
    22     5     6    1
    23     2     1    1
    24     9     6    1
    25    14    13    1
    26    15    13    1
    27    15    16    1
    28     1     3    1
    29     6     8    2
    30     6     7    1
