@<TRIPOS>MOLECULE
2bm2_PM2_A_1.pdb
 30 33 0 0 0
SMALL
GASTEIGER

@<TRIPOS>ATOM
      1  C1        21.9410   77.8570   84.3200 C.ar  3211  PM23211    -0.0227
      2  C2        21.5260   77.3880   83.0330 C.ar  3211  PM23211    -0.0071
      3  C3        20.9420   78.0630   85.3570 C.ar  3211  PM23211    -0.0043
      4  C4        20.1590   77.1240   82.7470 C.ar  3211  PM23211    -0.0035
      5  C5        19.5480   77.7930   85.0870 C.ar  3211  PM23211    -0.0006
      6  C6        19.1480   77.3260   83.7890 C.ar  3211  PM23211    -0.0028
      7  C7        19.7930   76.6490   81.3810 C.3   3211  PM23211     0.1356
      8  N8        19.9620   77.7300   80.3600 N.3   3211  PM23211    -0.1262
      9  C9        24.1010   76.8870   85.3070 C.3   3211  PM23211     0.0259
     10  C10       25.6010   77.2480   85.5920 C.3   3211  PM23211     0.0940
     11  C11       27.3410   76.8680   83.6660 C.2   3211  PM23211     0.2505
     12  O12       27.7170   77.1780   82.5380 O.2   3211  PM23211    -0.2699
     13  C13       23.3850   78.1250   84.6200 C.3   3211  PM23211     0.0257
     14  N14       26.2910   77.5720   84.3170 N.am  3211  PM23211    -0.2760
     15  C15       25.6260   78.7660   83.6560 C.3   3211  PM23211     0.0940
     16  C16       24.1700   78.5300   83.3220 C.3   3211  PM23211     0.0259
     17  C17       28.1210   75.7250   84.2780 C.ar  3211  PM23211     0.0724
     18  C18       28.3580   74.4820   83.5610 C.ar  3211  PM23211     0.0034
     19  C19       28.6780   75.8350   85.5770 C.ar  3211  PM23211     0.1033
     20  C20       29.1500   73.4180   84.2020 C.ar  3211  PM23211    -0.0025
     21  N21       29.4010   74.8650   86.1740 N.ar  3211  PM23211    -0.2425
     22  C22       29.4490   72.1000   83.4980 C.3   3211  PM23211     0.0326
     23  C23       29.6400   73.6890   85.5140 C.ar  3211  PM23211     0.0946
     24  C24       30.9000   71.9240   83.0150 C.3   3211  PM23211     0.0311
     25  C25       31.3750   72.9050   81.9790 C.ar  3211  PM23211    -0.0218
     26  C26       31.1490   72.6970   80.5860 C.ar  3211  PM23211    -0.0043
     27  C27       32.0810   74.1130   82.3950 C.ar  3211  PM23211    -0.0043
     28  C28       31.6210   73.6890   79.5930 C.ar  3211  PM23211    -0.0003
     29  C29       32.5380   75.0750   81.4340 C.ar  3211  PM23211    -0.0003
     30  C30       32.3130   74.8760   80.0230 C.ar  3211  PM23211    -0.0000
@<TRIPOS>BOND
     1    28    30   ar
     2    28    26   ar
     3    30    29   ar
     4     8     7    1
     5    26    25   ar
     6     7     4    1
     7    29    27   ar
     8    25    27   ar
     9    25    24    1
    10    12    11    2
    11     4     2   ar
    12     4     6   ar
    13    24    22    1
    14     2     1   ar
    15    16    15    1
    16    16    13    1
    17    22    20    1
    18    18    20   ar
    19    18    17   ar
    20    15    14    1
    21    11    17    1
    22    11    14   am
    23     6     5   ar
    24    20    23   ar
    25    17    19   ar
    26    14    10    1
    27     1    13    1
    28     1     3   ar
    29    13     9    1
    30     5     3   ar
    31     9    10    1
    32    23    21   ar
    33    19    21   ar
