@<TRIPOS>MOLECULE
2bm9_SAM_A_1.pdb
 27 29 0 0 0
SMALL
GASTEIGER

@<TRIPOS>ATOM
      1  N         -9.1610   42.3940   73.9200 N.3   301  SAM301     -0.1208
      2  CA        -8.5790   43.5910   73.3250 C.3   301  SAM301      0.1952
      3  C         -7.9740   43.1780   71.9830 C.2   301  SAM301      0.3819
      4  O         -6.7680   43.2050   71.7440 O.co2 301  SAM301     -0.2441
      5  OXT       -8.6880   42.7770   71.0660 O.co2 301  SAM301     -0.2441
      6  CB        -7.5610   44.2840   74.2530 C.3   301  SAM301      0.0414
      7  CG        -8.0260   44.6160   75.6810 C.3   301  SAM301      0.0503
      8  SD        -7.1880   46.0200   76.4860 S.3   301  SAM301     -0.1761
      9  CE        -5.4950   45.9040   75.8570 C.3   301  SAM301      0.0590
     10  C5'       -6.9000   45.4240   78.1650 C.3   301  SAM301      0.0806
     11  C4'       -8.1960   45.1870   78.9140 C.3   301  SAM301      0.1622
     12  O4'       -7.9310   44.4620   80.0930 O.3   301  SAM301     -0.3153
     13  C3'       -8.8730   46.4830   79.3190 C.3   301  SAM301      0.2168
     14  O3'      -10.1240   46.5650   78.6870 O.3   301  SAM301     -0.2175
     15  C2'       -9.0050   46.3960   80.8240 C.3   301  SAM301      0.2569
     16  O2'      -10.2730   46.7980   81.2720 O.3   301  SAM301     -0.2130
     17  C1'       -8.7670   44.9270   81.1240 C.3   301  SAM301      0.3185
     18  N9        -8.1610   44.6960   82.4450 N.pl3 301  SAM301     -0.1439
     19  C8        -7.1350   45.3930   83.0210 C.3   301  SAM301      0.3377
     20  N7        -6.8870   44.8570   84.2340 N.2   301  SAM301     -0.2095
     21  C5        -7.7300   43.8320   84.4340 C.2   301  SAM301      0.2526
     22  C6        -7.8920   42.9610   85.4920 C.2   301  SAM301      0.4393
     23  N6        -7.1160   43.0750   86.5600 N.pl3 301  SAM301      0.2180
     24  N1        -8.8590   41.9830   85.4270 N.2   301  SAM301      0.0021
     25  C2        -9.6580   41.8780   84.3100 C.3   301  SAM301      0.5254
     26  N3        -9.4850   42.7550   83.2590 N.2   301  SAM301     -0.0055
     27  C4        -8.5370   43.7170   83.3200 C.2   301  SAM301      0.3518
@<TRIPOS>BOND
     1     5     3   ar
     2     4     3   ar
     3     3     2    1
     4     2     1    1
     5     2     6    1
     6     6     7    1
     7     7     8    1
     8     9     8    1
     9     8    10    1
    10    10    11    1
    11    14    13    1
    12    11    13    1
    13    11    12    1
    14    13    15    1
    15    12    17    1
    16    15    17    1
    17    15    16    1
    18    17    18    1
    19    18    19    1
    20    18    27    1
    21    19    20    1
    22    26    27    2
    23    26    25    1
    24    27    21    1
    25    20    21    2
    26    25    24    1
    27    21    22    1
    28    24    22    2
    29    22    23    1
