@<TRIPOS>MOLECULE
2bmb_PMM_A_1.pdb
 18 19 0 0 0
SMALL
GASTEIGER

@<TRIPOS>ATOM
      1  N5         3.4890   20.6970   56.6930 N.2   1865  PMM1865    -0.3831
      2  C6         4.6420   20.2830   57.0520 C.2   1865  PMM1865     0.1442
      3  C7         5.9090   20.9420   56.5510 C.3   1865  PMM1865     0.1939
      4  N8         5.7280   22.0700   55.6500 N.2   1865  PMM1865    -0.1992
      5  N1         4.3550   23.5670   54.4420 N.2   1865  PMM1865    -0.2672
      6  C2         3.1250   24.0110   54.0820 C.1   1865  PMM1865     0.2609
      7  N2         3.0480   25.0840   53.2580 N.pl3 1865  PMM1865    -0.0220
      8  N3         1.9880   23.4180   54.5290 N.2   1865  PMM1865    -0.2466
      9  C4         2.0060   22.3620   55.3620 C.1   1865  PMM1865     0.2569
     10  O4         0.9470   21.8440   55.7580 O.2   1865  PMM1865    -0.2052
     11  C4A        3.3160   21.8330   55.8010 C.2   1865  PMM1865     0.2989
     12  C8A        4.5090   22.5100   55.2760 C.1   1865  PMM1865     0.1401
     13  C9         4.7310   19.0850   57.9760 C.3   1865  PMM1865     0.2097
     14  O10        4.7640   17.8980   57.1590 O.3   1865  PMM1865    -0.2628
     15  PA         6.0900   16.9920   56.9160 P.3   1865  PMM1865     0.5330
     16  O1P        6.8570   17.1030   58.2200 O.3   1865  PMM1865    -0.1145
     17  O2P        6.8260   17.5800   55.7290 O.2   1865  PMM1865    -0.2224
     18  O3P        5.5020   15.6310   56.6370 O.3   1865  PMM1865    -0.1145
@<TRIPOS>BOND
     1     7     6    1
     2     6     5    2
     3     6     8    2
     4     5    12    2
     5     8     9    2
     6    12     4    2
     7    12    11    1
     8     9    10    2
     9     9    11    1
    10     4     3    1
    11    17    15    2
    12    11     1    2
    13     3     2    1
    14    18    15    1
    15     1     2    2
    16    15    14    1
    17    15    16    1
    18     2    13    1
    19    14    13    1
