@<TRIPOS>MOLECULE
2bmc_MPY_A_1.pdb
 37 41 0 0 0
SMALL
GASTEIGER

@<TRIPOS>ATOM
      1  N1         5.4620   -7.6020    6.9100 N.am  1395  MPY1395    -0.2341
      2  N2         8.1790   -8.7080    4.8710 N.2   1395  MPY1395    -0.0365
      3  C3         9.1120   -7.2530    6.1380 C.2   1395  MPY1395     0.3979
      4  N4         9.3510   -8.1150    5.1290 N.2   1395  MPY1395     0.0844
      5  N5        10.1430   -6.4490    6.6550 N.am  1395  MPY1395     0.0385
      6  C6        10.0480   -5.4990    7.7180 C.2   1395  MPY1395     0.3756
      7  C7        11.3070   -4.7070    8.0580 C.ar  1395  MPY1395     0.0821
      8  O8         9.0180   -5.2850    8.3390 O.2   1395  MPY1395    -0.2377
      9  C9        11.2790   -3.7180    9.0940 C.ar  1395  MPY1395     0.0082
     10  C10       12.3990   -2.9450    9.4360 C.ar  1395  MPY1395     0.0147
     11  C11       13.6890   -4.1080    7.7170 C.ar  1395  MPY1395     0.0147
     12  C12       12.5510   -4.8780    7.3830 C.ar  1395  MPY1395     0.0082
     13  C13        7.2120   -8.2420    5.6810 C.2   1395  MPY1395     0.1343
     14  C14        7.7380   -7.3110    6.5130 C.2   1395  MPY1395     0.1225
     15  C15        6.6320   -6.8430    7.3690 C.2   1395  MPY1395     0.0784
     16  C16        5.7850   -8.5470    5.8020 C.3   1395  MPY1395     0.1497
     17  N17       14.8130   -2.3000    9.1090 N.pl3 1395  MPY1395    -0.3046
     18  C18       14.7080   -1.1640   10.1050 C.3   1395  MPY1395     0.1081
     19  C19       16.0730   -0.5970   10.5860 C.3   1395  MPY1395     0.0938
     20  N20       17.0130   -0.2890    9.4800 N.3   1395  MPY1395    -0.2686
     21  C21       17.0220   -1.2560    8.3150 C.3   1395  MPY1395     0.0938
     22  C22       16.1730   -2.5450    8.5180 C.3   1395  MPY1395     0.1081
     23  C23       18.3550   -0.0600   10.0250 C.3   1395  MPY1395     0.0897
     24  C24       13.6520   -3.1050    8.7590 C.ar  1395  MPY1395     0.0479
     25  C25        4.1360   -7.2370    7.1000 C.2   1395  MPY1395     0.3316
     26  O26        3.2230   -7.8020    6.5190 O.2   1395  MPY1395    -0.2500
     27  C27        2.6370   -5.5130    8.2760 C.ar  1395  MPY1395     0.0669
     28  C28        2.1730   -4.5180    7.3180 C.ar  1395  MPY1395    -0.0071
     29  C29        1.8450   -5.8060    9.4510 C.ar  1395  MPY1395    -0.0071
     30  N30        3.8780   -6.1680    7.9940 N.am  1395  MPY1395    -0.1626
     31  C31        0.9360   -3.8550    7.5820 C.ar  1395  MPY1395    -0.0030
     32  C32        2.9270   -4.1330    6.0340 C.3   1395  MPY1395     0.0277
     33  C33        0.6230   -5.1030    9.6410 C.ar  1395  MPY1395    -0.0030
     34  C34        2.2040   -6.8200   10.5230 C.3   1395  MPY1395     0.0277
     35  C35        0.1660   -4.1390    8.7280 C.ar  1395  MPY1395    -0.0006
     36  C36        4.1550   -3.2670    6.3460 C.3   1395  MPY1395     0.0051
     37  C37        3.1710   -6.2410   11.5630 C.3   1395  MPY1395     0.0051
@<TRIPOS>BOND
     1     2     4    1
     2     2    13    2
     3     4     3    2
     4    13    16    1
     5    13    14    1
     6    16     1    1
     7    32    36    1
     8    32    28    1
     9     3    14    1
    10     3     5    1
    11    14    15    2
    12    26    25    2
    13     5     6   am
    14     1    25   am
    15     1    15    1
    16    25    30   am
    17    28    31   ar
    18    28    27   ar
    19    12    11   ar
    20    12     7   ar
    21    31    35   ar
    22    11    24   ar
    23     6     7    1
    24     6     8    2
    25    30    27    1
    26     7     9   ar
    27    27    29   ar
    28    21    22    1
    29    21    20    1
    30    22    17    1
    31    35    33   ar
    32    24    17    1
    33    24    10   ar
    34     9    10   ar
    35    17    18    1
    36    29    33   ar
    37    29    34    1
    38    20    23    1
    39    20    19    1
    40    18    19    1
    41    34    37    1
