@<TRIPOS>MOLECULE
2bmd_GDP_A_1.pdb
 28 30 0 0 0
SMALL
GASTEIGER

@<TRIPOS>ATOM
      1  PB        17.9910   -0.5380   23.3150 P.3   1187  GDP1187     0.5373
      2  O1B       17.1390    0.0430   22.2290 O.2   1187  GDP1187    -0.2221
      3  O2B       19.3840   -0.8760   22.7640 O.3   1187  GDP1187    -0.1143
      4  O3B       18.0130    0.3870   24.5290 O.3   1187  GDP1187    -0.1143
      5  O3A       17.3080   -1.9150   23.7440 O.3   1187  GDP1187    -0.2261
      6  PA        18.0470   -3.3370   23.9690 P.3   1187  GDP1187     0.2231
      7  O1A       18.5970   -3.9920   22.7490 O.2   1187  GDP1187    -0.5169
      8  O2A       19.1070   -3.1010   25.0680 O.3   1187  GDP1187    -0.4370
      9  O5'       16.7820   -4.1570   24.4950 O.3   1187  GDP1187    -0.3111
     10  C5'       16.0680   -3.6230   25.6070 C.3   1187  GDP1187     0.1813
     11  C4'       15.2880   -4.7280   26.3250 C.3   1187  GDP1187     0.1799
     12  O4'       14.4110   -5.4480   25.4610 O.3   1187  GDP1187    -0.3326
     13  C3'       16.2060   -5.7890   26.8920 C.3   1187  GDP1187     0.2158
     14  O3'       15.5970   -6.2610   28.0840 O.3   1187  GDP1187    -0.2175
     15  C2'       16.2080   -6.8720   25.8210 C.3   1187  GDP1187     0.2310
     16  O2'       16.5040   -8.1130   26.3930 O.3   1187  GDP1187    -0.2158
     17  C1'       14.7690   -6.8180   25.3370 C.3   1187  GDP1187     0.2293
     18  N9        14.5500   -7.1830   23.9390 N.pl3 1187  GDP1187    -0.2354
     19  C8        15.1600   -6.6150   22.8530 C.3   1187  GDP1187     0.2246
     20  N7        14.6560   -7.2020   21.7490 N.2   1187  GDP1187    -0.2322
     21  C5        13.7300   -8.1380   22.1170 C.2   1187  GDP1187     0.2182
     22  C6        12.8970   -9.0200   21.4090 C.1   1187  GDP1187     0.2372
     23  O6        12.8130   -9.0000   20.1720 O.2   1187  GDP1187    -0.2069
     24  N1        12.0350   -9.8450   22.1160 N.2   1187  GDP1187    -0.2485
     25  C2        11.9900   -9.8140   23.5000 C.1   1187  GDP1187     0.2531
     26  N2        11.3010  -10.7290   24.1820 N.pl3 1187  GDP1187    -0.0226
     27  N3        12.8230   -8.9510   24.1790 N.2   1187  GDP1187    -0.3074
     28  C4        13.6630   -8.1210   23.5050 C.2   1187  GDP1187     0.2300
@<TRIPOS>BOND
     1    23    22    2
     2    22    24    2
     3    22    21    1
     4    20    21    2
     5    20    19    1
     6    24    25    2
     7    21    28    1
     8     2     1    2
     9     7     6    2
    10     3     1    1
    11    19    18    1
    12     1     5    1
    13     1     4    1
    14    25    27    2
    15    25    26    1
    16    28    18    1
    17    28    27    2
    18     5     6    1
    19    18    17    1
    20     6     9    1
    21     6     8    1
    22     9    10    1
    23    17    12    1
    24    17    15    1
    25    12    11    1
    26    10    11    1
    27    15    16    1
    28    15    13    1
    29    11    13    1
    30    13    14    1
