@<TRIPOS>MOLECULE
2bme_GNP_A_1.pdb
 32 34 0 0 0
SMALL
GASTEIGER

@<TRIPOS>ATOM
      1  PG        76.6130    7.7320    4.1680 P.3   1180  GNP1180     0.4884
      2  O1G       78.1320    7.9440    4.1600 O.3   1180  GNP1180    -0.1240
      3  O2G       76.0060    7.9220    5.4620 O.3   1180  GNP1180    -0.1240
      4  O3G       76.3640    6.4040    3.5080 O.2   1180  GNP1180    -0.2331
      5  N3B       75.9300    8.8660    3.2040 N.3   1180  GNP1180    -0.0163
      6  PB        74.3270    9.0970    2.9510 P.3   1180  GNP1180     0.4669
      7  O1B       73.8830    8.1790    1.8450 O.2   1180  GNP1180    -0.2351
      8  O2B       73.5820    8.9600    4.2490 O.3   1180  GNP1180    -0.1253
      9  O3A       74.1170   10.6250    2.4900 O.3   1180  GNP1180    -0.2360
     10  PA        73.5050   11.8800    3.1590 P.3   1180  GNP1180     0.2220
     11  O1A       72.0550   11.7160    3.3880 O.2   1180  GNP1180    -0.5170
     12  O2A       74.3840   12.3240    4.3290 O.3   1180  GNP1180    -0.4370
     13  O5'       73.5800   12.9390    2.0160 O.3   1180  GNP1180    -0.3111
     14  C5'       74.8410   13.1630    1.3360 C.3   1180  GNP1180     0.1813
     15  C4'       74.9280   14.6120    0.8240 C.3   1180  GNP1180     0.1799
     16  O4'       73.9070   14.7400   -0.1930 O.3   1180  GNP1180    -0.3326
     17  C3'       74.6580   15.7080    1.8470 C.3   1180  GNP1180     0.2158
     18  O3'       75.4260   16.9330    1.5810 O.3   1180  GNP1180    -0.2175
     19  C2'       73.1590   15.9160    1.6720 C.3   1180  GNP1180     0.2310
     20  O2'       72.7050   17.1780    2.0750 O.3   1180  GNP1180    -0.2158
     21  C1'       72.9570   15.7440    0.1830 C.3   1180  GNP1180     0.2293
     22  N9        71.6520   15.2680   -0.2480 N.pl3 1180  GNP1180    -0.2354
     23  C8        71.0100   14.1090    0.1870 C.3   1180  GNP1180     0.2246
     24  N7        69.8360   13.9310   -0.4040 N.2   1180  GNP1180    -0.2322
     25  C5        69.7060   14.9990   -1.3090 C.2   1180  GNP1180     0.2182
     26  C6        68.6530   15.3410   -2.2150 C.1   1180  GNP1180     0.2372
     27  O6        67.6030   14.7620   -2.4730 O.2   1180  GNP1180    -0.2069
     28  N1        68.8820   16.5290   -2.9140 N.2   1180  GNP1180    -0.2485
     29  C2        70.0410   17.2870   -2.7210 C.1   1180  GNP1180     0.2531
     30  N2        70.1410   18.4150   -3.4780 N.pl3 1180  GNP1180    -0.0226
     31  N3        71.0380   16.9810   -1.8740 N.2   1180  GNP1180    -0.3074
     32  C4        70.8110   15.8170   -1.2050 C.2   1180  GNP1180     0.2300
@<TRIPOS>BOND
     1    30    29    1
     2    28    29    2
     3    28    26    2
     4    29    31    2
     5    27    26    2
     6    26    25    1
     7    31    32    2
     8    25    32    1
     9    25    24    2
    10    32    22    1
    11    24    23    1
    12    22    21    1
    13    22    23    1
    14    16    21    1
    15    16    15    1
    16    21    19    1
    17    15    14    1
    18    15    17    1
    19    14    13    1
    20    18    17    1
    21    19    17    1
    22    19    20    1
    23     7     6    2
    24    13    10    1
    25     9     6    1
    26     9    10    1
    27     6     5    1
    28     6     8    1
    29    10    11    2
    30    10    12    1
    31     5     1    1
    32     4     1    2
    33     2     1    1
    34     1     3    1
