@<TRIPOS>MOLECULE
2bmg_I1H_B_1.pdb
 35 38 0 0 0
SMALL
GASTEIGER

@<TRIPOS>ATOM
      1  C1         3.8120    7.9900   25.3070 C.ar  1246  I1H1246     0.1724
      2  C2         5.0280    7.5780   24.5880 C.ar  1246  I1H1246     0.1724
      3  C3         4.9910    6.4930   23.5850 C.ar  1246  I1H1246     0.0446
      4  C4         3.7460    5.7790   23.3140 C.ar  1246  I1H1246     0.0583
      5  C5         2.5260    6.1320   24.0590 C.ar  1246  I1H1246     0.0079
      6  C6         2.5660    7.2380   25.0340 C.ar  1246  I1H1246     0.0402
      7  O7         3.9280    9.0680   26.2040 O.3   1246  I1H1246    -0.4684
      8  O8         6.1620    8.2690   24.9070 O.3   1246  I1H1246    -0.4720
      9  C9         7.4030    7.5870   24.9370 C.3   1246  I1H1246     0.2102
     10  C10        8.2520    8.6020   25.6600 C.3   1246  I1H1246     0.0745
     11  C13        9.6650    8.1600   25.8450 C.ar  1246  I1H1246    -0.0078
     12  C16       10.0950    7.5480   27.1060 C.ar  1246  I1H1246    -0.0024
     13  C17       11.5060    7.2120   27.3490 C.ar  1246  I1H1246     0.0111
     14  C18       12.4930    7.4540   26.2900 C.ar  1246  I1H1246     0.0585
     15  C19       12.0680    8.0340   25.0290 C.ar  1246  I1H1246     0.0225
     16  C20       10.6740    8.3950   24.8240 C.ar  1246  I1H1246     0.0547
     17 CL21       10.2970    9.1490   23.3750 Cl    1246  I1H1246    -0.0825
     18 CL22       14.1310    7.0960   26.5020 Cl    1246  I1H1246    -0.0822
     19  C23        3.7170    4.8000   22.2570 C.2   1246  I1H1246     0.2649
     20  N24        4.8490    4.0550   22.1330 N.am  1246  I1H1246    -0.2017
     21  C25        4.8180    3.1920   20.9580 C.3   1246  I1H1246     0.1155
     22  C26        5.8570    3.6340   19.9300 C.3   1246  I1H1246     0.0251
     23  C29        7.2640    3.3010   20.4130 C.3   1246  I1H1246     0.0232
     24  C30        8.3510    3.5980   19.3810 C.3   1246  I1H1246     0.0908
     25  N31        8.0230    2.8940   18.1060 N.pl3 1246  I1H1246    -0.3074
     26  C32        6.6890    3.2520   17.5610 C.3   1246  I1H1246     0.0908
     27  C33        5.6490    2.8910   18.6090 C.3   1246  I1H1246     0.0232
     28  C43        8.8170    1.8950   17.5260 C.ar  1246  I1H1246     0.0510
     29  C44       10.1620    1.6120   18.0440 C.ar  1246  I1H1246     0.0352
     30  C45       10.9040    0.4990   17.4880 C.ar  1246  I1H1246     0.1002
     31  N46       10.3010   -0.2430   16.4750 N.ar  1246  I1H1246    -0.2422
     32  C47        9.0470   -0.0170   15.9140 C.ar  1246  I1H1246     0.1002
     33  C48        8.2690    1.0760   16.4330 C.ar  1246  I1H1246     0.0352
     34  O52        2.7340    4.6680   21.5270 O.2   1246  I1H1246    -0.2684
     35  C7         2.7830    9.9030   26.4380 C.3   1246  I1H1246     0.2526
@<TRIPOS>BOND
     1    32    33   ar
     2    32    31   ar
     3    33    28   ar
     4    31    30   ar
     5    30    29   ar
     6    28    29   ar
     7    28    25    1
     8    26    25    1
     9    26    27    1
    10    25    24    1
    11    27    22    1
    12    24    23    1
    13    22    23    1
    14    22    21    1
    15    21    20    1
    16    34    19    2
    17    20    19   am
    18    19     4    1
    19     4     3   ar
    20     4     5   ar
    21    17    16    1
    22     3     2   ar
    23     5     6   ar
    24     2     8    1
    25     2     1   ar
    26    16    15   ar
    27    16    11   ar
    28     8     9    1
    29     9    10    1
    30    15    14   ar
    31     6     1   ar
    32     1     7    1
    33    10    11    1
    34    11    12   ar
    35     7    35    1
    36    14    18    1
    37    14    13   ar
    38    12    13   ar
