@<TRIPOS>MOLECULE
2bmh_HEM_A_1.pdb
 43 50 0 0 0
SMALL
GASTEIGER

@<TRIPOS>ATOM
      1 FE         53.1440   67.1360   45.6870 Fe    460  HEM460      0.0000
      2  CHA       55.4720   65.1350   44.0740 C.2   460  HEM460      0.0000
      3  CHB       50.6710   65.1630   44.5340 C.2   460  HEM460      0.0000
      4  CHC       50.8630   69.1690   47.3520 C.2   460  HEM460      0.0000
      5  CHD       55.6310   69.3600   46.5180 C.2   460  HEM460      0.0000
      6  NA        53.0790   65.4930   44.5660 N.ar  460  HEM460      0.0000
      7  C1A       54.1240   64.7910   43.9600 C.ar  460  HEM460      0.0000
      8  C2A       53.6330   63.6550   43.2190 C.ar  460  HEM460      0.0000
      9  C3A       52.3090   63.6500   43.3420 C.ar  460  HEM460      0.0000
     10  C4A       51.9600   64.7850   44.1850 C.ar  460  HEM460      0.0000
     11  CMA       51.3780   62.6980   42.6400 C.3   460  HEM460      0.0000
     12  CAA       54.4690   62.6360   42.4600 C.3   460  HEM460      0.0000
     13  CBA       54.7150   62.9990   41.0060 C.3   460  HEM460      0.0000
     14  CGA       55.4750   61.9260   40.2410 C.2   460  HEM460      0.0000
     15  O1A       55.6260   60.7980   40.7500 O.co2 460  HEM460      0.0000
     16  O2A       55.9040   62.2020   39.1060 O.co2 460  HEM460      0.0000
     17  NB        51.1800   67.1570   45.8680 N.2   460  HEM460      0.0000
     18  C1B       50.2780   66.2390   45.3220 C.2   460  HEM460      0.0000
     19  C2B       48.8850   66.4940   45.7410 C.2   460  HEM460      0.0000
     20  C3B       48.9750   67.6010   46.5770 C.2   460  HEM460      0.0000
     21  C4B       50.3830   68.0360   46.6290 C.2   460  HEM460      0.0000
     22  CMB       47.6080   65.7300   45.3010 C.3   460  HEM460      0.0000
     23  CAB       47.9630   68.3480   47.1750 C.2   460  HEM460      0.0000
     24  CBB       46.9490   67.9520   47.9880 C.2   460  HEM460      0.0000
     25  NC        53.2130   68.8930   46.7220 N.ar  460  HEM460      0.0000
     26  C1C       52.2050   69.5710   47.4130 C.ar  460  HEM460      0.0000
     27  C2C       52.7370   70.7660   48.1240 C.ar  460  HEM460      0.0000
     28  C3C       54.0530   70.8170   47.8140 C.ar  460  HEM460      0.0000
     29  C4C       54.3410   69.6710   46.9720 C.ar  460  HEM460      0.0000
     30  CMC       52.0140   71.7980   49.0450 C.3   460  HEM460      0.0000
     31  CAC       54.9630   71.8520   48.0420 C.2   460  HEM460      0.0000
     32  CBC       55.3110   72.4480   49.2100 C.2   460  HEM460      0.0000
     33  ND        55.0890   67.2130   45.3760 N.2   460  HEM460      0.0000
     34  C1D       55.9760   68.2140   45.7930 C.2   460  HEM460      0.0000
     35  C2D       57.3500   67.8660   45.4230 C.2   460  HEM460      0.0000
     36  C3D       57.3410   66.6310   44.8520 C.2   460  HEM460      0.0000
     37  C4D       55.9320   66.2590   44.7590 C.2   460  HEM460      0.0000
     38  CMD       58.5220   68.8560   45.4570 C.3   460  HEM460      0.0000
     39  CAD       58.5620   65.8130   44.3880 C.3   460  HEM460      0.0000
     40  CBD       59.1790   64.9110   45.4650 C.3   460  HEM460      0.0000
     41  CGD       60.4220   64.1730   44.9770 C.2   460  HEM460      0.0000
     42  O1D       61.5060   64.3440   45.5770 O.co2 460  HEM460      0.0000
     43  O2D       60.3170   63.4290   43.9880 O.co2 460  HEM460      0.0000
@<TRIPOS>BOND
     1    16    14   ar
     2    14    15   ar
     3    14    13    1
     4    13    12    1
     5    12     8    1
     6    11     9    1
     7     8     9   ar
     8     8     7   ar
     9     9    10   ar
    10     7     2    2
    11     7     6   ar
    12    43    41   ar
    13     2    37    1
    14    10     3    2
    15    10     6   ar
    16    39    36    1
    17    39    40    1
    18     3    18    1
    19     6     1    1
    20    37    36    1
    21    37    33    2
    22    36    35    2
    23    41    40    1
    24    41    42   ar
    25    22    19    1
    26    18    19    1
    27    18    17    2
    28    33     1    1
    29    33    34    1
    30    35    38    1
    31    35    34    1
    32     1    17    1
    33     1    25    1
    34    19    20    2
    35    34     5    2
    36    17    21    1
    37     5    29    1
    38    20    21    1
    39    20    23    1
    40    21     4    2
    41    25    29   ar
    42    25    26   ar
    43    29    28   ar
    44    23    24    2
    45     4    26    1
    46    26    27   ar
    47    28    31    1
    48    28    27   ar
    49    31    32    2
    50    27    30    1
