@<TRIPOS>MOLECULE
2bmk_PDD_B_1.pdb
 21 21 0 0 0
SMALL
GASTEIGER

@<TRIPOS>ATOM
      1  N         75.6480   33.6140   62.1450 N.3   1217  PDD1217    -0.2034
      2  N1        74.6870   38.6070   62.4280 N.ar  1217  PDD1217    -0.2452
      3  C2        74.5920   37.6720   63.4220 C.ar  1217  PDD1217     0.0978
      4  C2A       73.8720   38.0430   64.6840 C.3   1217  PDD1217     0.0555
      5  C3        75.1980   36.3860   63.1860 C.ar  1217  PDD1217     0.2062
      6  O3A       75.1460   35.4160   64.1130 O.3   1217  PDD1217    -0.2856
      7  C4        75.8800   36.1380   61.9290 C.ar  1217  PDD1217     0.0353
      8  C4A       76.5160   34.7620   61.7260 C.3   1217  PDD1217     0.1186
      9  C5        75.9340   37.1950   60.9390 C.ar  1217  PDD1217     0.0275
     10  C5A       76.6340   37.0420   59.5890 C.3   1217  PDD1217     0.1816
     11  OP4       77.3300   38.2750   59.2680 O.3   1217  PDD1217    -0.2653
     12  P         77.6610   38.5710   57.7240 P.3   1217  PDD1217     0.5329
     13  OP1       76.4560   38.1500   56.9540 O.2   1217  PDD1217    -0.2224
     14  OP2       78.9020   37.6990   57.3660 O.3   1217  PDD1217    -0.1145
     15  OP3       78.0780   40.0160   57.6120 O.3   1217  PDD1217    -0.1145
     16  C6        75.3210   38.4110   61.2310 C.ar  1217  PDD1217     0.0965
     17  CA        76.4500   32.4810   62.7530 C.3   1217  PDD1217     0.1761
     18  CB        77.5330   31.9780   61.7920 C.3   1217  PDD1217     0.0310
     19  C         75.4790   31.3420   63.1570 C.2   1217  PDD1217     0.3803
     20  O         75.5360   30.3060   62.2760 O.co2 1217  PDD1217    -0.2441
     21  OXT       74.6760   31.3870   64.2000 O.co2 1217  PDD1217    -0.2441
@<TRIPOS>BOND
     1    13    12    2
     2    14    12    1
     3    15    12    1
     4    12    11    1
     5    11    10    1
     6    10     9    1
     7     9    16   ar
     8     9     7   ar
     9    16     2   ar
    10     8     7    1
    11     8     1    1
    12    18    17    1
    13     7     5   ar
    14     1    17    1
    15    20    19   ar
    16     2     3   ar
    17    17    19    1
    18    19    21   ar
    19     5     3   ar
    20     5     6    1
    21     3     4    1
