@<TRIPOS>MOLECULE
2bml_XED_B_1.pdb
 26 29 0 0 0
SMALL
GASTEIGER

@<TRIPOS>ATOM
      1  C1        44.3140   12.3760    9.7490 C.3   1319  XED1319     0.1083
      2  C2        44.9950   13.7410   10.0920 C.3   1319  XED1319     0.0938
      3  N3        45.3230   11.3220    9.9620 N.pl3 1319  XED1319    -0.3005
      4  N4        45.4500   13.7090   11.5070 N.3   1319  XED1319    -0.2686
      5  C5        45.6960   11.2640   11.3890 C.3   1319  XED1319     0.1083
      6  C6        46.3840   12.6030   11.7810 C.3   1319  XED1319     0.0938
      7  C7        46.1050   14.9820   11.8620 C.3   1319  XED1319     0.0897
      8  C8        45.0020   10.0390    9.3410 C.ar  1319  XED1319     0.1116
      9  C9        44.3960    8.9260   10.0370 C.ar  1319  XED1319     0.1697
     10  C10       45.3230    9.8780    7.9360 C.ar  1319  XED1319     0.1565
     11  F11       45.8790   10.8680    7.2600 F     1319  XED1319    -0.2028
     12  C12       44.1220    7.7060    9.3750 C.ar  1319  XED1319     0.0988
     13  C13       45.0410    8.6420    7.2620 C.ar  1319  XED1319     0.0358
     14  C14       44.4450    7.5610    7.9780 C.ar  1319  XED1319     0.0603
     15  O15       44.0310    8.9710   11.4040 O.3   1319  XED1319    -0.4707
     16  N16       43.5250    6.6550   10.1680 N.ar  1319  XED1319    -0.3215
     17  C17       43.2420    5.4830    9.5140 C.ar  1319  XED1319     0.0859
     18  C18       42.3370    7.1010   11.0260 C.3   1319  XED1319     0.1292
     19  C19       42.7230    8.4150   11.8050 C.3   1319  XED1319     0.2278
     20  C20       40.9480    6.4110   11.0890 C.3   1319  XED1319     0.0284
     21  C21       43.4800    5.1650    8.2050 C.ar  1319  XED1319     0.1357
     22  C22       44.1140    6.2160    7.3360 C.ar  1319  XED1319     0.2050
     23  O23       42.5980    2.9760    8.4360 O.co2 1319  XED1319    -0.2404
     24  C24       43.1110    3.8070    7.6930 C.2   1319  XED1319     0.3923
     25  O25       43.3170    3.4950    6.5230 O.co2 1319  XED1319    -0.2404
     26  O26       44.3620    6.0110    6.1410 O.2   1319  XED1319    -0.2862
@<TRIPOS>BOND
     1    26    22    2
     2    25    24   ar
     3    11    10    1
     4    13    10   ar
     5    13    14   ar
     6    22    14   ar
     7    22    21   ar
     8    24    21    1
     9    24    23   ar
    10    10     8   ar
    11    14    12   ar
    12    21    17   ar
    13     8     3    1
    14     8     9   ar
    15    12     9   ar
    16    12    16   ar
    17    17    16   ar
    18     1     3    1
    19     1     2    1
    20     3     5    1
    21     9    15    1
    22     2     4    1
    23    16    18    1
    24    18    20    1
    25    18    19    1
    26     5     6    1
    27    15    19    1
    28     4     6    1
    29     4     7    1
