@<TRIPOS>MOLECULE
2bmm_HEM_A_1.pdb
 43 50 0 0 0
SMALL
GASTEIGER

@<TRIPOS>ATOM
      1 FE         50.1300   17.7470   29.1800 Fe    1157  HEM1157     0.0000
      2  CHA       51.6060   20.9140   29.0890 C.2   1157  HEM1157     0.0000
      3  CHB       48.1420   18.7680   26.4590 C.2   1157  HEM1157     0.0000
      4  CHC       48.4980   14.8460   29.3340 C.2   1157  HEM1157     0.0000
      5  CHD       52.4620   16.6310   31.3620 C.2   1157  HEM1157     0.0000
      6  NA        49.8710   19.5430   27.9850 N.ar  1157  HEM1157     0.0000
      7  C1A       50.6440   20.6780   28.1140 C.ar  1157  HEM1157     0.0000
      8  C2A       50.2790   21.5670   27.0400 C.ar  1157  HEM1157     0.0000
      9  C3A       49.3180   20.9890   26.2970 C.ar  1157  HEM1157     0.0000
     10  C4A       49.0490   19.6970   26.8910 C.ar  1157  HEM1157     0.0000
     11  CMA       48.5810   21.5630   25.0560 C.3   1157  HEM1157     0.0000
     12  CAA       50.9180   22.9460   26.8520 C.3   1157  HEM1157     0.0000
     13  CBA       52.0590   22.7600   25.8510 C.3   1157  HEM1157     0.0000
     14  CGA       52.6710   24.1040   25.5390 C.2   1157  HEM1157     0.0000
     15  O1A       52.6210   24.5000   24.3390 O.co2 1157  HEM1157     0.0000
     16  O2A       53.2040   24.7750   26.4800 O.co2 1157  HEM1157     0.0000
     17  NB        48.6090   16.9780   28.1070 N.2   1157  HEM1157     0.0000
     18  C1B       47.9620   17.5150   27.0110 C.2   1157  HEM1157     0.0000
     19  C2B       47.0230   16.5200   26.5260 C.2   1157  HEM1157     0.0000
     20  C3B       47.1170   15.4360   27.3280 C.2   1157  HEM1157     0.0000
     21  C4B       48.1160   15.7110   28.3340 C.2   1157  HEM1157     0.0000
     22  CMB       46.1050   16.7390   25.3070 C.3   1157  HEM1157     0.0000
     23  CAB       46.3250   14.1140   27.2180 C.2   1157  HEM1157     0.0000
     24  CBB       45.9420   13.4620   28.3110 C.2   1157  HEM1157     0.0000
     25  NC        50.4220   16.0190   30.1750 N.ar  1157  HEM1157     0.0000
     26  C1C       49.6110   14.9270   30.1290 C.ar  1157  HEM1157     0.0000
     27  C2C       50.1490   13.9250   31.0310 C.ar  1157  HEM1157     0.0000
     28  C3C       51.2670   14.4530   31.5920 C.ar  1157  HEM1157     0.0000
     29  C4C       51.4420   15.7750   31.0550 C.ar  1157  HEM1157     0.0000
     30  CMC       49.4950   12.5330   31.2600 C.3   1157  HEM1157     0.0000
     31  CAC       52.2660   13.9230   32.6390 C.2   1157  HEM1157     0.0000
     32  CBC       52.4350   12.6350   32.9270 C.2   1157  HEM1157     0.0000
     33  ND        51.8070   18.6160   30.0500 N.2   1157  HEM1157     0.0000
     34  C1D       52.5610   17.9530   31.0060 C.2   1157  HEM1157     0.0000
     35  C2D       53.4840   18.8890   31.6040 C.2   1157  HEM1157     0.0000
     36  C3D       53.2100   20.2280   30.9120 C.2   1157  HEM1157     0.0000
     37  C4D       52.1530   19.9710   29.9500 C.2   1157  HEM1157     0.0000
     38  CMD       54.5080   18.6110   32.7080 C.3   1157  HEM1157     0.0000
     39  CAD       53.9440   21.5530   31.1940 C.3   1157  HEM1157     0.0000
     40  CBD       53.7740   21.7880   32.6860 C.3   1157  HEM1157     0.0000
     41  CGD       54.2080   23.1830   32.9840 C.2   1157  HEM1157     0.0000
     42  O1D       53.5780   24.1040   32.4220 O.co2 1157  HEM1157     0.0000
     43  O2D       55.1710   23.3460   33.7690 O.co2 1157  HEM1157     0.0000
@<TRIPOS>BOND
     1    15    14   ar
     2    11     9    1
     3    22    19    1
     4    14    13    1
     5    14    16   ar
     6    13    12    1
     7     9    10   ar
     8     9     8   ar
     9     3    10    2
    10     3    18    1
    11    19    18    1
    12    19    20    2
    13    12     8    1
    14    10     6   ar
    15    18    17    2
    16     8     7   ar
    17    23    20    1
    18    23    24    2
    19    20    21    1
    20     6     7   ar
    21     6     1    1
    22    17    21    1
    23    17     1    1
    24     7     2    2
    25    21     4    2
    26     2    37    1
    27     1    33    1
    28     1    25    1
    29     4    26    1
    30    37    33    2
    31    37    36    1
    32    33    34    1
    33    26    25   ar
    34    26    27   ar
    35    25    29   ar
    36    36    39    1
    37    36    35    2
    38    34     5    2
    39    34    35    1
    40    27    30    1
    41    27    28   ar
    42    29     5    1
    43    29    28   ar
    44    39    40    1
    45    28    31    1
    46    35    38    1
    47    42    41   ar
    48    31    32    2
    49    40    41    1
    50    41    43   ar
