@<TRIPOS>MOLECULE
2bmr_3NT_A_1.pdb
 10 10 0 0 0
SMALL
GASTEIGER

@<TRIPOS>ATOM
      1  C1        53.5540   66.6440    2.8110 C.ar  1442  3NT1442    -0.0202
      2  C2        53.3170   66.6100    1.4370 C.ar  1442  3NT1442     0.0198
      3  C3        53.1030   65.3910    0.7920 C.ar  1442  3NT1442     0.1426
      4  C4        53.1270   64.2040    1.5330 C.ar  1442  3NT1442     0.0241
      5  C5        53.3640   64.2370    2.9090 C.ar  1442  3NT1442     0.0014
      6  C6        53.5800   65.4600    3.5490 C.ar  1442  3NT1442    -0.0042
      7  C7        53.7910   67.9650    3.4950 C.3   1442  3NT1442     0.0311
      8  N3        52.8690   65.4020   -0.5480 N.pl3 1442  3NT1442     0.0577
      9  O1N       52.5070   66.4700   -1.0820 O.2   1442  3NT1442    -0.1261
     10  O2N       53.0140   64.3860   -1.2570 O.2   1442  3NT1442    -0.1261
@<TRIPOS>BOND
     1    10     8    2
     2     9     8    2
     3     8     3    1
     4     3     2   ar
     5     3     4   ar
     6     2     1   ar
     7     4     5   ar
     8     1     7    1
     9     1     6   ar
    10     5     6   ar
