@<TRIPOS>MOLECULE
2bmu_ANP_A_1.pdb
 31 33 0 0 0
SMALL
GASTEIGER

@<TRIPOS>ATOM
      1  PG        72.5850   99.4010   33.7290 P.3   1226  ANP1226     0.4884
      2  O1G       73.3130   98.3190   34.4290 O.3   1226  ANP1226    -0.1240
      3  O2G       72.9350   99.7020   32.3080 O.2   1226  ANP1226    -0.2331
      4  O3G       72.7230  100.7470   34.5530 O.3   1226  ANP1226    -0.1240
      5  PB        70.2130   97.9860   32.6140 P.3   1226  ANP1226     0.4669
      6  O1B       71.2290   97.0070   32.1420 O.2   1226  ANP1226    -0.2351
      7  O2B       69.1020   97.5060   33.4230 O.3   1226  ANP1226    -0.1253
      8  N3B       70.9990   99.0960   33.3700 N.3   1226  ANP1226    -0.0163
      9  PA        69.5460   98.2630   29.7600 P.3   1226  ANP1226     0.2220
     10  O1A       69.0970   99.5890   29.2060 O.3   1226  ANP1226    -0.4370
     11  O2A       70.8710   98.0660   29.1910 O.2   1226  ANP1226    -0.5170
     12  O3A       69.4190   98.5480   31.3350 O.3   1226  ANP1226    -0.2360
     13  O5'       68.5320   97.0620   29.2880 O.3   1226  ANP1226    -0.3111
     14  C5'       67.3870   96.9510   28.5220 C.3   1226  ANP1226     0.1813
     15  C4'       66.9490   97.5690   27.4050 C.3   1226  ANP1226     0.1821
     16  O4'       67.1800   96.5340   26.5610 O.3   1226  ANP1226    -0.3135
     17  C3'       65.4170   97.8570   27.2450 C.3   1226  ANP1226     0.2184
     18  O3'       64.7580   98.8830   27.9050 O.3   1226  ANP1226    -0.2174
     19  C2'       65.3810   97.7380   25.6470 C.3   1226  ANP1226     0.2570
     20  O2'       65.4980   99.1810   25.1090 O.3   1226  ANP1226    -0.2130
     21  C1'       66.5750   96.8590   25.2810 C.3   1226  ANP1226     0.3186
     22  N9        66.3060   95.6460   24.4870 N.pl3 1226  ANP1226    -0.1439
     23  C8        66.6320   95.2780   23.2590 C.3   1226  ANP1226     0.3377
     24  N7        66.2860   94.1510   22.7930 N.2   1226  ANP1226    -0.2095
     25  C5        65.6390   93.6760   23.8250 C.2   1226  ANP1226     0.2526
     26  C6        64.9880   92.4100   23.9710 C.2   1226  ANP1226     0.4393
     27  N6        65.0350   91.5930   22.9240 N.pl3 1226  ANP1226     0.2180
     28  N1        64.3530   92.1030   25.1610 N.2   1226  ANP1226     0.0021
     29  C2        64.3130   92.9680   26.2520 C.3   1226  ANP1226     0.5254
     30  N3        64.9470   94.2250   26.1520 N.2   1226  ANP1226    -0.0055
     31  C4        65.5620   94.4760   24.9490 C.2   1226  ANP1226     0.3518
@<TRIPOS>BOND
     1    24    23    1
     2    24    25    2
     3    27    26    1
     4    23    22    1
     5    25    26    1
     6    25    31    1
     7    26    28    2
     8    22    31    1
     9    22    21    1
    10    31    30    2
    11    20    19    1
    12    28    29    1
    13    21    19    1
    14    21    16    1
    15    19    17    1
    16    30    29    1
    17    16    15    1
    18    17    15    1
    19    17    18    1
    20    15    14    1
    21    14    13    1
    22    11     9    2
    23    10     9    1
    24    13     9    1
    25     9    12    1
    26    12     5    1
    27     6     5    2
    28     3     1    2
    29     5     8    1
    30     5     7    1
    31     8     1    1
    32     1     2    1
    33     1     4    1
