@<TRIPOS>MOLECULE
2bmu_U5P_A_1.pdb
 21 22 0 0 0
SMALL
GASTEIGER

@<TRIPOS>ATOM
      1  N1        81.9010   99.5480   32.7150 N.am  1227  U5P1227    -0.1766
      2  C2        83.1050   98.8080   32.2070 C.1   1227  U5P1227     0.2845
      3  N3        83.3790   97.5990   32.8710 N.2   1227  U5P1227    -0.2452
      4  C4        82.6350   97.0300   33.9450 C.1   1227  U5P1227     0.2182
      5  C5        81.4040   97.7670   34.4660 C.2   1227  U5P1227     0.1242
      6  C6        81.1080   98.9670   33.8370 C.2   1227  U5P1227     0.0929
      7  O2        83.8260   99.1700   31.3070 O.2   1227  U5P1227    -0.1918
      8  O4        83.0220   95.7060   34.6090 O.2   1227  U5P1227    -0.2085
      9  C1'       81.5640  100.8860   32.0230 C.3   1227  U5P1227     0.2401
     10  C2'       80.9470  100.7140   30.5640 C.3   1227  U5P1227     0.2319
     11  O2'       81.6310  101.6300   29.6510 O.3   1227  U5P1227    -0.2157
     12  C3'       79.4980  100.3640   30.8850 C.3   1227  U5P1227     0.2158
     13  C4'       79.2360  101.4480   31.9550 C.3   1227  U5P1227     0.1801
     14  O3'       78.6180  100.5260   29.7950 O.3   1227  U5P1227    -0.2175
     15  O4'       80.3590  101.3810   32.7800 O.3   1227  U5P1227    -0.3320
     16  C5'       78.0770  101.4480   32.8360 C.3   1227  U5P1227     0.1859
     17  O5'       77.8890  100.1230   33.2220 O.3   1227  U5P1227    -0.2675
     18  P         76.5500   99.3900   32.9820 P.3   1227  U5P1227     0.5327
     19  O1P       76.6810   97.9980   33.4690 O.3   1227  U5P1227    -0.1145
     20  O2P       75.4500  100.2380   33.5130 O.3   1227  U5P1227    -0.1145
     21  O3P       76.4760   99.4030   31.3880 O.2   1227  U5P1227    -0.2224
@<TRIPOS>BOND
     1    11    10    1
     2    14    12    1
     3    10    12    1
     4    10     9    1
     5    12    13    1
     6     7     2    2
     7    21    18    2
     8    13    15    1
     9    13    16    1
    10     9     1    1
    11     9    15    1
    12     2     1   am
    13     2     3    2
    14     1     6    1
    15    16    17    1
    16     3     4    2
    17    18    17    1
    18    18    19    1
    19    18    20    1
    20     6     5    2
    21     4     5    1
    22     4     8    2
