@<TRIPOS>MOLECULE
2bmz_XLM_A_1.pdb
 22 23 0 0 0
SMALL
GASTEIGER

@<TRIPOS>ATOM
      1  C1        10.7640   30.4300   44.9380 C.3   1142  XLM1142     0.2695
      2  C2        11.2520   28.9740   44.9610 C.3   1142  XLM1142     0.2406
      3  C3        12.3540   28.8310   46.0180 C.3   1142  XLM1142     0.2198
      4  C4        13.5040   29.7960   45.6760 C.3   1142  XLM1142     0.2143
      5  C5        12.9580   31.2570   45.6300 C.3   1142  XLM1142     0.1803
      6  O2        10.1670   28.0910   45.2560 O.3   1142  XLM1142    -0.2149
      7  O3        12.8230   27.4810   46.0600 O.3   1142  XLM1142    -0.2174
      8  O4        14.5430   29.6870   46.6360 O.3   1142  XLM1142    -0.2176
      9  O5        11.8630   31.3500   44.6350 O.3   1142  XLM1142    -0.3257
     10  C1'        6.8010   32.9380   44.0950 C.3   1142  XLM1142     0.2694
     11  C2'        7.6140   31.6220   44.2600 C.3   1142  XLM1142     0.2374
     12  C3'        9.1120   31.8510   43.9190 C.3   1142  XLM1142     0.1858
     13  C4'        9.2300   32.3960   42.5060 C.3   1142  XLM1142     0.2113
     14  C5'        8.4010   33.7030   42.3630 C.3   1142  XLM1142     0.1834
     15  C6'        8.4420   34.2480   40.9420 C.3   1142  XLM1142     0.2142
     16  C7'        6.5710   35.1690   45.0100 C.3   1142  XLM1142     0.1769
     17  O1'        7.2710   33.8840   45.0460 O.3   1142  XLM1142    -0.3259
     18  O2'        7.1170   30.6460   43.3510 O.3   1142  XLM1142    -0.2150
     19  O3'        9.7820   30.5600   43.9720 O.3   1142  XLM1142    -0.3255
     20  O4'       10.5900   32.6250   42.1770 O.3   1142  XLM1142    -0.2177
     21  O5'        6.9960   33.4420   42.7330 O.3   1142  XLM1142    -0.3256
     22  O6'        8.0150   33.2620   40.0040 O.3   1142  XLM1142    -0.2176
@<TRIPOS>BOND
     1    22    15    1
     2    15    14    1
     3    20    13    1
     4    14    13    1
     5    14    21    1
     6    13    12    1
     7    21    10    1
     8    18    11    1
     9    12    19    1
    10    12    11    1
    11    19     1    1
    12    10    11    1
    13    10    17    1
    14     9     1    1
    15     9     5    1
    16     1     2    1
    17     2     6    1
    18     2     3    1
    19    16    17    1
    20     5     4    1
    21     4     3    1
    22     4     8    1
    23     3     7    1
