@<TRIPOS>MOLECULE
2bn0_BGC_A_1.pdb
 12 12 0 0 0
SMALL
GASTEIGER

@<TRIPOS>ATOM
      1  C2        15.9870   44.1770   37.8930 C.3   1145  BGC1145     0.2434
      2  C3        15.1940   44.9030   36.8100 C.3   1145  BGC1145     0.2199
      3  C4        14.2810   43.9460   36.0290 C.3   1145  BGC1145     0.2144
      4  C5        13.5450   42.9480   36.9360 C.3   1145  BGC1145     0.1836
      5  C6        12.9170   41.8140   36.1580 C.3   1145  BGC1145     0.2142
      6  C1        15.0740   43.2890   38.7180 C.3   1145  BGC1145     0.3024
      7  O1        15.8240   42.5920   39.6480 O.3   1145  BGC1145    -0.1869
      8  O2        16.6280   45.1220   38.7320 O.3   1145  BGC1145    -0.2148
      9  O3        16.1320   45.4840   35.8910 O.3   1145  BGC1145    -0.2174
     10  O4        13.3260   44.7100   35.3080 O.3   1145  BGC1145    -0.2176
     11  O5        14.4570   42.3360   37.8600 O.3   1145  BGC1145    -0.3236
     12  O6        13.4670   40.5600   36.5460 O.3   1145  BGC1145    -0.2176
@<TRIPOS>BOND
     1    10     3    1
     2     9     2    1
     3     3     2    1
     4     3     4    1
     5     5    12    1
     6     5     4    1
     7     2     1    1
     8     4    11    1
     9    11     6    1
    10     1     6    1
    11     1     8    1
    12     6     7    1
