@<TRIPOS>MOLECULE
2bn2_PHE_A_1.pdb
 11 11 0 0 0
SMALL
GASTEIGER

@<TRIPOS>ATOM
      1  N         49.0440   34.7100  -10.7890 N.3    98  PHE98      -0.1241
      2  CA        50.5320   34.8020  -10.8470 C.3    98  PHE98       0.1605
      3  C         51.1760   34.3900   -9.5310 C.2    98  PHE98       0.2264
      4  O         50.5370   34.4460   -8.4800 O.2    98  PHE98      -0.2867
      5  CB        50.9600   36.2230  -11.2040 C.3    98  PHE98       0.0534
      6  CG        50.5380   37.2540  -10.2010 C.ar   98  PHE98      -0.0203
      7  CD1       51.2810   37.4640   -9.0420 C.ar   98  PHE98      -0.0042
      8  CD2       49.4040   38.0280  -10.4200 C.ar   98  PHE98      -0.0042
      9  CE1       50.9020   38.4240   -8.1160 C.ar   98  PHE98      -0.0003
     10  CE2       49.0170   38.9950   -9.4980 C.ar   98  PHE98      -0.0003
     11  CZ        49.7680   39.1920   -8.3420 C.ar   98  PHE98      -0.0000
@<TRIPOS>BOND
     1     5     2    1
     2     5     6    1
     3     2     1    1
     4     2     3    1
     5     8     6   ar
     6     8    10   ar
     7     6     7   ar
     8     3     4    2
     9    10    11   ar
    10     7     9   ar
    11    11     9   ar
