@<TRIPOS>MOLECULE
2bn2_TYR_A_1.pdb
 12 12 0 0 0
SMALL
GASTEIGER

@<TRIPOS>ATOM
      1  N         52.4480   34.0090   -9.5940 N.3    99  TYR99      -0.1241
      2  CA        53.1990   33.5550   -8.4170 C.3    99  TYR99       0.1605
      3  C         53.5600   34.6710   -7.4320 C.2    99  TYR99       0.2264
      4  O         54.2620   35.6230   -7.7840 O.2    99  TYR99      -0.2867
      5  CB        54.4700   32.8340   -8.8670 C.3    99  TYR99       0.0534
      6  CG        54.1870   31.5800   -9.6470 C.ar   99  TYR99      -0.0201
      7  CD1       53.7930   30.4190   -8.9920 C.ar   99  TYR99      -0.0009
      8  CD2       54.1980   31.5790  -11.0410 C.ar   99  TYR99      -0.0009
      9  CE1       53.4030   29.2980   -9.6920 C.ar   99  TYR99       0.0417
     10  CE2       53.8130   30.4500  -11.7560 C.ar   99  TYR99       0.0417
     11  CZ        53.4090   29.3190  -11.0660 C.ar   99  TYR99       0.1957
     12  OH        52.9400   28.2200  -11.7240 O.3    99  TYR99      -0.2866
@<TRIPOS>BOND
     1    10    11   ar
     2    10     8   ar
     3    12    11    1
     4    11     9   ar
     5     8     6   ar
     6     9     7   ar
     7     6     7   ar
     8     6     5    1
     9     1     2    1
    10     5     2    1
    11     2     3    1
    12     4     3    2
