@<TRIPOS>MOLECULE
2bn4_FMN_A_1.pdb
 31 33 0 0 0
SMALL
GASTEIGER

@<TRIPOS>ATOM
      1  N1        71.6370   11.8230  198.9360 N.2   751  FMN751     -0.2890
      2  C2        72.9490   12.1830  198.9220 C.1   751  FMN751      0.3669
      3  O2        73.7760   11.6000  199.6430 O.2   751  FMN751     -0.1744
      4  N3        73.2640   13.2190  198.0580 N.2   751  FMN751     -0.2300
      5  C4        72.3850   13.9150  197.2140 C.1   751  FMN751      0.2513
      6  O4        72.8450   14.8150  196.5010 O.2   751  FMN751     -0.2057
      7  C4A       71.0060   13.4870  197.2650 C.2   751  FMN751      0.2700
      8  N5        70.1140   14.1550  196.4270 N.2   751  FMN751     -0.3878
      9  C5A       68.8200   13.6780  196.5300 C.2   751  FMN751      0.1320
     10  C6        67.8450   14.3020  195.6880 C.2   751  FMN751      0.0250
     11  C7        66.5010   13.9030  195.6960 C.2   751  FMN751     -0.0238
     12  C7M       65.4900   14.5870  194.7830 C.3   751  FMN751      0.0308
     13  C8        66.0950   12.8500  196.5710 C.2   751  FMN751     -0.0280
     14  C8M       64.6680   12.3640  196.6360 C.3   751  FMN751      0.0304
     15  C9        66.9950   12.2550  197.3670 C.2   751  FMN751     -0.0041
     16  C9A       68.3630   12.6240  197.3870 C.3   751  FMN751      0.1497
     17  N10       69.3300   11.9860  198.2240 N.pl3 751  FMN751     -0.2691
     18  C10       70.7060   12.4230  198.1640 C.2   751  FMN751      0.2416
     19  C1'       68.8660   10.8910  199.1120 C.3   751  FMN751      0.1294
     20  C2'       68.3990   11.2240  200.5280 C.3   751  FMN751      0.2044
     21  O2'       69.4310   11.8230  201.3250 O.3   751  FMN751     -0.2185
     22  C3'       67.8880    9.9550  201.2540 C.3   751  FMN751      0.2164
     23  O3'       66.9540    9.1740  200.5050 O.3   751  FMN751     -0.2175
     24  C4'       67.2120   10.2190  202.6170 C.3   751  FMN751      0.2147
     25  O4'       66.7350    8.9880  203.1390 O.3   751  FMN751     -0.2176
     26  C5'       66.0560   11.2370  202.5380 C.3   751  FMN751      0.1892
     27  O5'       65.4510   11.4910  203.8240 O.3   751  FMN751     -0.2674
     28  P         64.2430   12.5050  204.0620 P.3   751  FMN751      0.5327
     29  O1P       63.1640   11.9170  203.2580 O.2   751  FMN751     -0.2224
     30  O2P       64.0750   12.4210  205.5100 O.3   751  FMN751     -0.1145
     31  O3P       64.7570   13.8080  203.6170 O.3   751  FMN751     -0.1145
@<TRIPOS>BOND
     1    12    11    1
     2    10    11    2
     3    10     9    1
     4    11    13    1
     5     8     9    2
     6     8     7    2
     7     6     5    2
     8     9    16    1
     9    13    14    1
    10    13    15    2
    11     5     7    1
    12     5     4    2
    13     7    18    1
    14    15    16    1
    15    16    17    1
    16     4     2    2
    17    18    17    1
    18    18     1    2
    19    17    19    1
    20     2     1    2
    21     2     3    2
    22    19    20    1
    23    23    22    1
    24    20    22    1
    25    20    21    1
    26    22    24    1
    27    26    24    1
    28    26    27    1
    29    24    25    1
    30    29    28    2
    31    31    28    1
    32    27    28    1
    33    28    30    1
