@<TRIPOS>MOLECULE
2bn4_NAP_A_1.pdb
 40 43 0 0 0
SMALL
GASTEIGER

@<TRIPOS>ATOM
      1  PA        62.3840    2.1480  184.1240 P.3   753  NAP753      0.2189
      2  O1A       61.3010    1.9840  183.0710 O.2   753  NAP753     -0.5170
      3  O2A       63.1500    0.9530  184.5890 O.3   753  NAP753     -0.4371
      4  O5B       63.5160    3.1720  183.7000 O.3   753  NAP753     -0.3112
      5  C5B       63.4510    3.8240  182.4480 C.3   753  NAP753      0.1813
      6  C4B       64.5010    3.3020  181.5110 C.3   753  NAP753      0.1820
      7  O4B       65.8330    3.4700  181.9930 O.3   753  NAP753     -0.3136
      8  C3B       64.4560    1.8370  181.1680 C.3   753  NAP753      0.2157
      9  O3B       64.6630    1.7730  179.7450 O.3   753  NAP753     -0.2175
     10  C2B       65.5580    1.2290  182.0050 C.3   753  NAP753      0.2314
     11  O2B       66.0290   -0.0330  181.4040 O.3   753  NAP753     -0.2630
     12  C1B       66.5740    2.2480  181.9410 C.3   753  NAP753      0.3158
     13  N9A       67.5690    2.2910  183.0340 N.pl3 753  NAP753     -0.1439
     14  C8A       67.7510    1.5760  184.1520 C.3   753  NAP753      0.3377
     15  N7A       68.8370    2.0050  184.8260 N.2   753  NAP753     -0.2095
     16  C5A       69.3000    2.9880  184.0840 C.2   753  NAP753      0.2526
     17  C6A       70.4300    3.7820  184.3110 C.2   753  NAP753      0.4393
     18  N6A       71.2170    3.6390  185.3490 N.pl3 753  NAP753      0.2180
     19  N1A       70.7240    4.7520  183.3980 N.2   753  NAP753      0.0021
     20  C2A       69.9570    4.9560  182.3010 C.3   753  NAP753      0.5254
     21  N3A       68.8710    4.2010  182.0630 N.2   753  NAP753     -0.0055
     22  C4A       68.5280    3.1950  182.9630 C.2   753  NAP753      0.3518
     23  O3        61.8280    3.0240  185.3570 O.3   753  NAP753     -0.2703
     24  PN        61.2630    4.5000  185.4690 P.3   753  NAP753      0.2189
     25  O1N       60.0610    4.5540  184.6270 O.2   753  NAP753     -0.5170
     26  O2N       62.4040    5.4300  185.1520 O.3   753  NAP753     -0.4371
     27  O5D       60.9590    4.3930  187.0240 O.3   753  NAP753     -0.3112
     28  C5D       60.3940    3.1700  187.6650 C.3   753  NAP753      0.1813
     29  C4D       60.2080    3.2440  189.1640 C.3   753  NAP753      0.1797
     30  O4D       61.2750    2.5010  189.7800 O.3   753  NAP753     -0.3336
     31  C3D       60.2440    4.6670  189.8440 C.3   753  NAP753      0.2156
     32  O3D       59.1900    4.8070  190.8240 O.3   753  NAP753     -0.2176
     33  C2D       61.6280    4.7470  190.4300 C.3   753  NAP753      0.2298
     34  O2D       61.7150    5.6300  191.5440 O.3   753  NAP753     -0.2160
     35  C1D       61.9500    3.3250  190.7650 C.3   753  NAP753      0.2397
     36  N1N       63.3620    2.8630  190.6430 N.3   753  NAP753     -0.0972
     37  P2B       66.2670   -1.4490  182.0810 P.3   753  NAP753      0.5328
     38  O1X       65.9130   -1.2560  183.5180 O.3   753  NAP753     -0.1145
     39  O2X       67.6860   -1.7900  181.8410 O.3   753  NAP753     -0.1145
     40  O3X       65.2570   -2.2120  181.3430 O.2   753  NAP753     -0.2224
@<TRIPOS>BOND
     1     9     8    1
     2     8     6    1
     3     8    10    1
     4    40    37    2
     5    11    10    1
     6    11    37    1
     7     6     7    1
     8     6     5    1
     9    39    37    1
    10    12     7    1
    11    12    10    1
    12    12    13    1
    13    21    20    1
    14    21    22    2
    15    37    38    1
    16    20    19    1
    17     5     4    1
    18    22    13    1
    19    22    16    1
    20    13    14    1
    21     2     1    2
    22    19    17    2
    23     4     1    1
    24    16    17    1
    25    16    15    2
    26     1     3    1
    27     1    23    1
    28    14    15    1
    29    17    18    1
    30    25    24    2
    31    26    24    1
    32    23    24    1
    33    24    27    1
    34    27    28    1
    35    28    29    1
    36    29    30    1
    37    29    31    1
    38    30    35    1
    39    31    33    1
    40    31    32    1
    41    33    35    1
    42    33    34    1
    43    36    35    1
