@<TRIPOS>MOLECULE
2bnd_UDP_A_1.pdb
 25 26 0 0 0
SMALL
GASTEIGER

@<TRIPOS>ATOM
      1  N1        75.8550   62.0200   -0.7270 N.am  1242  UDP1242    -0.1766
      2  C2        74.7010   61.8720   -1.5200 C.1   1242  UDP1242     0.2845
      3  N3        73.5040   61.8900   -0.8030 N.2   1242  UDP1242    -0.2452
      4  C4        73.3490   61.9290    0.5910 C.1   1242  UDP1242     0.2182
      5  C5        74.5730   62.0440    1.3410 C.2   1242  UDP1242     0.1242
      6  C6        75.7470   62.0940    0.6790 C.2   1242  UDP1242     0.0929
      7  O2        74.7300   61.8610   -2.7440 O.2   1242  UDP1242    -0.1918
      8  O4        72.2230   61.8290    1.0730 O.2   1242  UDP1242    -0.2085
      9  C1'       77.1650   62.0880   -1.4500 C.3   1242  UDP1242     0.2401
     10  C2'       77.5430   63.4680   -2.0040 C.3   1242  UDP1242     0.2319
     11  O2'       78.2460   63.3510   -3.2120 O.3   1242  UDP1242    -0.2157
     12  C3'       78.3660   64.0780   -0.8730 C.3   1242  UDP1242     0.2158
     13  C4'       79.0400   62.8640   -0.2480 C.3   1242  UDP1242     0.1799
     14  O4'       78.2410   61.6970   -0.6250 O.3   1242  UDP1242    -0.3320
     15  O3'       79.3430   65.0080   -1.3220 O.3   1242  UDP1242    -0.2175
     16  C5'       79.1390   62.9210    1.2460 C.3   1242  UDP1242     0.1813
     17  O5'       79.8490   64.0680    1.6020 O.3   1242  UDP1242    -0.3111
     18  PA        79.1280   65.3470    2.1980 P.3   1242  UDP1242     0.2231
     19  O1A       79.5110   66.5480    1.4000 O.2   1242  UDP1242    -0.5169
     20  O2A       77.6970   65.0640    2.4920 O.3   1242  UDP1242    -0.4370
     21  O3A       79.9200   65.2770    3.5950 O.3   1242  UDP1242    -0.2261
     22  PB        80.5420   66.3500    4.5520 P.3   1242  UDP1242     0.5373
     23  O1B       81.9650   66.1770    4.8340 O.3   1242  UDP1242    -0.1143
     24  O2B       79.6270   66.3770    5.6490 O.3   1242  UDP1242    -0.1143
     25  O3B       80.3900   67.6720    3.6760 O.2   1242  UDP1242    -0.2221
@<TRIPOS>BOND
     1    11    10    1
     2     7     2    2
     3    10     9    1
     4    10    12    1
     5     2     3    2
     6     2     1   am
     7     9     1    1
     8     9    14    1
     9    15    12    1
    10    12    13    1
    11     3     4    2
    12     1     6    1
    13    14    13    1
    14    13    16    1
    15     4     8    2
    16     4     5    1
    17     6     5    2
    18    16    17    1
    19    19    18    2
    20    17    18    1
    21    18    20    1
    22    18    21    1
    23    21    22    1
    24    25    22    2
    25    22    23    1
    26    22    24    1
