@<TRIPOS>MOLECULE
2bne_U5P_A_1.pdb
 21 22 0 0 0
SMALL
GASTEIGER

@<TRIPOS>ATOM
      1  N1        86.1420   56.2950    0.9120 N.am  1242  U5P1242    -0.1766
      2  C2        86.3950   55.1630    1.7120 C.1   1242  U5P1242     0.2845
      3  N3        86.7560   54.0280    1.0040 N.2   1242  U5P1242    -0.2452
      4  C4        86.9220   53.9040   -0.3760 C.1   1242  U5P1242     0.2182
      5  C5        86.7160   55.1210   -1.1320 C.2   1242  U5P1242     0.1242
      6  C6        86.3430   56.2430   -0.4800 C.2   1242  U5P1242     0.0929
      7  O2        86.3000   55.1660    2.9390 O.2   1242  U5P1242    -0.1918
      8  O4        87.1670   52.7980   -0.8490 O.2   1242  U5P1242    -0.2085
      9  C1'       85.5000   57.4470    1.5920 C.3   1242  U5P1242     0.2401
     10  C2'       86.4510   58.5100    2.1320 C.3   1242  U5P1242     0.2319
     11  O2'       85.9560   59.0670    3.3320 O.3   1242  U5P1242    -0.2157
     12  C3'       86.5230   59.4960    0.9770 C.3   1242  U5P1242     0.2158
     13  C4'       85.1300   59.4220    0.3780 C.3   1242  U5P1242     0.1801
     14  O3'       86.8350   60.8150    1.3960 O.3   1242  U5P1242    -0.2175
     15  O4'       84.6060   58.1170    0.7480 O.3   1242  U5P1242    -0.3320
     16  C5'       85.0910   59.5040   -1.1150 C.3   1242  U5P1242     0.1859
     17  O5'       85.6540   60.7130   -1.5320 O.3   1242  U5P1242    -0.2675
     18  P         87.0210   60.7690   -2.3180 P.3   1242  U5P1242     0.5327
     19  O1P       87.8820   61.8300   -1.7150 O.3   1242  U5P1242    -0.1145
     20  O2P       87.5690   59.4050   -2.5590 O.3   1242  U5P1242    -0.1145
     21  O3P       86.3720   61.2950   -3.7040 O.2   1242  U5P1242    -0.2224
@<TRIPOS>BOND
     1    21    18    2
     2    20    18    1
     3    18    19    1
     4    18    17    1
     5    17    16    1
     6     5     6    2
     7     5     4    1
     8    16    13    1
     9     8     4    2
    10     6     1    1
    11     4     3    2
    12    13    15    1
    13    13    12    1
    14    15     9    1
    15     1     9    1
    16     1     2   am
    17    12    14    1
    18    12    10    1
    19     3     2    2
    20     9    10    1
    21     2     7    2
    22    10    11    1
