@<TRIPOS>MOLECULE
2bnf_UTP_A_1.pdb
 29 30 0 0 0
SMALL
GASTEIGER

@<TRIPOS>ATOM
      1  PA       -25.8720    4.9570  -34.1090 P.3   1242  UTP1242     0.2189
      2  O1A      -25.8970    6.4190  -34.3370 O.3   1242  UTP1242    -0.4371
      3  O2A      -24.7340    4.1230  -34.6020 O.2   1242  UTP1242    -0.5170
      4  O3A      -27.2350    4.2790  -34.6300 O.3   1242  UTP1242    -0.2700
      5  O5'      -26.0910    4.6360  -32.6010 O.3   1242  UTP1242    -0.3112
      6  PB       -27.7950    3.9600  -36.0600 P.3   1242  UTP1242     0.2277
      7  O1B      -27.9880    2.5570  -36.3600 O.3   1242  UTP1242    -0.4368
      8  O2B      -27.0350    4.7570  -36.9680 O.2   1242  UTP1242    -0.5168
      9  O3B      -29.2330    4.5880  -35.8280 O.3   1242  UTP1242    -0.2258
     10  PG       -29.9170    5.8850  -36.4120 P.3   1242  UTP1242     0.5373
     11  O1G      -29.3320    7.0770  -35.6490 O.3   1242  UTP1242    -0.1143
     12  O2G      -29.5370    5.8480  -37.8700 O.2   1242  UTP1242    -0.2221
     13  O3G      -31.4140    5.7750  -36.1950 O.3   1242  UTP1242    -0.1143
     14  C5'      -25.5730    3.4320  -32.0620 C.3   1242  UTP1242     0.1813
     15  C4'      -24.7480    3.7310  -30.8600 C.3   1242  UTP1242     0.1799
     16  O4'      -23.3630    3.9000  -31.2370 O.3   1242  UTP1242    -0.3320
     17  C1'      -22.7240    4.7260  -30.2640 C.3   1242  UTP1242     0.2401
     18  C2'      -23.8510    5.1840  -29.3130 C.3   1242  UTP1242     0.2319
     19  O2'      -23.8800    4.3730  -28.1650 O.3   1242  UTP1242    -0.2157
     20  C3'      -25.0830    5.0200  -30.1730 C.3   1242  UTP1242     0.2158
     21  O3'      -26.2850    4.8850  -29.4310 O.3   1242  UTP1242    -0.2175
     22  N1       -21.9500    5.8280  -30.9000 N.am  1242  UTP1242    -0.1766
     23  C6       -21.9950    6.0630  -32.2820 C.2   1242  UTP1242     0.0929
     24  C2       -21.0770    6.5880  -30.0770 C.1   1242  UTP1242     0.2845
     25  O2       -21.1920    6.6570  -28.8660 O.2   1242  UTP1242    -0.1918
     26  N3       -20.2170    7.4370  -30.7690 N.2   1242  UTP1242    -0.2452
     27  C4       -20.2480    7.7550  -32.1310 C.1   1242  UTP1242     0.2182
     28  O4       -19.6340    8.7630  -32.5340 O.2   1242  UTP1242    -0.2085
     29  C5       -21.1960    6.9720  -32.9080 C.2   1242  UTP1242     0.1242
@<TRIPOS>BOND
     1    12    10    2
     2     8     6    2
     3    10    13    1
     4    10     9    1
     5    10    11    1
     6     7     6    1
     7     6     9    1
     8     6     4    1
     9     4     1    1
    10     3     1    2
    11     2     1    1
    12     1     5    1
    13    29    23    2
    14    29    27    1
    15     5    14    1
    16    28    27    2
    17    23    22    1
    18    27    26    2
    19    14    15    1
    20    16    15    1
    21    16    17    1
    22    22    17    1
    23    22    24   am
    24    15    20    1
    25    26    24    2
    26    17    18    1
    27    20    21    1
    28    20    18    1
    29    24    25    2
    30    18    19    1
