@<TRIPOS>MOLECULE
2bnj_XYP_A_1.pdb
 10 10 0 0 0
SMALL
GASTEIGER

@<TRIPOS>ATOM
      1  O4A       26.0660   -4.7570   21.6260 O.3   1303  XYP1303    -0.1869
      2  C1B       25.6100   -3.4520   21.7900 C.3   1303  XYP1303     0.3024
      3  C2B       24.2380   -3.3100   21.1590 C.3   1303  XYP1303     0.2434
      4  C3B       23.6090   -1.9890   21.5980 C.3   1303  XYP1303     0.2199
      5  C4B       23.7120   -1.8830   23.1150 C.3   1303  XYP1303     0.2143
      6  C5B       25.1770   -2.0130   23.5220 C.3   1303  XYP1303     0.1804
      7  O2B       24.2470   -3.4110   19.7410 O.3   1303  XYP1303    -0.2148
      8  O3B       22.2400   -1.8800   21.2180 O.3   1303  XYP1303    -0.2174
      9  O4B       23.1560   -0.6380   23.5250 O.3   1303  XYP1303    -0.2176
     10  O5B       25.5460   -3.3270   23.1480 O.3   1303  XYP1303    -0.3237
@<TRIPOS>BOND
     1     7     3    1
     2     3     4    1
     3     3     2    1
     4     8     4    1
     5     4     5    1
     6     1     2    1
     7     2    10    1
     8     5     6    1
     9     5     9    1
    10    10     6    1
