@<TRIPOS>MOLECULE
2bnp_MST_A_1.pdb
 16 16 0 0 0
SMALL
GASTEIGER

@<TRIPOS>ATOM
      1  N1        98.0800   28.5600   77.9090 N.2   1285  MST1285    -0.2528
      2  C2        98.2090   28.3260   79.2360 C.1   1285  MST1285     0.1916
      3  S7        97.3270   29.0900   80.4150 S.3   1285  MST1285    -0.0157
      4  C8        97.6140   27.9950   81.8240 C.3   1285  MST1285     0.0872
      5  N3        99.0590   27.4320   79.7990 N.2   1285  MST1285    -0.2528
      6  C4        99.8910   26.6790   79.0510 C.1   1285  MST1285     0.2412
      7  N9       100.7270   25.7760   79.6900 N.pl3 1285  MST1285    -0.1541
      8  C10      100.6080   25.2350   81.1380 C.3   1285  MST1285     0.0884
      9  C11      101.0510   23.7460   81.1620 C.3   1285  MST1285     0.0225
     10  C12       99.1780   25.3670   81.7080 C.3   1285  MST1285     0.0225
     11  C13      101.5690   26.0380   82.0290 C.3   1285  MST1285     0.0225
     12  N5        99.8110   26.9030   77.6830 N.2   1285  MST1285    -0.2439
     13  C6        98.9170   27.8190   77.1290 C.1   1285  MST1285     0.2413
     14  N14       98.8720   27.9940   75.8050 N.pl3 1285  MST1285    -0.1506
     15  C15       97.5990   28.0370   75.1070 C.3   1285  MST1285     0.1263
     16  C16       97.7690   28.8380   73.8310 C.3   1285  MST1285     0.0261
@<TRIPOS>BOND
     1    16    15    1
     2    15    14    1
     3    14    13    1
     4    13    12    2
     5    13     1    2
     6    12     6    2
     7     1     2    2
     8     6     7    1
     9     6     5    2
    10     2     5    2
    11     2     3    1
    12     7     8    1
    13     3     4    1
    14     8     9    1
    15     8    10    1
    16     8    11    1
