@<TRIPOS>MOLECULE
2bnp_U10_B_1.pdb
 38 38 0 0 0
SMALL
GASTEIGER

@<TRIPOS>ATOM
      1  C1        81.5890   33.1670   79.8510 C.2   1306  U101306     0.0145
      2  C2        82.3400   32.9990   78.6900 C.2   1306  U101306     0.1987
      3  C3        82.0670   33.7910   77.5770 C.3   1306  U101306     0.2104
      4  C4        81.0460   34.7540   77.6330 C.3   1306  U101306     0.2105
      5  C5        80.2780   34.9000   78.7900 C.2   1306  U101306     0.1990
      6  C6        80.5490   34.1090   79.9080 C.2   1306  U101306     0.0182
      7  C1M       81.9130   32.2900   81.0330 C.3   1306  U101306     0.0339
      8  C3M       83.6750   33.3150   76.0080 C.3   1306  U101306     0.1747
      9  C4M       81.5680   35.8850   75.6880 C.3   1306  U101306     0.1747
     10  C7        79.7640   34.3510   81.2020 C.3   1306  U101306     0.0544
     11  C8        80.5880   35.0360   82.2930 C.2   1306  U101306    -0.0298
     12  C9        80.5010   36.4610   82.6920 C.2   1306  U101306    -0.0475
     13  C10       79.4830   37.4390   82.1710 C.3   1306  U101306     0.0260
     14  C11       81.4910   36.9530   83.7210 C.3   1306  U101306     0.0264
     15  C12       80.8000   37.2630   85.0400 C.3   1306  U101306     0.0297
     16  C13       80.3520   35.9770   85.6840 C.2   1306  U101306    -0.0343
     17  C14       80.5750   35.6880   87.1080 C.2   1306  U101306    -0.0482
     18  C15       81.5250   36.4860   87.9580 C.3   1306  U101306     0.0260
     19  C16       79.8190   34.5780   87.7580 C.3   1306  U101306     0.0217
     20  C17       78.8830   35.1700   88.8050 C.3   1306  U101306     0.0043
     21  C18       77.4520   35.2220   88.3370 C.3   1306  U101306     0.0003
     22  C19       76.4880   36.0890   89.0400 C.3   1306  U101306     0.0000
     23  C20       76.7660   36.6640   90.4010 C.3   1306  U101306     0.0000
     24  C21       75.1870   36.4410   88.3730 C.3   1306  U101306     0.0000
     25  C22       74.0210   35.6700   88.9610 C.3   1306  U101306     0.0000
     26  C23       72.8000   35.9770   88.1260 C.3   1306  U101306     0.0000
     27  C24       71.4960   35.3680   88.4030 C.3   1306  U101306     0.0000
     28  C25       71.4280   33.9350   88.8860 C.3   1306  U101306     0.0000
     29  C26       70.2540   36.2230   88.1770 C.3   1306  U101306     0.0000
     30  C27       69.0150   35.6830   88.9000 C.3   1306  U101306     0.0000
     31  C28       67.7620   36.4300   88.4970 C.3   1306  U101306     0.0000
     32  C29       66.5250   35.6870   88.1710 C.3   1306  U101306     0.0000
     33  C30       65.5800   36.2400   87.1210 C.3   1306  U101306     0.0000
     34  C31       66.1900   34.3730   88.8850 C.3   1306  U101306     0.0000
     35  O2        83.0820   32.0160   78.5660 O.2   1306  U101306    -0.2890
     36  O3        82.3440   33.3090   76.4760 O.3   1306  U101306    -0.3429
     37  O4        80.6610   35.3150   76.5960 O.3   1306  U101306    -0.3429
     38  O5        79.3940   35.7700   78.8290 O.2   1306  U101306    -0.2890
@<TRIPOS>BOND
     1     9    37    1
     2     8    36    1
     3    36     3    1
     4    37     4    1
     5     3     4    1
     6     3     2    1
     7     4     5    1
     8    35     2    2
     9     2     1    1
    10     5    38    2
    11     5     6    1
    12     1     6    2
    13     1     7    1
    14     6    10    1
    15    10    11    1
    16    13    12    1
    17    11    12    2
    18    12    14    1
    19    14    15    1
    20    15    16    1
    21    16    17    2
    22    17    19    1
    23    17    18    1
    24    33    32    1
    25    19    20    1
    26    26    27    1
    27    26    25    1
    28    32    31    1
    29    32    34    1
    30    29    27    1
    31    29    30    1
    32    21    20    1
    33    21    22    1
    34    24    25    1
    35    24    22    1
    36    27    28    1
    37    31    30    1
    38    22    23    1
