@<TRIPOS>MOLECULE
2bns_U10_B_1.pdb
 38 38 0 0 0
SMALL
GASTEIGER

@<TRIPOS>ATOM
      1  C1        81.6610   33.1150   79.4260 C.2   1306  U101306     0.0198
      2  C2        82.2180   32.7600   78.2060 C.2   1306  U101306     0.2282
      3  C3        81.8720   33.4700   77.0540 C.2   1306  U101306     0.2140
      4  C4        80.9650   34.5470   77.1320 C.2   1306  U101306     0.2140
      5  C5        80.3910   34.8920   78.3650 C.2   1306  U101306     0.2285
      6  C6        80.7440   34.1730   79.5150 C.2   1306  U101306     0.0235
      7  C1M       82.0580   32.3070   80.6190 C.3   1306  U101306     0.0343
      8  C3M       83.6460   33.3270   75.5430 C.3   1306  U101306     0.2528
      9  C4M       81.4230   35.6380   75.1210 C.3   1306  U101306     0.2528
     10  C7        79.8850   34.3470   80.7620 C.3   1306  U101306     0.0548
     11  C8        80.7010   34.9060   81.8970 C.2   1306  U101306    -0.0298
     12  C9        80.6430   36.2990   82.3530 C.2   1306  U101306    -0.0475
     13  C10       79.7140   37.3170   81.7850 C.3   1306  U101306     0.0260
     14  C11       81.5690   36.7040   83.4600 C.3   1306  U101306     0.0264
     15  C12       80.7890   37.2940   84.6330 C.3   1306  U101306     0.0297
     16  C13       80.1020   36.2110   85.4190 C.2   1306  U101306    -0.0342
     17  C14       80.6000   35.6800   86.6900 C.2   1306  U101306    -0.0478
     18  C15       81.7000   36.3190   87.4690 C.3   1306  U101306     0.0260
     19  C16       79.9450   34.4470   87.2520 C.3   1306  U101306     0.0263
     20  C17       79.0210   34.8400   88.4010 C.3   1306  U101306     0.0297
     21  C18       77.6750   35.2640   87.8810 C.2   1306  U101306    -0.0342
     22  C19       76.7200   36.0030   88.7210 C.2   1306  U101306    -0.0478
     23  C20       76.9990   36.3200   90.1590 C.3   1306  U101306     0.0260
     24  C21       75.4190   36.4710   88.1270 C.3   1306  U101306     0.0263
     25  C22       74.2790   35.6120   88.6450 C.3   1306  U101306     0.0297
     26  C23       72.9890   36.0490   87.9860 C.2   1306  U101306    -0.0343
     27  C24       71.7470   35.2760   88.0770 C.2   1306  U101306    -0.0482
     28  C25       71.7390   33.8690   88.6090 C.3   1306  U101306     0.0260
     29  C26       70.4670   35.9370   87.5950 C.3   1306  U101306     0.0217
     30  C27       69.3290   35.8090   88.6080 C.3   1306  U101306     0.0043
     31  C28       68.0630   36.4460   88.0570 C.3   1306  U101306     0.0003
     32  C29       66.7660   35.7380   88.0800 C.3   1306  U101306     0.0000
     33  C30       65.6950   36.0780   87.0760 C.3   1306  U101306     0.0000
     34  C31       66.5100   34.6590   89.1110 C.3   1306  U101306     0.0000
     35  O2        83.1400   31.9300   78.1680 O.2   1306  U101306    -0.2836
     36  O3        82.3150   33.0740   75.9610 O.2   1306  U101306    -0.4652
     37  O4        80.5450   35.0980   76.0930 O.2   1306  U101306    -0.4652
     38  O5        79.3090   35.5030   78.3710 O.2   1306  U101306    -0.2835
@<TRIPOS>BOND
     1     9    37    1
     2     8    36    1
     3    36     3    1
     4    37     4    1
     5     3     4    2
     6     3     2    1
     7     4     5    1
     8    35     2    2
     9     2     1    1
    10     5    38    2
    11     5     6    1
    12     1     6    2
    13     1     7    1
    14     6    10    1
    15    10    11    1
    16    13    12    1
    17    11    12    2
    18    12    14    1
    19    14    15    1
    20    15    16    1
    21    16    17    2
    22    17    19    1
    23    17    18    1
    24    33    32    1
    25    19    20    1
    26    29    27    1
    27    29    30    1
    28    21    20    1
    29    21    22    2
    30    26    27    2
    31    26    25    1
    32    31    32    1
    33    31    30    1
    34    27    28    1
    35    32    34    1
    36    24    25    1
    37    24    22    1
    38    22    23    1
