@<TRIPOS>MOLECULE
2bns_MST_A_1.pdb
 16 16 0 0 0
SMALL
GASTEIGER

@<TRIPOS>ATOM
      1  N1        98.3610   28.4490   77.7410 N.2   1285  MST1285    -0.2528
      2  C2        98.4330   28.2150   79.0600 C.1   1285  MST1285     0.1916
      3  S7        97.4900   29.0680   80.1460 S.3   1285  MST1285    -0.0157
      4  C8        97.8480   28.1790   81.6670 C.3   1285  MST1285     0.0872
      5  N3        99.2410   27.2890   79.6230 N.2   1285  MST1285    -0.2528
      6  C4       100.0470   26.5280   78.8650 C.1   1285  MST1285     0.2412
      7  N9       100.8460   25.5950   79.4720 N.pl3 1285  MST1285    -0.1541
      8  C10      100.7190   25.0980   80.9100 C.3   1285  MST1285     0.0884
      9  C11      101.4310   23.7440   81.0530 C.3   1285  MST1285     0.0225
     10  C12       99.2450   24.9610   81.3140 C.3   1285  MST1285     0.0225
     11  C13      101.3880   26.1000   81.8530 C.3   1285  MST1285     0.0225
     12  N5       100.0010   26.7520   77.5120 N.2   1285  MST1285    -0.2439
     13  C6        99.1610   27.6970   76.9620 C.1   1285  MST1285     0.2413
     14  N14       99.1040   27.9220   75.6620 N.pl3 1285  MST1285    -0.1506
     15  C15       97.8310   28.1680   74.9710 C.3   1285  MST1285     0.1263
     16  C16       98.0660   29.1610   73.8370 C.3   1285  MST1285     0.0261
@<TRIPOS>BOND
     1    16    15    1
     2    15    14    1
     3    14    13    1
     4    13    12    2
     5    13     1    2
     6    12     6    2
     7     1     2    2
     8     6     7    1
     9     6     5    2
    10     2     5    2
    11     2     3    1
    12     7     8    1
    13     3     4    1
    14     8     9    1
    15     8    10    1
    16     8    11    1
