@<TRIPOS>MOLECULE
2bo4_FLC_A_1.pdb
 13 12 0 0 0
SMALL
GASTEIGER

@<TRIPOS>ATOM
      1  CAC       87.9430   -2.3560   42.4440 C.2   1382  FLC1382     0.3680
      2  CA        87.3510   -2.3750   41.0680 C.3   1382  FLC1382     0.1560
      3  CB        85.8300   -2.1700   41.0840 C.3   1382  FLC1382     0.2402
      4  CBC       85.1930   -2.5880   42.4120 C.2   1382  FLC1382     0.3927
      5  CG        85.4550   -0.7180   40.7060 C.3   1382  FLC1382     0.1560
      6  CGC       84.1510   -0.6060   39.9280 C.2   1382  FLC1382     0.3680
      7  OA1       88.7230   -3.2740   42.7910 O.co2 1382  FLC1382    -0.2455
      8  OA2       87.6140   -1.3980   43.1800 O.co2 1382  FLC1382    -0.2455
      9  OB1       84.7070   -1.7710   43.2570 O.co2 1382  FLC1382    -0.2429
     10  OB2       85.1790   -3.8180   42.6320 O.co2 1382  FLC1382    -0.2429
     11  OG1       83.3440    0.2770   40.2400 O.co2 1382  FLC1382    -0.2455
     12  OG2       83.9050   -1.3790   38.9820 O.co2 1382  FLC1382    -0.2455
     13  OHB       85.3820   -3.1190   40.1090 O.3   1382  FLC1382    -0.2129
@<TRIPOS>BOND
     1    12     6   ar
     2     6    11   ar
     3     6     5    1
     4    13     3    1
     5     5     3    1
     6     2     3    1
     7     2     1    1
     8     3     4    1
     9     4    10   ar
    10     4     9   ar
    11     1     7   ar
    12     1     8   ar
