@<TRIPOS>MOLECULE
2bo7_GDP_A_1.pdb
 28 30 0 0 0
SMALL
GASTEIGER

@<TRIPOS>ATOM
      1  PB        91.4510   34.4790   22.1270 P.3   1383  GDP1383     0.5373
      2  O1B       91.4030   33.3130   21.1300 O.2   1383  GDP1383    -0.2221
      3  O2B       92.4440   35.5640   21.6540 O.3   1383  GDP1383    -0.1143
      4  O3B       90.0380   35.0360   22.2830 O.3   1383  GDP1383    -0.1143
      5  O3A       92.1610   33.9270   23.4690 O.3   1383  GDP1383    -0.2261
      6  PA        91.4860   33.8690   24.8610 P.3   1383  GDP1383     0.2231
      7  O1A       90.1300   34.5480   24.8910 O.2   1383  GDP1383    -0.5169
      8  O2A       92.4360   34.3880   25.9440 O.3   1383  GDP1383    -0.4370
      9  O5'       91.4560   32.2780   25.0050 O.3   1383  GDP1383    -0.3111
     10  C5'       90.4700   31.4170   24.4540 C.3   1383  GDP1383     0.1813
     11  C4'       89.8340   30.5860   25.5650 C.3   1383  GDP1383     0.1799
     12  O4'       90.7780   29.6810   26.1270 O.3   1383  GDP1383    -0.3326
     13  C3'       89.3520   31.4840   26.6860 C.3   1383  GDP1383     0.2158
     14  O3'       88.1100   30.9260   27.1190 O.3   1383  GDP1383    -0.2175
     15  C2'       90.4260   31.3610   27.7500 C.3   1383  GDP1383     0.2310
     16  O2'       89.8930   31.5410   29.0370 O.3   1383  GDP1383    -0.2158
     17  C1'       90.8780   29.9300   27.5470 C.3   1383  GDP1383     0.2293
     18  N9        92.2600   29.6490   27.9640 N.pl3 1383  GDP1383    -0.2354
     19  C8        93.3770   30.3300   27.6280 C.3   1383  GDP1383     0.2246
     20  N7        94.4690   29.7220   28.1740 N.2   1383  GDP1383    -0.2322
     21  C5        94.0530   28.6260   28.8260 C.2   1383  GDP1383     0.2182
     22  C6        94.6880   27.5750   29.6220 C.1   1383  GDP1383     0.2372
     23  O6        95.9220   27.6080   29.8130 O.2   1383  GDP1383    -0.2069
     24  N1        93.8820   26.6390   30.1480 N.2   1383  GDP1383    -0.2485
     25  C2        92.5350   26.6400   29.9800 C.1   1383  GDP1383     0.2531
     26  N2        91.7710   25.6790   30.5550 N.pl3 1383  GDP1383    -0.0226
     27  N3        91.8990   27.5950   29.2600 N.2   1383  GDP1383    -0.3074
     28  C4        92.5950   28.5860   28.6840 C.2   1383  GDP1383     0.2300
@<TRIPOS>BOND
     1     2     1    2
     2     3     1    1
     3     1     4    1
     4     1     5    1
     5     5     6    1
     6    10     9    1
     7    10    11    1
     8     6     7    2
     9     6     9    1
    10     6     8    1
    11    11    12    1
    12    11    13    1
    13    12    17    1
    14    13    14    1
    15    13    15    1
    16    17    15    1
    17    17    18    1
    18    19    18    1
    19    19    20    1
    20    15    16    1
    21    18    28    1
    22    20    21    2
    23    28    21    1
    24    28    27    2
    25    21    22    1
    26    27    25    2
    27    22    23    2
    28    22    24    2
    29    25    24    2
    30    25    26    1
