@<TRIPOS>MOLECULE
2bo8_GDX_A_1.pdb
 39 42 0 0 0
SMALL
GASTEIGER

@<TRIPOS>ATOM
      1  N2        90.8440   25.1750   30.9830 N.pl3 400  GDX400     -0.0226
      2  C2        91.6010   26.1330   30.4280 C.1   400  GDX400      0.2531
      3  N1        92.9790   26.1350   30.6440 N.2   400  GDX400     -0.2485
      4  N3        91.0690   27.0990   29.6770 N.2   400  GDX400     -0.3074
      5  C4        91.8360   28.0670   29.1350 C.2   400  GDX400      0.2300
      6  C5        93.2210   28.0910   29.3320 C.2   400  GDX400      0.2182
      7  C6        93.7910   27.0840   30.1130 C.1   400  GDX400      0.2372
      8  O6        94.9680   27.0140   30.3960 O.2   400  GDX400     -0.2069
      9  N7        93.6940   29.1580   28.6820 N.2   400  GDX400     -0.2322
     10  C8        92.6630   29.7400   28.0960 C.3   400  GDX400      0.2246
     11  N9        91.5340   29.0900   28.3710 N.pl3 400  GDX400     -0.2354
     12  C1D       90.1480   29.4040   27.9270 C.3   400  GDX400      0.2293
     13  C2D       89.7140   30.8830   28.0840 C.3   400  GDX400      0.2310
     14  O2D       89.1880   31.2080   29.3560 O.3   400  GDX400     -0.2158
     15  C3D       88.6580   31.0160   27.0200 C.3   400  GDX400      0.2158
     16  O3D       87.4470   30.4550   27.5160 O.3   400  GDX400     -0.2175
     17  C4D       89.2570   30.1830   25.8930 C.3   400  GDX400      0.1799
     18  O4D       90.1840   29.2610   26.5200 O.3   400  GDX400     -0.3326
     19  C5D       90.0460   30.9320   24.8410 C.3   400  GDX400      0.1813
     20  O5D       90.8980   31.9130   25.5230 O.3   400  GDX400     -0.3112
     21  PA        91.1830   33.3420   24.9530 P.3   400  GDX400      0.2189
     22  O1A       92.2930   33.9920   25.6730 O.3   400  GDX400     -0.4371
     23  O2A       89.8980   34.0660   25.1520 O.2   400  GDX400     -0.5170
     24  O3A       91.3730   32.9610   23.4030 O.3   400  GDX400     -0.2703
     25  PB        91.5630   33.8540   22.1660 P.3   400  GDX400      0.2208
     26  O2B       92.5090   34.9690   22.4510 O.3   400  GDX400     -0.4371
     27  O3B       90.2790   34.1110   21.4820 O.2   400  GDX400     -0.5170
     28  O1B       92.2990   32.8710   21.0370 O.3   400  GDX400     -0.2857
     29  C1'       91.6960   32.2150   19.9160 C.3   400  GDX400      0.2745
     30  O5'       92.6580   31.3550   19.2110 O.3   400  GDX400     -0.3201
     31  C5'       93.2260   30.4130   20.2810 C.3   400  GDX400      0.2147
     32  C6'       94.4660   29.6430   19.7750 C.2   400  GDX400      0.2394
     33  O6A       94.2360   28.5510   19.2130 O.2   400  GDX400     -0.2855
     34  C2'       90.5580   31.2810   20.3300 C.3   400  GDX400      0.2409
     35  O2'       90.1430   30.5850   19.1520 O.3   400  GDX400     -0.2149
     36  C3'       90.9990   30.2640   21.3140 C.3   400  GDX400      0.2202
     37  O3'       89.9010   29.4000   21.6590 O.3   400  GDX400     -0.2174
     38  C4'       92.1010   29.4490   20.7560 C.3   400  GDX400      0.2194
     39  O4'       92.5480   28.6700   21.8900 O.3   400  GDX400     -0.2172
@<TRIPOS>BOND
     1    35    34    1
     2    30    29    1
     3    30    31    1
     4    33    32    2
     5    32    31    1
     6    29    34    1
     7    29    28    1
     8    31    38    1
     9    34    36    1
    10    38    36    1
    11    38    39    1
    12    28    25    1
    13    36    37    1
    14    27    25    2
    15    25    26    1
    16    25    24    1
    17    24    21    1
    18    19    20    1
    19    19    17    1
    20    21    23    2
    21    21    20    1
    22    21    22    1
    23    17    18    1
    24    17    15    1
    25    18    12    1
    26    15    16    1
    27    15    13    1
    28    12    13    1
    29    12    11    1
    30    13    14    1
    31    10    11    1
    32    10     9    1
    33    11     5    1
    34     9     6    2
    35     5     6    1
    36     5     4    2
    37     6     7    1
    38     4     2    2
    39     7     8    2
    40     7     3    2
    41     2     3    2
    42     2     1    1
