@<TRIPOS>MOLECULE
2boh_IIA_B_1.pdb
 33 37 0 0 0
SMALL
GASTEIGER

@<TRIPOS>ATOM
      1  C1         2.2850    8.5850   25.9480 C.ar    1  IIA1        0.0015
      2  C2         3.4480    8.9570   25.1150 C.ar    1  IIA1        0.0172
      3  C3         4.0950    8.0100   24.1680 C.ar    1  IIA1        0.0603
      4  C4         3.5260    6.6310   24.0990 C.ar    1  IIA1        0.0174
      5  C5         2.3800    6.2500   24.9270 C.ar    1  IIA1        0.0015
      6  C6         1.7630    7.2180   25.8440 C.ar    1  IIA1        0.0001
      7  N7         5.1740    8.0190   23.2350 N.ar    1  IIA1       -0.3178
      8  C8         5.2550    6.7950   22.7150 C.ar    1  IIA1        0.1160
      9  C9         4.2750    5.9110   23.1780 C.ar    1  IIA1        0.0233
     10  C10        6.2700    6.3010   21.9400 C.2     1  IIA1        0.2806
     11  N11        5.8420    5.3110   21.1840 N.am    1  IIA1       -0.2021
     12  C12        6.8610    4.4620   20.6990 C.3     1  IIA1        0.0984
     13  C13        6.2680    3.0750   20.4830 C.3     1  IIA1        0.0390
     14  C14        7.2670    2.0940   19.8740 C.3     1  IIA1        0.0738
     15  N15        7.7790    2.6860   18.5870 N.3     1  IIA1       -0.2738
     16  C16        8.4250    4.0240   18.7440 C.3     1  IIA1        0.0738
     17  C17        7.4000    4.9710   19.3650 C.3     1  IIA1        0.0390
     18  C27        8.6540    1.7300   17.8630 C.3     1  IIA1        0.0576
     19  C28        9.3020    2.3550   16.6420 C.3     1  IIA1        0.0173
     20  C32        7.8180    0.5530   17.4320 C.3     1  IIA1        0.0173
     21  C37        6.1360    9.0320   22.7490 C.3     1  IIA1        0.1554
     22  C38        7.4030    9.1580   23.5570 C.ar    1  IIA1        0.1235
     23  N41        8.4150    9.9160   23.1230 N.ar    1  IIA1       -0.0794
     24  O42        9.4730    9.7320   24.0210 O.2     1  IIA1       -0.3531
     25  C43        9.0420    8.8750   24.9910 C.ar    1  IIA1        0.1826
     26  C44        7.6540    8.5190   24.8410 C.ar    1  IIA1        0.0606
     27  C45        9.9480    8.2920   25.9640 C.ar    1  IIA1        0.0674
     28  S46       11.5760    8.4740   25.4560 S.2     1  IIA1       -0.0723
     29  C47       12.0920    7.6350   26.9240 C.ar    1  IIA1        0.0871
     30  C48       11.0840    7.2210   27.7070 C.ar    1  IIA1        0.0186
     31  C49        9.8020    7.5960   27.1140 C.ar    1  IIA1        0.0110
     32 CL50       13.7560    7.4090   27.1440 Cl      1  IIA1       -0.0752
     33  O56        7.4270    6.7250   21.9630 O.2     1  IIA1       -0.2668
@<TRIPOS>BOND
     1    19    18    1
     2    20    18    1
     3    18    15    1
     4    15    16    1
     5    15    14    1
     6    16    17    1
     7    17    12    1
     8    14    13    1
     9    13    12    1
    10    12    11    1
    11    11    10   am
    12    10    33    2
    13    10     8    1
    14     8     9   ar
    15     8     7   ar
    16    21     7    1
    17    21    22    1
    18    23    22   ar
    19    23    24   ar
    20     9     4   ar
    21     7     3   ar
    22    22    26   ar
    23    24    25   ar
    24     4     3   ar
    25     4     5   ar
    26     3     2   ar
    27    26    25   ar
    28     5     6   ar
    29    25    27    1
    30     2     1   ar
    31    28    27   ar
    32    28    29   ar
    33     6     1   ar
    34    27    31   ar
    35    29    32    1
    36    29    30   ar
    37    31    30   ar
