@<TRIPOS>MOLECULE
2boi_MFU_A_1.pdb
 12 12 0 0 0
SMALL
GASTEIGER

@<TRIPOS>ATOM
      1  C1        35.6300   21.2600   20.8590 C.3   400  MFU400      0.2695
      2  C2        35.2310   19.8350   20.5170 C.3   400  MFU400      0.2406
      3  C3        34.7400   19.1250   21.7650 C.3   400  MFU400      0.2197
      4  C4        33.6300   19.8970   22.4460 C.3   400  MFU400      0.2118
      5  C5        34.0950   21.3200   22.7070 C.3   400  MFU400      0.1508
      6  C6        32.9810   22.1590   23.3010 C.3   400  MFU400      0.0350
      7  O1        36.7380   21.2100   21.7460 O.3   400  MFU400     -0.3259
      8  O2        36.3050   19.0630   19.9800 O.3   400  MFU400     -0.2149
      9  O3        34.2800   17.8120   21.3820 O.3   400  MFU400     -0.2174
     10  O4        32.4820   19.8270   21.5830 O.3   400  MFU400     -0.2177
     11  O5        34.5340   21.9260   21.4750 O.3   400  MFU400     -0.3284
     12  CM        37.2480   22.5220   22.0660 C.3   400  MFU400      0.1769
@<TRIPOS>BOND
     1     8     2    1
     2     2     1    1
     3     2     3    1
     4     1    11    1
     5     1     7    1
     6     9     3    1
     7    11     5    1
     8    10     4    1
     9     7    12    1
    10     3     4    1
    11     4     5    1
    12     5     6    1
