@<TRIPOS>MOLECULE
2boj_ARW_A_1.pdb
 11 11 0 0 0
SMALL
GASTEIGER

@<TRIPOS>ATOM
      1  C1        22.4520   22.4300   30.0970 C.3   1115  ARW1115     0.2695
      2  C2        21.7080   23.1710   28.9830 C.3   1115  ARW1115     0.2406
      3  C3        20.7800   22.1860   28.2660 C.3   1115  ARW1115     0.2198
      4  C4        19.8100   21.5500   29.2530 C.3   1115  ARW1115     0.2143
      5  C5        20.5100   20.9630   30.4760 C.3   1115  ARW1115     0.1803
      6  O1        23.2910   21.4520   29.4690 O.3   1115  ARW1115    -0.3259
      7  O2        22.6180   23.7930   28.0500 O.3   1115  ARW1115    -0.2149
      8  O3        20.0100   22.9310   27.2990 O.3   1115  ARW1115    -0.2174
      9  O4        18.9120   22.5670   29.7170 O.3   1115  ARW1115    -0.2176
     10  O5        21.4680   21.8920   31.0140 O.3   1115  ARW1115    -0.3257
     11  CM        24.1900   20.7990   30.3800 C.3   1115  ARW1115     0.1769
@<TRIPOS>BOND
     1     8     3    1
     2     7     2    1
     3     3     2    1
     4     3     4    1
     5     2     1    1
     6     4     9    1
     7     4     5    1
     8     6     1    1
     9     6    11    1
    10     1    10    1
    11     5    10    1
