@<TRIPOS>MOLECULE
2bok_784_A_1.pdb
 29 32 0 0 0
SMALL
GASTEIGER

@<TRIPOS>ATOM
      1  O18       -5.0950   11.6340   18.9560 O.2   1244  7841244    -0.2744
      2  C11       -4.7060   11.2860   20.0560 C.2   1244  7841244     0.2327
      3  N12       -5.5700   10.9600   21.1340 N.am  1244  7841244    -0.2299
      4  C19       -6.9190   10.4250   20.7890 C.3   1244  7841244     0.0987
      5  C21       -6.9610    9.0710   20.0690 C.3   1244  7841244    -0.0003
      6  C23       -8.2440    8.3320   20.4420 C.3   1244  7841244    -0.0715
      7  N29       -8.6360    7.1990   19.5760 N.4   1244  7841244     0.3857
      8  C32       -8.5760    7.5310   18.1440 C.3   1244  7841244    -0.0960
      9  C31      -10.0290    6.8680   19.9030 C.3   1244  7841244    -0.0960
     10  C30       -7.7950    6.0180   19.8160 C.3   1244  7841244    -0.0960
     11  C5        -3.2560   11.1790   20.4060 C.3   1244  7841244     0.1019
     12  C2        -3.2540   10.2160   21.5820 C.3   1244  7841244     0.1058
     13  C6        -4.7240   10.1280   21.9190 C.2   1244  7841244     0.2330
     14  O13       -5.1790    9.4220   22.7910 O.2   1244  7841244    -0.2744
     15  C7        -2.7990   12.5270   20.9470 C.3   1244  7841244     0.0669
     16  C14       -1.5130   13.0570   20.3090 C.3   1244  7841244     0.0179
     17  C15       -0.6510   13.5580   21.4600 C.3   1244  7841244     0.0187
     18  C8        -1.3590   13.1400   22.7500 C.3   1244  7841244     0.0723
     19  N3        -2.5680   12.3630   22.4020 N.3   1244  7841244    -0.2707
     20  C1        -2.3620   10.9120   22.6250 C.3   1244  7841244     0.0892
     21  C4        -2.5200   10.4520   24.0380 C.ar  1244  7841244    -0.0073
     22  C10       -3.4080   11.0590   24.9360 C.ar  1244  7841244    -0.0027
     23  C17       -3.5220   10.5950   26.2500 C.ar  1244  7841244     0.0077
     24  C20       -2.7430    9.5130   26.6800 C.ar  1244  7841244     0.0975
     25  C22       -2.8860    9.0100   28.0880 C.2   1244  7841244     0.4766
     26  N25       -2.3120    7.9490   28.5070 N.pl3 1244  7841244     0.2047
     27  N24       -3.6760    9.6910   28.9020 N.pl3 1244  7841244     0.2047
     28  C16       -1.8580    8.9050   25.7830 C.ar  1244  7841244     0.0077
     29  C9        -1.7380    9.3760   24.4740 C.ar  1244  7841244    -0.0027
@<TRIPOS>BOND
     1     8     7    1
     2     1     2    2
     3     7    10    1
     4     7     9    1
     5     7     6    1
     6     2    11    1
     7     2     3   am
     8     5     6    1
     9     5     4    1
    10    16    15    1
    11    16    17    1
    12    11    15    1
    13    11    12    1
    14     4     3    1
    15    15    19    1
    16     3    13   am
    17    17    18    1
    18    12    13    1
    19    12    20    1
    20    13    14    2
    21    19    20    1
    22    19    18    1
    23    20    21    1
    24    21    29   ar
    25    21    22   ar
    26    29    28   ar
    27    22    23   ar
    28    28    24   ar
    29    23    24   ar
    30    24    25    1
    31    25    26    2
    32    25    27    1
