@<TRIPOS>MOLECULE
2boq_HEM_A_1.pdb
 43 50 0 0 0
SMALL
GASTEIGER

@<TRIPOS>ATOM
      1 FE         48.4690   41.2320    0.2740 Fe    1320  HEM1320     0.0000
      2  CHA       45.5910   40.5030   -1.4740 C.2   1320  HEM1320     0.0000
      3  CHB       49.2870   37.8730    0.2390 C.2   1320  HEM1320     0.0000
      4  CHC       51.6070   41.9020    1.4770 C.2   1320  HEM1320     0.0000
      5  CHD       48.0300   44.6130   -0.4500 C.2   1320  HEM1320     0.0000
      6  NA        47.6390   39.5000   -0.4920 N.2   1320  HEM1320     0.0000
      7  C1A       46.4180   39.4420   -1.1420 C.2   1320  HEM1320     0.0000
      8  C2A       46.1180   38.0510   -1.4560 C.2   1320  HEM1320     0.0000
      9  C3A       47.1620   37.3500   -0.9830 C.2   1320  HEM1320     0.0000
     10  C4A       48.1010   38.2040   -0.3570 C.2   1320  HEM1320     0.0000
     11  CMA       47.3120   35.8230   -1.0730 C.3   1320  HEM1320     0.0000
     12  CAA       44.8620   37.5670   -2.1790 C.3   1320  HEM1320     0.0000
     13  CBA       45.1270   37.4280   -3.6980 C.3   1320  HEM1320     0.0000
     14  CGA       43.9300   36.7210   -4.3200 C.2   1320  HEM1320     0.0000
     15  O1A       43.7990   35.5030   -4.1350 O.co2 1320  HEM1320     0.0000
     16  O2A       43.1020   37.3620   -4.9560 O.co2 1320  HEM1320     0.0000
     17  NB        50.1720   40.0920    0.7650 N.ar  1320  HEM1320     0.0000
     18  C1B       50.2240   38.7220    0.7850 C.ar  1320  HEM1320     0.0000
     19  C2B       51.4430   38.3590    1.4610 C.ar  1320  HEM1320     0.0000
     20  C3B       52.0700   39.4740    1.8450 C.ar  1320  HEM1320     0.0000
     21  C4B       51.2900   40.5600    1.3720 C.ar  1320  HEM1320     0.0000
     22  CMB       51.8760   36.9060    1.6930 C.3   1320  HEM1320     0.0000
     23  CAB       53.3820   39.5180    2.6140 C.2   1320  HEM1320     0.0000
     24  CBB       53.7930   40.5080    3.3840 C.2   1320  HEM1320     0.0000
     25  NC        49.6570   42.9790    0.3680 N.2   1320  HEM1320     0.0000
     26  C1C       50.8970   43.0070    0.9870 C.2   1320  HEM1320     0.0000
     27  C2C       51.3380   44.3750    0.9670 C.2   1320  HEM1320     0.0000
     28  C3C       50.3530   45.1230    0.4230 C.2   1320  HEM1320     0.0000
     29  C4C       49.2780   44.2560    0.0420 C.2   1320  HEM1320     0.0000
     30  CMC       52.6840   44.8320    1.5250 C.3   1320  HEM1320     0.0000
     31  CAC       50.4060   46.6440    0.2700 C.2   1320  HEM1320     0.0000
     32  CBC       50.0010   47.2210   -0.8230 C.2   1320  HEM1320     0.0000
     33  ND        47.1150   42.3380   -0.8500 N.ar  1320  HEM1320     0.0000
     34  C1D       47.0260   43.7430   -0.7900 C.ar  1320  HEM1320     0.0000
     35  C2D       45.6750   44.1290   -1.0960 C.ar  1320  HEM1320     0.0000
     36  C3D       44.9480   42.8910   -1.4420 C.ar  1320  HEM1320     0.0000
     37  C4D       45.9110   41.8160   -1.2790 C.ar  1320  HEM1320     0.0000
     38  CMD       45.1550   45.5510   -1.0460 C.3   1320  HEM1320     0.0000
     39  CAD       43.4780   42.8180   -1.8730 C.3   1320  HEM1320     0.0000
     40  CBD       43.3050   42.5610   -3.3710 C.3   1320  HEM1320     0.0000
     41  CGD       41.8570   42.4340   -3.7140 C.2   1320  HEM1320     0.0000
     42  O1D       41.6150   41.8900   -4.8350 O.co2 1320  HEM1320     0.0000
     43  O2D       40.9610   42.7900   -2.9470 O.co2 1320  HEM1320     0.0000
@<TRIPOS>BOND
     1    16    14   ar
     2    42    41   ar
     3    14    15   ar
     4    14    13    1
     5    41    40    1
     6    41    43   ar
     7    13    12    1
     8    40    39    1
     9    12     8    1
    10    39    36    1
    11     2    37    2
    12     2     7    1
    13     8     7    1
    14     8     9    2
    15    36    37   ar
    16    36    35   ar
    17    37    33   ar
    18     7     6    2
    19    35    38    1
    20    35    34   ar
    21    11     9    1
    22     9    10    1
    23    33    34   ar
    24    33     1    1
    25    32    31    2
    26    34     5    2
    27     6    10    1
    28     6     1    1
    29     5    29    1
    30    10     3    2
    31    29    25    2
    32    29    28    1
    33     3    18    1
    34    31    28    1
    35     1    25    1
    36     1    17    1
    37    25    26    1
    38    28    27    2
    39    17    18   ar
    40    17    21   ar
    41    18    19   ar
    42    27    26    1
    43    27    30    1
    44    26     4    2
    45    21     4    1
    46    21    20   ar
    47    19    22    1
    48    19    20   ar
    49    20    23    1
    50    23    24    2
