@<TRIPOS>MOLECULE
2bos_GLC_B_1.pdb
 12 12 0 0 0
SMALL
GASTEIGER

@<TRIPOS>ATOM
      1  C1         5.2630   28.9870   38.6720 C.3   292  GLC292      0.3024
      2  C2         5.3530   27.4740   38.7350 C.3   292  GLC292      0.2434
      3  C3         6.7360   27.0220   38.2310 C.3   292  GLC292      0.2199
      4  C4         7.0670   27.6210   36.8670 C.3   292  GLC292      0.2144
      5  C5         6.7000   29.1360   36.7610 C.3   292  GLC292      0.1836
      6  C6         6.5390   29.6090   35.3130 C.3   292  GLC292      0.2142
      7  O1         4.0120   29.4280   39.0930 O.3   292  GLC292     -0.1869
      8  O2         5.1780   27.0410   40.0680 O.3   292  GLC292     -0.2148
      9  O3         6.7450   25.6090   38.1170 O.3   292  GLC292     -0.2174
     10  O4         8.4770   27.4400   36.6290 O.3   292  GLC292     -0.2176
     11  O5         5.4040   29.3960   37.3320 O.3   292  GLC292     -0.3236
     12  O6         7.7360   29.5500   34.5790 O.3   292  GLC292     -0.2176
@<TRIPOS>BOND
     1    12     6    1
     2     6     5    1
     3    10     4    1
     4     5     4    1
     5     5    11    1
     6     4     3    1
     7    11     1    1
     8     9     3    1
     9     3     2    1
    10     1     2    1
    11     1     7    1
    12     2     8    1
