@<TRIPOS>MOLECULE
2bos_GAL_A_1.pdb
 11 11 0 0 0
SMALL
GASTEIGER

@<TRIPOS>ATOM
      1  C1        35.4140   29.7750   19.9730 C.3   191  GAL191      0.1777
      2  C2        36.4300   28.8610   20.6810 C.3   191  GAL191      0.2141
      3  C3        36.0800   27.4040   20.4010 C.3   191  GAL191      0.2173
      4  C4        34.6240   27.1320   20.7910 C.3   191  GAL191      0.2142
      5  C5        33.7170   28.1130   20.0680 C.3   191  GAL191      0.1810
      6  C6        32.2270   27.9760   20.3740 C.3   191  GAL191      0.2141
      7  O2        37.7120   29.1270   20.1700 O.3   191  GAL191     -0.2176
      8  O3        36.9480   26.5670   21.1450 O.3   191  GAL191     -0.2175
      9  O4        34.4460   27.2940   22.2170 O.3   191  GAL191     -0.2176
     10  O5        34.0890   29.4500   20.4230 O.3   191  GAL191     -0.3481
     11  O6        31.4910   28.8290   19.5000 O.3   191  GAL191     -0.2176
@<TRIPOS>BOND
     1    11     6    1
     2     1    10    1
     3     1     2    1
     4     5     6    1
     5     5    10    1
     6     5     4    1
     7     7     2    1
     8     3     2    1
     9     3     4    1
    10     3     8    1
    11     4     9    1
