@<TRIPOS>MOLECULE
2bos_GLA_A_1.pdb
 11 11 0 0 0
SMALL
GASTEIGER

@<TRIPOS>ATOM
      1  C1        33.6430   26.3300   22.8330 C.3   190  GLA190      0.1777
      2  C2        33.1530   26.8690   24.1660 C.3   190  GLA190      0.2141
      3  C3        34.3200   27.0290   25.1330 C.3   190  GLA190      0.2173
      4  C4        35.0620   25.6940   25.2760 C.3   190  GLA190      0.2142
      5  C5        35.5010   25.1870   23.8880 C.3   190  GLA190      0.1810
      6  C6        36.2080   23.8120   23.8810 C.3   190  GLA190      0.2141
      7  O2        32.5090   28.1370   23.9840 O.3   190  GLA190     -0.2176
      8  O3        33.7920   27.4220   26.3960 O.3   190  GLA190     -0.2175
      9  O4        34.2070   24.7490   25.9110 O.3   190  GLA190     -0.2176
     10  O5        34.3430   25.0990   23.0060 O.3   190  GLA190     -0.3481
     11  O6        35.3350   22.7620   24.3110 O.3   190  GLA190     -0.2176
@<TRIPOS>BOND
     1     1    10    1
     2     1     2    1
     3    10     5    1
     4     6     5    1
     5     6    11    1
     6     5     4    1
     7     7     2    1
     8     2     3    1
     9     3     4    1
    10     3     8    1
    11     4     9    1
