@<TRIPOS>MOLECULE
2bov_GDP_A_1.pdb
 28 30 0 0 0
SMALL
GASTEIGER

@<TRIPOS>ATOM
      1  PB        19.7630   67.0670   36.2960 P.3   1184  GDP1184     0.5373
      2  O1B       20.6210   65.9770   36.8260 O.3   1184  GDP1184    -0.1143
      3  O2B       18.4590   67.2510   37.0490 O.3   1184  GDP1184    -0.1143
      4  O3B       19.5340   66.9420   34.7830 O.2   1184  GDP1184    -0.2221
      5  O3A       20.6120   68.4770   36.5030 O.3   1184  GDP1184    -0.2261
      6  PA        20.6040   69.5020   37.6690 P.3   1184  GDP1184     0.2231
      7  O1A       20.6560   68.8330   38.9780 O.3   1184  GDP1184    -0.4370
      8  O2A       19.4620   70.4680   37.5030 O.2   1184  GDP1184    -0.5169
      9  O5'       21.9610   70.3080   37.3900 O.3   1184  GDP1184    -0.3111
     10  C5'       23.2430   69.6490   37.4760 C.3   1184  GDP1184     0.1813
     11  C4'       24.2820   70.6380   37.9580 C.3   1184  GDP1184     0.1799
     12  O4'       24.4290   71.6390   36.9060 O.3   1184  GDP1184    -0.3326
     13  C3'       23.9030   71.3750   39.2560 C.3   1184  GDP1184     0.2158
     14  O3'       25.1860   71.5500   39.9660 O.3   1184  GDP1184    -0.2175
     15  C2'       23.3490   72.6990   38.7560 C.3   1184  GDP1184     0.2310
     16  O2'       23.4090   73.6990   39.7410 O.3   1184  GDP1184    -0.2158
     17  C1'       24.1570   72.9120   37.4410 C.3   1184  GDP1184     0.2293
     18  N9        23.3500   73.6840   36.3320 N.pl3 1184  GDP1184    -0.2354
     19  C8        22.1110   73.3430   35.8610 C.3   1184  GDP1184     0.2246
     20  N7        21.7160   74.1970   34.9120 N.2   1184  GDP1184    -0.2322
     21  C5        22.7590   75.1140   34.7850 C.2   1184  GDP1184     0.2182
     22  C6        22.8910   76.2340   33.9260 C.1   1184  GDP1184     0.2372
     23  O6        22.0520   76.6070   33.0930 O.2   1184  GDP1184    -0.2069
     24  N1        24.1090   76.9330   34.0910 N.2   1184  GDP1184    -0.2485
     25  C2        25.0850   76.5510   35.0100 C.1   1184  GDP1184     0.2531
     26  N2        26.2110   77.2890   35.0860 N.pl3 1184  GDP1184    -0.0226
     27  N3        24.9550   75.4810   35.8230 N.2   1184  GDP1184    -0.3074
     28  C4        23.7730   74.8150   35.6550 C.2   1184  GDP1184     0.2300
@<TRIPOS>BOND
     1    23    22    2
     2    22    24    2
     3    22    21    1
     4    24    25    2
     5     4     1    2
     6    21    20    2
     7    21    28    1
     8    20    19    1
     9    25    26    1
    10    25    27    2
    11    28    27    2
    12    28    18    1
    13    19    18    1
    14     1     5    1
    15     1     2    1
    16     1     3    1
    17    18    17    1
    18     5     6    1
    19    12    17    1
    20    12    11    1
    21     9    10    1
    22     9     6    1
    23    17    15    1
    24    10    11    1
    25     8     6    2
    26     6     7    1
    27    11    13    1
    28    15    13    1
    29    15    16    1
    30    13    14    1
