@<TRIPOS>MOLECULE
2bow_P4P_A_1.pdb
 25 28 0 0 0
SMALL
GASTEIGER

@<TRIPOS>ATOM
      1  P        -16.4450   73.0740   26.2110 P.3   162  P4P162     -0.0109
      2  C1A      -16.2540   74.3750   25.0320 C.ar  162  P4P162      0.0017
      3  C2A      -16.9720   75.5720   25.0900 C.ar  162  P4P162      0.0005
      4  C3A      -16.7750   76.5600   24.1230 C.ar  162  P4P162      0.0000
      5  C4A      -15.8540   76.3580   23.0920 C.ar  162  P4P162      0.0000
      6  C5A      -15.1320   75.1680   23.0250 C.ar  162  P4P162      0.0000
      7  C6A      -15.3280   74.1800   23.9910 C.ar  162  P4P162      0.0005
      8  C1C      -15.2600   73.2540   27.5210 C.ar  162  P4P162      0.0017
      9  C6C      -13.9350   73.5510   27.1780 C.ar  162  P4P162      0.0005
     10  C5C      -12.9550   73.6990   28.1720 C.ar  162  P4P162      0.0000
     11  C4C      -13.2960   73.5410   29.5070 C.ar  162  P4P162      0.0000
     12  C3C      -14.6110   73.2390   29.8610 C.ar  162  P4P162      0.0000
     13  C2C      -15.5890   73.0950   28.8660 C.ar  162  P4P162      0.0005
     14  C1D      -16.2090   71.5070   25.3150 C.ar  162  P4P162      0.0017
     15  C6D      -16.7810   71.4080   24.0390 C.ar  162  P4P162      0.0005
     16  C5D      -16.6430   70.2400   23.2870 C.ar  162  P4P162      0.0000
     17  C4D      -15.9390   69.1570   23.8100 C.ar  162  P4P162      0.0000
     18  C3D      -15.3730   69.2320   25.0840 C.ar  162  P4P162      0.0000
     19  C2D      -15.5120   70.4070   25.8350 C.ar  162  P4P162      0.0005
     20  C6B      -18.8700   71.9540   26.6410 C.ar  162  P4P162      0.0005
     21  C5B      -20.1420   71.8310   27.1990 C.ar  162  P4P162      0.0000
     22  C4B      -20.5890   72.7850   28.1040 C.ar  162  P4P162      0.0000
     23  C3B      -19.7660   73.8680   28.4510 C.ar  162  P4P162      0.0000
     24  C2B      -18.4830   73.9880   27.8850 C.ar  162  P4P162      0.0005
     25  C1B      -18.0320   73.0320   26.9750 C.ar  162  P4P162      0.0017
@<TRIPOS>BOND
     1     6     5   ar
     2     6     7   ar
     3     5     4   ar
     4    16    17   ar
     5    16    15   ar
     6    17    18   ar
     7     7     2   ar
     8    15    14   ar
     9     4     3   ar
    10     2     3   ar
    11     2     1    1
    12    18    19   ar
    13    14    19   ar
    14    14     1    1
    15     1    25    1
    16     1     8    1
    17    20    25   ar
    18    20    21   ar
    19    25    24   ar
    20     9     8   ar
    21     9    10   ar
    22    21    22   ar
    23     8    13   ar
    24    24    23   ar
    25    22    23   ar
    26    10    11   ar
    27    13    12   ar
    28    11    12   ar
