@<TRIPOS>MOLECULE
2boy_BHO_A_1.pdb
 10 10 0 0 0
SMALL
GASTEIGER

@<TRIPOS>ATOM
      1  C1        -1.8930   -2.6240    6.5850 C.ar  1256  BHO1256     0.0227
      2  C2        -1.0920   -1.7420    7.4570 C.ar  1256  BHO1256     0.0019
      3  C3        -1.1450   -1.9400    8.8380 C.ar  1256  BHO1256     0.0001
      4  C4        -1.9710   -2.9510    9.3550 C.ar  1256  BHO1256     0.0000
      5  C5        -2.7240   -3.7640    8.5250 C.ar  1256  BHO1256     0.0001
      6  C6        -2.7030   -3.6020    7.1390 C.ar  1256  BHO1256     0.0019
      7  C         -1.8310   -2.4100    5.1050 C.2   1256  BHO1256     0.1101
      8  O1        -1.5850   -1.3090    4.7350 O.2   1256  BHO1256    -0.5359
      9  N         -2.0710   -3.3120    4.1750 N.am  1256  BHO1256    -0.1984
     10  O2        -1.5840   -4.4540    4.1610 O.3   1256  BHO1256    -0.4024
@<TRIPOS>BOND
     1    10     9    1
     2     9     7   am
     3     8     7    2
     4     7     1    1
     5     1     6   ar
     6     1     2   ar
     7     6     5   ar
     8     2     3   ar
     9     5     4   ar
    10     3     4   ar
