@<TRIPOS>MOLECULE
2boz_U10_L_1.pdb
 48 48 0 0 0
SMALL
GASTEIGER

@<TRIPOS>ATOM
      1  C1        46.1040   66.3710   65.3250 C.2   1285  U101285     0.0198
      2  C2        45.8780   65.5500   66.5950 C.2   1285  U101285     0.2282
      3  C3        44.6010   64.8530   66.8530 C.2   1285  U101285     0.2140
      4  C4        43.5360   65.0050   65.8100 C.2   1285  U101285     0.2140
      5  C5        43.7250   65.8390   64.5720 C.2   1285  U101285     0.2285
      6  C6        45.0260   66.5110   64.3070 C.2   1285  U101285     0.0235
      7  C1M       47.3950   67.0840   65.0670 C.3   1285  U101285     0.0343
      8  C3M       44.3290   64.6060   69.3680 C.3   1285  U101285     0.2528
      9  C4M       41.4670   65.0880   66.9320 C.3   1285  U101285     0.2528
     10  C7        45.1550   67.3460   63.0320 C.3   1285  U101285     0.0548
     11  C8        45.8260   66.6390   61.8860 C.2   1285  U101285    -0.0298
     12  C9        45.4670   66.7930   60.6000 C.2   1285  U101285    -0.0475
     13  C10       44.2730   67.6100   60.1770 C.3   1285  U101285     0.0260
     14  C11       46.2740   66.1200   59.5030 C.3   1285  U101285     0.0264
     15  C12       47.3350   67.0850   58.9780 C.3   1285  U101285     0.0297
     16  C13       48.0570   66.4290   57.8200 C.2   1285  U101285    -0.0343
     17  C14       49.3990   66.4610   57.6710 C.2   1285  U101285    -0.0482
     18  C15       50.2950   66.9060   58.8000 C.3   1285  U101285     0.0260
     19  C16       50.0040   66.0530   56.3500 C.3   1285  U101285     0.0217
     20  C17       49.4680   64.7240   55.8240 C.3   1285  U101285     0.0043
     21  C18       49.7120   64.7200   54.3360 C.3   1285  U101285     0.0003
     22  C19       50.0640   63.6220   53.6350 C.3   1285  U101285     0.0000
     23  C20       49.6560   62.2150   54.0250 C.3   1285  U101285     0.0000
     24  C21       50.8420   63.7850   52.3570 C.3   1285  U101285     0.0000
     25  C22       52.3230   64.1020   52.5530 C.3   1285  U101285     0.0000
     26  C23       53.0200   63.7940   51.2390 C.3   1285  U101285     0.0000
     27  C24       54.2940   63.3990   51.2010 C.3   1285  U101285     0.0000
     28  C25       55.1570   63.6540   52.3980 C.3   1285  U101285     0.0000
     29  C26       54.8540   62.7050   49.9770 C.3   1285  U101285     0.0000
     30  C27       55.4250   63.7160   48.9800 C.3   1285  U101285     0.0000
     31  C28       56.2130   64.4730   48.7180 C.3   1285  U101285     0.0000
     32  C29       56.7530   64.9520   47.5520 C.3   1285  U101285     0.0000
     33  C30       58.2270   65.3170   47.5210 C.3   1285  U101285     0.0000
     34  C31       55.9200   65.1310   46.2790 C.3   1285  U101285     0.0000
     35  C32       56.5750   64.7250   44.9260 C.3   1285  U101285     0.0000
     36  C33       58.1140   64.6260   44.8180 C.3   1285  U101285     0.0000
     37  C34       58.6460   64.9780   43.6240 C.3   1285  U101285     0.0000
     38  C35       59.4390   63.9030   42.8870 C.3   1285  U101285     0.0000
     39  C36       58.4110   66.2160   43.0590 C.3   1285  U101285     0.0000
     40  C37       58.3700   67.5930   43.8000 C.3   1285  U101285     0.0000
     41  C38       57.2460   67.8780   44.8170 C.3   1285  U101285     0.0000
     42  C39       56.5310   69.0340   45.0130 C.3   1285  U101285     0.0000
     43  C40       55.8730   69.2410   46.3560 C.3   1285  U101285     0.0000
     44  C41       56.3160   70.1170   43.9850 C.3   1285  U101285     0.0000
     45  O2        46.7190   65.3990   67.4990 O.2   1285  U101285    -0.2836
     46  O3        44.4080   64.0800   68.0200 O.2   1285  U101285    -0.4652
     47  O4        42.3500   64.4060   66.0420 O.2   1285  U101285    -0.4652
     48  O5        42.8080   65.9540   63.7220 O.2   1285  U101285    -0.2835
@<TRIPOS>BOND
     1    38    37    1
     2    39    37    1
     3    39    40    1
     4    37    36    1
     5    40    41    1
     6    44    42    1
     7    41    42    1
     8    36    35    1
     9    35    34    1
    10    42    43    1
    11    34    32    1
    12    33    32    1
    13    32    31    1
    14    31    30    1
    15    30    29    1
    16    29    27    1
    17    27    26    1
    18    27    28    1
    19    26    25    1
    20    24    25    1
    21    24    22    1
    22    22    23    1
    23    22    21    1
    24    21    20    1
    25    20    19    1
    26    19    17    1
    27    17    16    2
    28    17    18    1
    29    16    15    1
    30    15    14    1
    31    14    12    1
    32    13    12    1
    33    12    11    2
    34    11    10    1
    35    10     6    1
    36    48     5    2
    37     6     5    1
    38     6     1    2
    39     5     4    1
    40     7     1    1
    41     1     2    1
    42     4    47    1
    43     4     3    2
    44    47     9    1
    45     2     3    1
    46     2    45    2
    47     3    46    1
    48    46     8    1
