@<TRIPOS>MOLECULE
2boz_SPN_M_1.pdb
 43 42 0 0 0
SMALL
GASTEIGER

@<TRIPOS>ATOM
      1  CMA       49.2830   77.9240   37.3640 C.3   1312  SPN1312     0.1745
      2  O1        49.8420   79.2720   37.3510 O.3   1312  SPN1312    -0.3486
      3  CM1       47.9880   80.3670   38.4890 C.3   1312  SPN1312     0.0376
      4  CM2       50.0170   81.6640   37.8860 C.3   1312  SPN1312     0.0376
      5  C1        49.5030   80.2990   38.3150 C.3   1312  SPN1312     0.1476
      6  C2        50.1970   80.0610   39.6220 C.2   1312  SPN1312     0.1972
      7  O2        49.7550   80.5870   40.6350 O.2   1312  SPN1312    -0.2889
      8  C3        51.4680   79.2540   39.7020 C.2   1312  SPN1312     0.0395
      9  C4        52.3850   79.6600   40.6100 C.2   1312  SPN1312    -0.0012
     10  C5        53.5450   78.8550   40.9800 C.2   1312  SPN1312    -0.0218
     11  CM3       54.1050   77.8890   39.9620 C.3   1312  SPN1312     0.0310
     12  C6        54.0750   79.0150   42.2340 C.2   1312  SPN1312    -0.0043
     13  C7        55.2370   78.2580   42.7180 C.2   1312  SPN1312    -0.0006
     14  C8        55.9190   78.6590   43.8250 C.2   1312  SPN1312    -0.0043
     15  C9        57.0870   77.9180   44.3690 C.2   1312  SPN1312    -0.0218
     16  CM4       57.8130   76.9020   43.5150 C.3   1312  SPN1312     0.0310
     17  C10       57.4760   78.1950   45.6530 C.2   1312  SPN1312    -0.0043
     18  C11       58.5980   77.5920   46.4060 C.2   1312  SPN1312    -0.0006
     19  C12       59.0270   78.2250   47.5310 C.2   1312  SPN1312    -0.0043
     20  C13       60.1140   77.7540   48.3960 C.2   1312  SPN1312    -0.0218
     21  CM5       60.8090   76.4400   48.1340 C.3   1312  SPN1312     0.0310
     22  C14       60.4710   78.5440   49.4470 C.2   1312  SPN1312    -0.0043
     23  C15       61.5580   78.1350   50.3740 C.2   1312  SPN1312    -0.0003
     24  C16       62.0400   78.9070   51.3680 C.2   1312  SPN1312    -0.0003
     25  C17       61.4740   80.3390   51.6190 C.2   1312  SPN1312    -0.0043
     26  C18       61.9000   81.0680   52.6800 C.2   1312  SPN1312    -0.0218
     27  CM6       62.9100   80.5300   53.6510 C.3   1312  SPN1312     0.0310
     28  C19       61.3050   82.3980   52.8290 C.2   1312  SPN1312    -0.0043
     29  C20       61.5510   83.2310   53.8630 C.2   1312  SPN1312    -0.0010
     30  C21       60.8670   84.5400   53.8250 C.2   1312  SPN1312    -0.0085
     31  C22       60.6890   85.3590   54.9010 C.2   1312  SPN1312    -0.0436
     32  CM7       61.1750   84.9940   56.2770 C.3   1312  SPN1312     0.0264
     33  C23       60.0060   86.6850   54.6810 C.3   1312  SPN1312     0.0267
     34  C24       60.9980   87.8410   54.8060 C.3   1312  SPN1312     0.0297
     35  C25       60.3580   89.1350   54.3950 C.2   1312  SPN1312    -0.0342
     36  C26       60.9120   90.1160   53.5990 C.2   1312  SPN1312    -0.0478
     37  CM8       62.2980   90.0200   53.0410 C.3   1312  SPN1312     0.0260
     38  C27       60.1310   91.3720   53.2750 C.3   1312  SPN1312     0.0263
     39  C28       60.5280   92.3960   54.3290 C.3   1312  SPN1312     0.0297
     40  C29       59.9750   93.7550   54.1380 C.2   1312  SPN1312    -0.0342
     41  C30       59.2350   94.3680   55.1100 C.2   1312  SPN1312    -0.0478
     42  CM9       58.7580   95.7540   54.7920 C.3   1312  SPN1312     0.0260
     43  CMB       58.8750   93.7090   56.4400 C.3   1312  SPN1312     0.0260
@<TRIPOS>BOND
     1     2     1    1
     2     2     5    1
     3     4     5    1
     4     5     3    1
     5     5     6    1
     6     6     8    1
     7     6     7    2
     8     8     9    2
     9    11    10    1
    10     9    10    1
    11    10    12    2
    12    12    13    1
    13    13    14    2
    14    16    15    1
    15    14    15    1
    16    15    17    2
    17    17    18    1
    18    18    19    2
    19    19    20    1
    20    21    20    1
    21    20    22    2
    22    22    23    1
    23    23    24    2
    24    24    25    1
    25    25    26    2
    26    26    28    1
    27    26    27    1
    28    28    29    2
    29    37    36    1
    30    38    36    1
    31    38    39    1
    32    36    35    2
    33    30    29    1
    34    30    31    2
    35    40    39    1
    36    40    41    2
    37    35    34    1
    38    33    34    1
    39    33    31    1
    40    42    41    1
    41    31    32    1
    42    41    43    1
