@<TRIPOS>MOLECULE
2bp1_NDP_A_1.pdb
 48 52 0 0 0
SMALL
GASTEIGER

@<TRIPOS>ATOM
      1  PA       -10.7200   30.6970   -1.4760 P.3   1361  NDP1361     0.2189
      2  O1A      -10.0180   29.3960   -1.4620 O.3   1361  NDP1361    -0.4371
      3  O2A      -10.5400   31.4680   -2.7340 O.2   1361  NDP1361    -0.5170
      4  O5B      -10.1550   31.6040   -0.2810 O.3   1361  NDP1361    -0.3112
      5  C5B      -10.5590   32.9750   -0.3850 C.3   1361  NDP1361     0.1813
      6  C4B       -9.6750   33.8450    0.4600 C.3   1361  NDP1361     0.1820
      7  O4B       -8.4020   33.9320   -0.1780 O.3   1361  NDP1361    -0.3136
      8  C3B      -10.2160   35.2590    0.6330 C.3   1361  NDP1361     0.2157
      9  O3B      -10.9770   35.4470    1.7990 O.3   1361  NDP1361    -0.2175
     10  C2B       -8.9120   36.0050    0.7570 C.3   1361  NDP1361     0.2314
     11  O2B       -8.4920   35.7360    2.0670 O.3   1361  NDP1361    -0.2630
     12  C1B       -7.9790   35.2810   -0.2040 C.3   1361  NDP1361     0.3158
     13  N9A       -8.0880   35.7790   -1.5900 N.pl3 1361  NDP1361    -0.1439
     14  C8A       -9.0750   35.5240   -2.5100 C.3   1361  NDP1361     0.3377
     15  N7A       -8.7920   36.1590   -3.6640 N.2   1361  NDP1361    -0.2095
     16  C5A       -7.6420   36.8240   -3.4930 C.2   1361  NDP1361     0.2526
     17  C6A       -6.9190   37.6280   -4.3450 C.2   1361  NDP1361     0.4393
     18  N6A       -7.3400   37.8760   -5.5810 N.pl3 1361  NDP1361     0.2180
     19  N1A       -5.7640   38.1920   -3.8780 N.2   1361  NDP1361     0.0021
     20  C2A       -5.3370   37.9350   -2.5950 C.3   1361  NDP1361     0.5254
     21  N3A       -6.0520   37.1480   -1.7310 N.2   1361  NDP1361    -0.0055
     22  C4A       -7.1900   36.6010   -2.1960 C.2   1361  NDP1361     0.3518
     23  O3       -12.3110   30.5510   -1.2630 O.3   1361  NDP1361    -0.2703
     24  PN       -13.1150   30.2680    0.1150 P.3   1361  NDP1361     0.2189
     25  O1N      -13.5670   31.6060    0.6440 O.2   1361  NDP1361    -0.5170
     26  O2N      -12.4180   29.2980    0.9400 O.3   1361  NDP1361    -0.4371
     27  O5D      -14.3840   29.5210   -0.5100 O.3   1361  NDP1361    -0.3112
     28  C5D      -15.3380   30.2080   -1.2800 C.3   1361  NDP1361     0.1813
     29  C4D      -16.7540   30.1320   -0.6940 C.3   1361  NDP1361     0.1799
     30  O4D      -17.1540   28.7810   -0.5260 O.3   1361  NDP1361    -0.3327
     31  C3D      -16.9630   30.7750    0.6670 C.3   1361  NDP1361     0.2158
     32  O3D      -17.1680   32.1730    0.6360 O.3   1361  NDP1361    -0.2175
     33  C2D      -18.1720   30.0150    1.1890 C.3   1361  NDP1361     0.2309
     34  O2D      -19.3670   30.5760    0.6820 O.3   1361  NDP1361    -0.2158
     35  C1D      -17.9870   28.6190    0.6130 C.3   1361  NDP1361     0.2263
     36  N1N      -17.3890   27.6510    1.5810 N.pl3 1361  NDP1361    -0.2787
     37  C2N      -18.0890   26.5360    1.9710 C.3   1361  NDP1361     0.1244
     38  C3N      -17.4690   25.5310    2.6780 C.2   1361  NDP1361     0.0544
     39  C7N      -18.2340   24.3600    3.1740 C.2   1361  NDP1361     0.2818
     40  O7N      -17.6840   23.6760    4.2700 O.2   1361  NDP1361    -0.2670
     41  N7N      -19.3440   23.9970    2.5460 N.am  1361  NDP1361    -0.0839
     42  C4N      -16.1930   25.7690    3.4070 C.2   1361  NDP1361     0.0033
     43  C5N      -15.5430   27.0220    2.9540 C.2   1361  NDP1361     0.0157
     44  C6N      -16.1560   27.8900    2.0810 C.2   1361  NDP1361     0.0633
     45  P2B       -7.7680   36.7370    3.0690 P.3   1361  NDP1361     0.5328
     46  O1X       -7.7200   38.0900    2.3650 O.2   1361  NDP1361    -0.2224
     47  O2X       -8.5510   36.6290    4.3340 O.3   1361  NDP1361    -0.1145
     48  O3X       -6.3450   36.3530    3.3990 O.3   1361  NDP1361    -0.1145
@<TRIPOS>BOND
     1    18    17    1
     2    17    19    2
     3    17    16    1
     4    19    20    1
     5    15    16    2
     6    15    14    1
     7    16    22    1
     8     3     1    2
     9    20    21    1
    10    14    13    1
    11    22    21    2
    12    22    13    1
    13    13    12    1
    14     1     2    1
    15     1    23    1
    16     1     4    1
    17    28    29    1
    18    28    27    1
    19    23    24    1
    20    29    30    1
    21    29    31    1
    22    30    35    1
    23    27    24    1
    24     5     4    1
    25     5     6    1
    26    12     7    1
    27    12    10    1
    28     7     6    1
    29    24    25    2
    30    24    26    1
    31     6     8    1
    32    35    33    1
    33    35    36    1
    34     8    10    1
    35     8     9    1
    36    32    31    1
    37    31    33    1
    38    34    33    1
    39    10    11    1
    40    36    37    1
    41    36    44    1
    42    37    38    1
    43    11    45    1
    44    44    43    2
    45    46    45    2
    46    41    39   am
    47    38    39    1
    48    38    42    2
    49    43    42    1
    50    45    48    1
    51    45    47    1
    52    39    40    2
