@<TRIPOS>MOLECULE
2bp6_GXL_A_1.pdb
 12 12 0 0 0
SMALL
GASTEIGER

@<TRIPOS>ATOM
      1  C1        28.8770   17.8200   59.7200 C.3   501  GXL501      0.3024
      2  C2        27.9930   18.7310   58.8650 C.3   501  GXL501      0.2434
      3  C3        27.7530   20.0350   59.5890 C.3   501  GXL501      0.2199
      4  C4        29.0810   20.6720   59.9410 C.3   501  GXL501      0.2144
      5  C5        29.9330   19.6890   60.7390 C.3   501  GXL501      0.1836
      6  C6        31.3290   20.2400   60.9950 C.3   501  GXL501      0.2142
      7  O1        28.1750   17.5280   60.9410 O.3   501  GXL501     -0.1869
      8  O2        26.7110   18.1540   58.5670 O.3   501  GXL501     -0.2148
      9  O3        26.9850   20.9240   58.7310 O.3   501  GXL501     -0.2174
     10  O4        29.7020   21.0880   58.7050 O.3   501  GXL501     -0.2176
     11  O5        30.0950   18.4840   59.9960 O.3   501  GXL501     -0.3236
     12  O6        31.2430   21.3170   61.9200 O.3   501  GXL501     -0.2176
@<TRIPOS>BOND
     1     8     2    1
     2    10     4    1
     3     9     3    1
     4     2     3    1
     5     2     1    1
     6     3     4    1
     7     1    11    1
     8     1     7    1
     9     4     5    1
    10    11     5    1
    11     5     6    1
    12     6    12    1
