@<TRIPOS>MOLECULE
2bpb_MSS_A_1.pdb
 26 29 0 0 0
SMALL
GASTEIGER

@<TRIPOS>ATOM
      1  N1        69.6410   13.2560   21.3590 N.2   1374  MSS1374     0.0000
      2  C2        70.3700   14.3910   21.2040 C.1   1374  MSS1374     0.0000
      3  N2        70.0710   15.1990   20.1730 N.pl3 1374  MSS1374     0.0000
      4  N3        71.3920   14.7200   22.0440 N.2   1374  MSS1374     0.0000
      5  C4        71.7250   13.9160   23.0980 C.1   1374  MSS1374     0.0000
      6  O4        72.6380   14.2470   23.8650 O.2   1374  MSS1374     0.0000
      7  N5        71.2350   11.7950   24.3170 N.2   1374  MSS1374     0.0000
      8  C6        70.8800   10.3990   24.0430 C.3   1374  MSS1374     0.0000
      9  C7        69.4460   10.2880   23.4920 C.3   1374  MSS1374     0.0000
     10  N8        69.1330   11.2600   22.4590 N.2   1374  MSS1374     0.0000
     11  C9        70.9650   12.6690   23.3200 C.2   1374  MSS1374     0.0000
     12  C10       69.8710   12.3890   22.3580 C.1   1374  MSS1374     0.0000
     13  C1'       71.0380    9.4780   25.2120 C.2   1374  MSS1374     0.0000
     14  S1'       72.6020    8.9830   25.5920 S.3   1374  MSS1374     0.0000
     15  C2'       69.9380    9.0390   25.8980 C.2   1374  MSS1374     0.0000
     16  S2'       70.0720    7.9940   27.2250 S.3   1374  MSS1374     0.0000
     17  C3'       68.5370    9.4610   25.4790 C.3   1374  MSS1374     0.0000
     18  O3'       68.5300   10.5240   24.5360 O.3   1374  MSS1374     0.0000
     19  C4'       67.7150    9.9340   26.6550 C.3   1374  MSS1374     0.0000
     20  O4'       66.4220   10.3110   26.1800 O.3   1374  MSS1374     0.0000
     21  P         65.5250   11.2730   27.1080 P.3   1374  MSS1374     0.0000
     22  O1P       64.3610   11.6130   26.2430 O.2   1374  MSS1374     0.0000
     23  O2P       66.4370   12.4380   27.4840 O.3   1374  MSS1374     0.0000
     24  O3P       65.1560   10.4150   28.3020 O.3   1374  MSS1374     0.0000
     25 MOM1       72.3730    7.2340   27.2410 Mo    1374  MSS1374     0.0000
     26  OM1       72.5540    5.7250   26.4130 O.3   1374  MSS1374     0.0000
@<TRIPOS>BOND
     1     3     2    1
     2     2     1    2
     3     2     4    2
     4     1    12    2
     5     4     5    2
     6    12    10    2
     7    12    11    1
     8    10     9    1
     9     5    11    1
    10     5     6    2
    11    11     7    2
    12     9     8    1
    13     9    18    1
    14     8     7    1
    15     8    13    1
    16    18    17    1
    17    13    14    1
    18    13    15    2
    19    17    15    1
    20    17    19    1
    21    14    25    1
    22    15    16    1
    23    20    19    1
    24    20    21    1
    25    22    21    2
    26    26    25    1
    27    21    23    1
    28    21    24    1
    29    16    25    1
