@<TRIPOS>MOLECULE
2bpb_HEC_B_1.pdb
 43 50 0 0 0
SMALL
GASTEIGER

@<TRIPOS>ATOM
      1 FE         84.4020   18.0250   30.8080 Fe    1582  HEC1582     0.0000
      2  CHA       82.2350   15.3620   30.7960 C.2   1582  HEC1582     0.0000
      3  CHB       85.4800   17.0790   33.9900 C.2   1582  HEC1582     0.0000
      4  CHC       86.4000   20.7670   30.9200 C.2   1582  HEC1582     0.0000
      5  CHD       83.6970   18.6880   27.4670 C.2   1582  HEC1582     0.0000
      6  NA        83.9410   16.4670   32.1610 N.2   1582  HEC1582     0.0000
      7  C1A       82.9850   15.4810   31.9570 C.2   1582  HEC1582     0.0000
      8  C2A       82.9380   14.6580   33.1490 C.2   1582  HEC1582     0.0000
      9  C3A       83.8440   15.1400   34.0170 C.2   1582  HEC1582     0.0000
     10  C4A       84.4890   16.2940   33.4220 C.2   1582  HEC1582     0.0000
     11  CMA       84.1800   14.5840   35.4170 C.3   1582  HEC1582     0.0000
     12  CAA       82.0520   13.3960   33.3830 C.3   1582  HEC1582     0.0000
     13  CBA       82.9170   12.1620   33.0820 C.3   1582  HEC1582     0.0000
     14  CGA       83.2560   11.9750   31.6150 C.2   1582  HEC1582     0.0000
     15  O1A       84.4620   11.7720   31.3060 O.co2 1582  HEC1582     0.0000
     16  O2A       82.3560   12.0200   30.7300 O.co2 1582  HEC1582     0.0000
     17  NB        85.6530   18.8060   32.2380 N.ar  1582  HEC1582     0.0000
     18  C1B       86.0430   18.2010   33.4110 C.ar  1582  HEC1582     0.0000
     19  C2B       87.1470   18.9770   33.9410 C.ar  1582  HEC1582     0.0000
     20  C3B       87.4200   19.9990   33.0990 C.ar  1582  HEC1582     0.0000
     21  C4B       86.4700   19.9130   32.0080 C.ar  1582  HEC1582     0.0000
     22  CMB       87.9040   18.6100   35.2300 C.3   1582  HEC1582     0.0000
     23  CAB       88.5460   21.0690   33.2820 C.3   1582  HEC1582     0.0000
     24  CBB       89.8590   20.4510   32.7470 C.3   1582  HEC1582     0.0000
     25  NC        85.0110   19.4520   29.3950 N.2   1582  HEC1582     0.0000
     26  C1C       85.7250   20.5770   29.7380 C.2   1582  HEC1582     0.0000
     27  C2C       85.7240   21.4730   28.5930 C.2   1582  HEC1582     0.0000
     28  C3C       84.8760   20.9290   27.6840 C.2   1582  HEC1582     0.0000
     29  C4C       84.4670   19.6240   28.1500 C.2   1582  HEC1582     0.0000
     30  CMC       86.2540   22.9390   28.6230 C.3   1582  HEC1582     0.0000
     31  CAC       84.4630   21.5180   26.3120 C.3   1582  HEC1582     0.0000
     32  CBC       85.7590   21.5280   25.4550 C.3   1582  HEC1582     0.0000
     33  ND        83.1660   17.1670   29.3560 N.ar  1582  HEC1582     0.0000
     34  C1D       83.0430   17.6070   28.0360 C.ar  1582  HEC1582     0.0000
     35  C2D       82.1170   16.7270   27.3400 C.ar  1582  HEC1582     0.0000
     36  C3D       81.7020   15.6950   28.3800 C.ar  1582  HEC1582     0.0000
     37  C4D       82.3710   16.0610   29.6130 C.ar  1582  HEC1582     0.0000
     38  CMD       81.6890   16.7890   25.8650 C.3   1582  HEC1582     0.0000
     39  CAD       80.7160   14.5260   28.2090 C.3   1582  HEC1582     0.0000
     40  CBD       79.3390   15.1000   28.5310 C.3   1582  HEC1582     0.0000
     41  CGD       78.3290   13.9830   28.6790 C.2   1582  HEC1582     0.0000
     42  O1D       78.6200   12.8110   28.2900 O.co2 1582  HEC1582     0.0000
     43  O2D       77.2240   14.2810   29.1910 O.co2 1582  HEC1582     0.0000
@<TRIPOS>BOND
     1    32    31    1
     2    38    35    1
     3    31    28    1
     4    35    34   ar
     5    35    36   ar
     6     5    34    2
     7     5    29    1
     8    28    29    1
     9    28    27    2
    10    34    33   ar
    11    29    25    2
    12    39    36    1
    13    39    40    1
    14    42    41   ar
    15    36    37   ar
    16    40    41    1
    17    27    30    1
    18    27    26    1
    19    41    43   ar
    20    33    37   ar
    21    33     1    1
    22    25    26    1
    23    25     1    1
    24    37     2    2
    25    26     4    2
    26    16    14   ar
    27     2     7    1
    28     1     6    1
    29     1    17    1
    30     4    21    1
    31    15    14   ar
    32    14    13    1
    33     7     6    2
    34     7     8    1
    35    21    17   ar
    36    21    20   ar
    37     6    10    1
    38    17    18   ar
    39    24    23    1
    40    13    12    1
    41    20    23    1
    42    20    19   ar
    43     8    12    1
    44     8     9    2
    45    18    19   ar
    46    18     3    1
    47    10     3    2
    48    10     9    1
    49    19    22    1
    50     9    11    1
