@<TRIPOS>MOLECULE
2bpf_DCT_A_1.pdb
 27 28 0 0 0
SMALL
GASTEIGER

@<TRIPOS>ATOM
      1  N1         7.9810   65.9090   19.5960 N.am  338  DCT338     -0.1803
      2  C2         6.6720   65.6910   20.1130 C.1   338  DCT338      0.2756
      3  N3         6.2280   64.3970   20.1770 N.2   338  DCT338     -0.3024
      4  C4         7.0100   63.3940   19.7520 C.2   338  DCT338      0.2346
      5  C5         8.2820   63.6240   19.2220 C.2   338  DCT338      0.0687
      6  C6         8.7250   64.8620   19.1640 C.2   338  DCT338      0.0835
      7  O2         5.9630   66.6500   20.5180 O.2   338  DCT338     -0.1925
      8  N4         6.5270   62.1510   19.8200 N.pl3 338  DCT338     -0.0921
      9  C1'        9.2060   66.7420   19.3260 C.3   338  DCT338      0.2063
     10  C2'       10.3380   66.7140   20.3530 C.3   338  DCT338      0.0545
     11  C3'       11.4470   67.2760   19.4570 C.3   338  DCT338      0.0366
     12  C4'       11.2190   66.5060   18.1580 C.3   338  DCT338      0.1472
     13  O4'        9.7720   66.4370   18.0360 O.3   338  DCT338     -0.3366
     14  C5'       11.6500   65.0710   18.2430 C.3   338  DCT338      0.1785
     15  O5'       12.9150   64.9690   17.8010 O.3   338  DCT338     -0.3113
     16  PA        13.6170   63.6130   18.1710 P.3   338  DCT338      0.2189
     17  O1A       14.8470   63.6660   17.2420 O.2   338  DCT338     -0.5170
     18  O2A       12.5180   62.4660   18.2000 O.3   338  DCT338     -0.4371
     19  O3A       14.0520   63.8970   19.6660 O.3   338  DCT338     -0.2700
     20  PB        15.3150   64.5770   20.0550 P.3   338  DCT338      0.2277
     21  O1B       15.1210   65.5080   21.1650 O.3   338  DCT338     -0.4368
     22  O2B       15.9320   65.0970   18.6780 O.2   338  DCT338     -0.5168
     23  O3B       16.0530   63.3360   20.4670 O.3   338  DCT338     -0.2258
     24  PG        17.2890   62.5890   19.6740 P.3   338  DCT338      0.5373
     25  O1G       17.3290   63.1130   18.2060 O.2   338  DCT338     -0.2221
     26  O2G       18.4500   62.8040   20.4950 O.3   338  DCT338     -0.1143
     27  O3G       16.8780   61.1670   19.7000 O.3   338  DCT338     -0.1143
@<TRIPOS>BOND
     1    17    16    2
     2    15    16    1
     3    15    14    1
     4    13    12    1
     5    13     9    1
     6    12    14    1
     7    12    11    1
     8    16    18    1
     9    16    19    1
    10    25    24    2
    11    22    20    2
    12     6     5    2
    13     6     1    1
    14     5     4    1
    15     9     1    1
    16     9    10    1
    17    11    10    1
    18     1     2   am
    19    19    20    1
    20    24    27    1
    21    24    23    1
    22    24    26    1
    23     4     8    1
    24     4     3    2
    25    20    23    1
    26    20    21    1
    27     2     3    2
    28     2     7    2
