@<TRIPOS>MOLECULE
2bpg_DCT_A_1.pdb
 27 28 0 0 0
SMALL
GASTEIGER

@<TRIPOS>ATOM
      1  N1        35.6810   21.8470   10.2740 N.am  338  DCT338     -0.1803
      2  C2        35.9190   21.2070    9.1270 C.1   338  DCT338      0.2756
      3  N3        37.1600   21.2670    8.6120 N.2   338  DCT338     -0.3024
      4  C4        38.1170   21.9650    9.2490 C.2   338  DCT338      0.2346
      5  C5        37.8660   22.6350   10.4400 C.2   338  DCT338      0.0687
      6  C6        36.6130   22.5850   10.9860 C.2   338  DCT338      0.0835
      7  O2        35.0050   20.5690    8.5790 O.2   338  DCT338     -0.1925
      8  N4        39.3370   22.0030    8.7050 N.pl3 338  DCT338     -0.0921
      9  C1'       34.3710   22.0700   10.7060 C.3   338  DCT338      0.2063
     10  C2'       33.8280   20.9610   11.6090 C.3   338  DCT338      0.0545
     11  C3'       33.3010   21.7050   12.8400 C.3   338  DCT338      0.0366
     12  C4'       33.9450   23.0710   12.7770 C.3   338  DCT338      0.1472
     13  O4'       34.3170   23.2650   11.4080 O.3   338  DCT338     -0.3366
     14  C5'       35.1190   23.2670   13.6500 C.3   338  DCT338      0.1785
     15  O5'       34.6980   23.3720   14.9260 O.3   338  DCT338     -0.3113
     16  PA        35.7190   23.3080   16.1270 P.3   338  DCT338      0.2189
     17  O1A       35.1940   24.2290   17.1740 O.3   338  DCT338     -0.4371
     18  O2A       37.1080   23.3620   15.7030 O.2   338  DCT338     -0.5170
     19  O3A       35.4210   21.9640   16.4820 O.3   338  DCT338     -0.2700
     20  PB        34.5200   21.5900   17.5370 P.3   338  DCT338      0.2277
     21  O1B       34.2740   20.1510   17.4060 O.2   338  DCT338     -0.5168
     22  O2B       33.3940   22.6130   17.5770 O.3   338  DCT338     -0.4368
     23  O3B       35.5130   21.8480   18.6500 O.3   338  DCT338     -0.2258
     24  PG        35.3700   22.7720   19.8750 P.3   338  DCT338      0.5373
     25  O1G       34.2410   23.7120   19.5310 O.2   338  DCT338     -0.2221
     26  O2G       35.3030   21.9340   21.0980 O.3   338  DCT338     -0.1143
     27  O3G       36.7530   23.5590   19.7790 O.3   338  DCT338     -0.1143
@<TRIPOS>BOND
     1     7     2    2
     2     3     2    2
     3     3     4    2
     4     8     4    1
     5     2     1   am
     6     4     5    1
     7     1     9    1
     8     1     6    1
     9     5     6    2
    10     9    13    1
    11     9    10    1
    12    13    12    1
    13    10    11    1
    14    12    11    1
    15    12    14    1
    16    14    15    1
    17    15    16    1
    18    18    16    2
    19    16    19    1
    20    16    17    1
    21    19    20    1
    22    21    20    2
    23    20    22    1
    24    20    23    1
    25    23    24    1
    26    25    24    2
    27    27    24    1
    28    24    26    1
