@<TRIPOS>MOLECULE
2bpl_F6R_A_1.pdb
 16 15 0 0 0
SMALL
GASTEIGER

@<TRIPOS>ATOM
      1  C1         2.9940    3.9040   82.3390 C.3   1609  F6R1609     0.2175
      2  C2         3.7920    2.6070   82.4450 C.3   1609  F6R1609     0.2175
      3  C3         3.8070    1.9920   83.8080 C.3   1609  F6R1609     0.2175
      4  C4         4.2890    0.5580   83.6840 C.3   1609  F6R1609     0.2174
      5  C5         4.7310   -0.0220   84.9060 C.3   1609  F6R1609     0.2147
      6  C6         5.1870   -1.1590   84.4850 C.3   1609  F6R1609     0.1892
      7  O1         2.7810    4.2430   81.1680 O.3   1609  F6R1609    -0.2175
      8  O2         4.9200    2.5200   81.5970 O.3   1609  F6R1609    -0.2175
      9  O3         2.4680    1.7550   84.2720 O.3   1609  F6R1609    -0.2175
     10  O4         3.7540   -0.3090   82.7690 O.3   1609  F6R1609    -0.2175
     11  O5         5.1950    0.5180   85.9830 O.3   1609  F6R1609    -0.2176
     12  O6         6.4800   -1.6490   84.6650 O.3   1609  F6R1609    -0.2674
     13  P          7.0290   -2.8370   83.8070 P.3   1609  F6R1609     0.5327
     14  O1P        8.5930   -2.7060   83.7400 O.3   1609  F6R1609    -0.1145
     15  O2P        6.8120   -4.0260   84.7210 O.3   1609  F6R1609    -0.1145
     16  O3P        6.3880   -3.0290   82.5430 O.2   1609  F6R1609    -0.2224
@<TRIPOS>BOND
     1     7     1    1
     2     8     2    1
     3     1     2    1
     4     2     3    1
     5    16    13    2
     6    10     4    1
     7     4     3    1
     8     4     5    1
     9    14    13    1
    10    13    12    1
    11    13    15    1
    12     3     9    1
    13     6    12    1
    14     6     5    1
    15     5    11    1
