@<TRIPOS>MOLECULE
2bpm_529_A_1.pdb
 25 28 0 0 0
SMALL
GASTEIGER

@<TRIPOS>ATOM
      1  N1        -3.0630  202.6260  113.3500 N.am  1299  5291299    -0.1911
      2  C2        -2.6540  201.9980  114.6350 C.2   1299  5291299     0.1027
      3  C3        -1.3800  201.2110  114.3000 C.2   1299  5291299     0.1294
      4  N4        -1.2230  201.4860  112.8790 N.2   1299  5291299    -0.1603
      5  C5        -2.1620  202.2610  112.4030 C.1   1299  5291299     0.2234
      6  N6       -12.2960  204.2660  109.2250 N.2   1299  5291299    -0.0426
      7  N7       -11.1480  204.9150  109.4510 N.2   1299  5291299     0.0793
      8  C8       -10.8180  204.7010  110.7590 C.2   1299  5291299     0.3774
      9  C9       -11.7870  203.8950  111.3530 C.3   1299  5291299     0.1690
     10  C10      -12.7150  203.6320  110.3740 C.2   1299  5291299     0.0951
     11  C11      -14.0020  202.8030  110.4920 C.3   1299  5291299     0.0406
     12  C12      -14.1600  201.9880  111.7900 C.3   1299  5291299     0.0061
     13  C13      -15.2290  203.0030  111.3220 C.3   1299  5291299     0.0061
     14  N14       -9.6380  205.2810  111.3590 N.am  1299  5291299     0.0306
     15  C15       -9.1350  205.2030  112.6030 C.2   1299  5291299     0.3556
     16  C16       -7.8650  206.0490  112.8610 C.3   1299  5291299     0.1279
     17  O17       -9.6490  204.5320  113.5130 O.2   1299  5291299    -0.2425
     18  C18       -6.6220  205.1560  113.0260 C.ar  1299  5291299    -0.0114
     19  C19       -5.8220  204.9100  111.8750 C.ar  1299  5291299    -0.0024
     20  C20       -4.6790  204.1010  111.9720 C.ar  1299  5291299     0.0156
     21  C21       -4.2900  203.5030  113.2230 C.ar  1299  5291299     0.0667
     22  C22       -5.1140  203.7670  114.3740 C.ar  1299  5291299     0.0156
     23  C23       -6.2540  204.5750  114.2810 C.ar  1299  5291299    -0.0024
     24  O24       -2.1580  202.5840  111.2010 O.2   1299  5291299    -0.2053
     25  C25       -8.0950  206.9860  114.0850 C.3   1299  5291299     0.0170
@<TRIPOS>BOND
     1     6     7    1
     2     6    10    2
     3     7     8    2
     4    10    11    1
     5    10     9    1
     6    11    13    1
     7    11    12    1
     8     8     9    1
     9     8    14    1
    10    24     5    2
    11    13    12    1
    12    14    15   am
    13    19    20   ar
    14    19    18   ar
    15    20    21   ar
    16     5     4    2
    17     5     1   am
    18    15    16    1
    19    15    17    2
    20    16    18    1
    21    16    25    1
    22     4     3    1
    23    18    23   ar
    24    21     1    1
    25    21    22   ar
    26     1     2    1
    27    23    22   ar
    28     3     2    2
