@<TRIPOS>MOLECULE
2bpo_NAP_A_1.pdb
 40 43 0 0 0
SMALL
GASTEIGER

@<TRIPOS>ATOM
      1  PA        16.3730   48.8810  118.2880 P.3   753  NAP753      0.2189
      2  O1A       16.3820   47.7070  117.3270 O.2   753  NAP753     -0.5170
      3  O2A       17.6530   49.4970  118.7280 O.3   753  NAP753     -0.4371
      4  O5B       15.5010   50.1280  117.7830 O.3   753  NAP753     -0.3112
      5  C5B       14.8080   50.1030  116.5530 C.3   753  NAP753      0.1813
      6  C4B       15.3420   51.1400  115.5810 C.3   753  NAP753      0.1820
      7  O4B       15.1460   52.5300  115.9690 O.3   753  NAP753     -0.3136
      8  C3B       16.8070   51.0940  115.2710 C.3   753  NAP753      0.2157
      9  O3B       16.8840   51.1850  113.8570 O.3   753  NAP753     -0.2175
     10  C2B       17.3700   52.2710  116.0470 C.3   753  NAP753      0.2314
     11  O2B       18.6520   52.7250  115.5080 O.3   753  NAP753     -0.2630
     12  C1B       16.3680   53.2900  115.8750 C.3   753  NAP753      0.3158
     13  N9A       16.3350   54.3880  116.9100 N.pl3 753  NAP753     -0.1439
     14  C8A       17.0450   54.6280  118.0320 C.3   753  NAP753      0.3377
     15  N7A       16.6580   55.7750  118.6230 N.2   753  NAP753     -0.2095
     16  C5A       15.7120   56.2310  117.8460 C.2   753  NAP753      0.2526
     17  C6A       14.9790   57.4110  117.9910 C.2   753  NAP753      0.4393
     18  N6A       15.1570   58.2700  118.9820 N.pl3 753  NAP753      0.2180
     19  N1A       14.0270   57.6850  117.0380 N.2   753  NAP753      0.0021
     20  C2A       13.7890   56.8550  115.9880 C.3   753  NAP753      0.5254
     21  N3A       14.4850   55.7240  115.8290 N.2   753  NAP753     -0.0055
     22  C4A       15.4680   55.3900  116.7650 C.2   753  NAP753      0.3518
     23  O3        15.4060   48.5820  119.5320 O.3   753  NAP753     -0.2703
     24  PN        14.1440   47.6770  119.6990 P.3   753  NAP753      0.2189
     25  O1N       14.1140   46.7560  118.5510 O.2   753  NAP753     -0.5170
     26  O2N       12.9990   48.6260  119.8980 O.3   753  NAP753     -0.4371
     27  O5D       14.6570   46.9970  121.0420 O.3   753  NAP753     -0.3112
     28  C5D       15.3590   47.7200  122.1410 C.3   753  NAP753      0.1813
     29  C4D       15.7430   46.8370  123.2990 C.3   753  NAP753      0.1797
     30  O4D       16.1310   47.6610  124.4040 O.3   753  NAP753     -0.3336
     31  C3D       14.6250   45.8960  123.8740 C.3   753  NAP753      0.2156
     32  O3D       15.1600   44.6000  124.1600 O.3   753  NAP753     -0.2176
     33  C2D       14.1170   46.6030  125.0980 C.3   753  NAP753      0.2298
     34  O2D       13.5080   45.7160  126.0470 O.3   753  NAP753     -0.2160
     35  C1D       15.3470   47.3070  125.5900 C.3   753  NAP753      0.2397
     36  N1N       15.1980   48.6320  126.2840 N.3   753  NAP753     -0.0972
     37  P2B       19.9890   53.0320  116.2830 P.3   753  NAP753      0.5328
     38  O1X       20.3230   54.4330  115.9850 O.3   753  NAP753     -0.1145
     39  O2X       20.8310   52.0130  115.6770 O.2   753  NAP753     -0.2224
     40  O3X       19.6800   52.7550  117.7090 O.3   753  NAP753     -0.1145
@<TRIPOS>BOND
     1     9     8    1
     2     8     6    1
     3     8    10    1
     4    11    10    1
     5    11    37    1
     6     6     7    1
     7     6     5    1
     8    39    37    2
     9    21    20    1
    10    21    22    2
    11    12     7    1
    12    12    10    1
    13    12    13    1
    14    38    37    1
    15    20    19    1
    16    37    40    1
    17     5     4    1
    18    22    13    1
    19    22    16    1
    20    13    14    1
    21    19    17    2
    22     2     1    2
    23     4     1    1
    24    16    17    1
    25    16    15    2
    26    17    18    1
    27    14    15    1
    28     1     3    1
    29     1    23    1
    30    25    24    2
    31    23    24    1
    32    24    26    1
    33    24    27    1
    34    27    28    1
    35    28    29    1
    36    29    31    1
    37    29    30    1
    38    31    32    1
    39    31    33    1
    40    30    35    1
    41    33    35    1
    42    33    34    1
    43    35    36    1
