@<TRIPOS>MOLECULE
2bpo_FMN_A_1.pdb
 31 33 0 0 0
SMALL
GASTEIGER

@<TRIPOS>ATOM
      1  N1         7.2660   58.3400  132.5360 N.2   751  FMN751     -0.2890
      2  C2         6.9440   59.6520  132.4710 C.1   751  FMN751      0.3669
      3  O2         7.5590   60.4890  133.1450 O.2   751  FMN751     -0.1744
      4  N3         5.9000   59.9580  131.6090 N.2   751  FMN751     -0.2300
      5  C4         5.1590   59.0580  130.8130 C.1   751  FMN751      0.2513
      6  O4         4.2510   59.5010  130.0890 O.2   751  FMN751     -0.2057
      7  C4A        5.5500   57.6850  130.9200 C.2   751  FMN751      0.2700
      8  N5         4.8450   56.7800  130.1350 N.2   751  FMN751     -0.3878
      9  C5A        5.2940   55.4770  130.2800 C.2   751  FMN751      0.1320
     10  C6         4.6330   54.4810  129.4870 C.2   751  FMN751      0.0250
     11  C7         5.0050   53.1410  129.5400 C.2   751  FMN751     -0.0238
     12  C7M        4.2840   52.1240  128.6830 C.3   751  FMN751      0.0308
     13  C8         6.0750   52.7470  130.4120 C.2   751  FMN751     -0.0280
     14  C8M        6.5520   51.3180  130.5380 C.3   751  FMN751      0.0304
     15  C9         6.7010   53.6680  131.1610 C.2   751  FMN751     -0.0041
     16  C9A        6.3570   55.0340  131.1330 C.3   751  FMN751      0.1497
     17  N10        7.0260   56.0100  131.9140 N.pl3 751  FMN751     -0.2691
     18  C10        6.6230   57.3960  131.8110 C.2   751  FMN751      0.2416
     19  C1'        8.1080   55.5680  132.7920 C.3   751  FMN751      0.1294
     20  C2'        7.7160   55.2400  134.2140 C.3   751  FMN751      0.2044
     21  O2'        7.1410   56.3630  134.8750 O.3   751  FMN751     -0.2185
     22  C3'        8.9370   54.7410  134.9940 C.3   751  FMN751      0.2164
     23  O3'        9.5720   53.6500  134.3380 O.3   751  FMN751     -0.2175
     24  C4'        8.6500   54.2180  136.4070 C.3   751  FMN751      0.2147
     25  O4'        9.8640   53.7880  136.9630 O.3   751  FMN751     -0.2176
     26  C5'        7.6680   53.0420  136.4220 C.3   751  FMN751      0.1892
     27  O5'        7.3890   52.5630  137.7530 O.3   751  FMN751     -0.2674
     28  P          6.4110   51.3560  138.0820 P.3   751  FMN751      0.5327
     29  O1P        6.1860   51.5600  139.5030 O.3   751  FMN751     -0.1145
     30  O2P        7.2180   50.1870  137.7290 O.3   751  FMN751     -0.1145
     31  O3P        5.2090   51.5940  137.2740 O.2   751  FMN751     -0.2224
@<TRIPOS>BOND
     1    12    11    1
     2    10    11    2
     3    10     9    1
     4    11    13    1
     5     6     5    2
     6     8     9    2
     7     8     7    2
     8     9    16    1
     9    13    14    1
    10    13    15    2
    11     5     7    1
    12     5     4    2
    13     7    18    1
    14    16    15    1
    15    16    17    1
    16     4     2    2
    17    18    17    1
    18    18     1    2
    19    17    19    1
    20     2     1    2
    21     2     3    2
    22    19    20    1
    23    20    21    1
    24    20    22    1
    25    23    22    1
    26    22    24    1
    27    24    26    1
    28    24    25    1
    29    26    27    1
    30    31    28    2
    31    30    28    1
    32    27    28    1
    33    28    29    1
