@<TRIPOS>MOLECULE
2bpv_1IN_B_1.pdb
 45 48 0 0 0
SMALL
GASTEIGER

@<TRIPOS>ATOM
      1  C1         9.1790   24.0720    4.1940 C.3   902  1IN902      0.1187
      2  C2        10.3520   24.9650    4.6250 C.3   902  1IN902      0.1566
      3  C3        10.4030   24.9800    6.1450 C.2   902  1IN902      0.2575
      4  O4        18.5740   19.9240    4.9050 O.3   902  1IN902     -0.2213
      5  O5         7.9940   24.6190    0.8360 O.2   902  1IN902     -0.2749
      6  C7         8.9360   25.3950    8.7340 C.3   902  1IN902      0.0217
      7  C8        11.5130   24.4110    2.5520 C.3   902  1IN902      0.0943
      8  C9        10.3200   23.6040    2.0830 C.3   902  1IN902      0.1108
      9  C10       12.7820   25.3030    4.4560 C.3   902  1IN902      0.1057
     10  C11       13.9320   24.3120    4.6850 C.3   902  1IN902      0.1684
     11  C12       14.0160   23.8310    6.1350 C.3   902  1IN902      0.0438
     12  C13       15.1810   22.8870    6.4560 C.3   902  1IN902      0.0851
     13  C14       15.2650   22.7560    7.9780 C.3   902  1IN902      0.0356
     14  C15       16.3790   21.8410    8.4250 C.ar  902  1IN902     -0.0217
     15  C16       17.7130   22.1450    8.1520 C.ar  902  1IN902     -0.0043
     16  C19       17.0270   19.8330    9.6040 C.ar  902  1IN902     -0.0003
     17  C20       16.0300   20.6850    9.1320 C.ar  902  1IN902     -0.0043
     18  C21       14.9790   21.5070    5.8020 C.2   902  1IN902      0.2413
     19  C22       16.1910   19.5270    5.0220 C.3   902  1IN902      0.1255
     20  C24       17.6090   17.7380    4.5580 C.3   902  1IN902      0.0347
     21  C27        5.5540   25.1720    2.1490 C.3   902  1IN902      0.0375
     22  C30       15.7440   19.0140    3.6240 C.3   902  1IN902      0.0226
     23  C31        8.0320   24.5460    2.0640 C.2   902  1IN902      0.2261
     24  C32        3.0940   24.9920    2.1330 C.ar  902  1IN902     -0.0011
     25  C33        1.8720   24.9440    2.8110 C.ar  902  1IN902      0.0204
     26  C34        1.9020   24.9680    4.2130 C.ar  902  1IN902      0.0989
     27  C35        4.2320   25.0690    4.2470 C.ar  902  1IN902      0.0946
     28  N1         9.1250   24.1110    2.7380 N.am  902  1IN902     -0.2762
     29  O1        10.7290   23.9600    6.7590 O.2   902  1IN902     -0.2718
     30  N2        10.0420   26.1670    6.6910 N.am  902  1IN902     -0.2077
     31  C4         9.9590   26.3750    8.1290 C.3   902  1IN902      0.0788
     32  C5         9.4660   27.8180    8.3590 C.3   902  1IN902      0.0217
     33  C6        11.3400   26.2050    8.7790 C.3   902  1IN902      0.0217
     34  N3        11.6290   24.5080    4.0130 N.3   902  1IN902     -0.2614
     35  O2        15.1430   24.9890    4.3710 O.3   902  1IN902     -0.2216
     36  C17       18.7140   21.2920    8.6110 C.ar  902  1IN902     -0.0003
     37  C18       18.3710   20.1370    9.3370 C.ar  902  1IN902     -0.0000
     38  O3        13.8740   20.9640    5.7880 O.2   902  1IN902     -0.2733
     39  N4        16.0820   20.9730    5.2500 N.am  902  1IN902     -0.2046
     40  C23       17.5960   19.0150    5.4040 C.3   902  1IN902      0.1718
     41  C25       16.8530   18.0060    3.3020 C.3   902  1IN902      0.0045
     42  C29       15.7270   20.1160    2.6030 C.3   902  1IN902      0.0018
     43  C26        6.8300   24.9450    2.8330 C.3   902  1IN902      0.0900
     44  C28        4.2870   25.0620    2.8540 C.ar  902  1IN902     -0.0025
     45  N5         3.0610   25.0130    4.8690 N.ar  902  1IN902     -0.2426
@<TRIPOS>BOND
     1     5    23    2
     2    23    28   am
     3    23    43    1
     4     8     7    1
     5     8    28    1
     6    24    25   ar
     7    24    44   ar
     8    21    43    1
     9    21    44    1
    10     7    34    1
    11    42    22    1
    12    28     1    1
    13    25    26   ar
    14    44    27   ar
    15    41    22    1
    16    41    20    1
    17    22    19    1
    18    34     9    1
    19    34     2    1
    20     1     2    1
    21    26    45   ar
    22    27    45   ar
    23    35    10    1
    24     9    10    1
    25    20    40    1
    26     2     3    1
    27    10    11    1
    28     4    40    1
    29    19    39    1
    30    19    40    1
    31    39    18   am
    32    38    18    2
    33    18    12    1
    34    11    12    1
    35     3    30   am
    36     3    29    2
    37    12    13    1
    38    30    31    1
    39    13    14    1
    40    31    32    1
    41    31     6    1
    42    31    33    1
    43    15    14   ar
    44    15    36   ar
    45    14    17   ar
    46    36    37   ar
    47    17    16   ar
    48    37    16   ar
