@<TRIPOS>MOLECULE
2bpw_1IN_B_1.pdb
 45 48 0 0 0
SMALL
GASTEIGER

@<TRIPOS>ATOM
      1  C1         9.0940   24.2220    4.2110 C.3   902  1IN902      0.1187
      2  C2        10.3180   25.0550    4.6380 C.3   902  1IN902      0.1566
      3  C3        10.3730   25.1310    6.1650 C.2   902  1IN902      0.2575
      4  O4        18.5560   19.8590    4.7550 O.3   902  1IN902     -0.2213
      5  O5         7.9310   24.6860    0.7920 O.2   902  1IN902     -0.2749
      6  C7         8.7620   25.3260    8.7470 C.3   902  1IN902      0.0217
      7  C8        11.4490   24.3550    2.6010 C.3   902  1IN902      0.0943
      8  C9        10.2180   23.5890    2.1410 C.3   902  1IN902      0.1108
      9  C10       12.7650   25.2340    4.5140 C.3   902  1IN902      0.1057
     10  C11       13.9010   24.2110    4.6820 C.3   902  1IN902      0.1684
     11  C12       14.1110   23.7960    6.1460 C.3   902  1IN902      0.0438
     12  C13       15.2510   22.8110    6.4510 C.3   902  1IN902      0.0851
     13  C14       15.3830   22.6640    7.9670 C.3   902  1IN902      0.0356
     14  C15       16.4790   21.7420    8.4210 C.ar  902  1IN902     -0.0217
     15  C16       17.8060   21.9690    8.0560 C.ar  902  1IN902     -0.0043
     16  C19       17.1650   19.9220    9.8640 C.ar  902  1IN902     -0.0003
     17  C20       16.1590   20.7040    9.2950 C.ar  902  1IN902     -0.0043
     18  C21       15.0160   21.4530    5.7800 C.2   902  1IN902      0.2413
     19  C22       16.2000   19.4390    4.9310 C.3   902  1IN902      0.1255
     20  C24       17.6230   17.7050    4.2180 C.3   902  1IN902      0.0347
     21  C27        5.4980   25.1750    2.0720 C.3   902  1IN902      0.0375
     22  C30       15.6620   18.9730    3.5450 C.3   902  1IN902      0.0226
     23  C31        7.9880   24.6750    2.0210 C.2   902  1IN902      0.2261
     24  C32        3.0620   24.8570    2.1850 C.ar  902  1IN902     -0.0011
     25  C33        1.8680   24.8220    2.9110 C.ar  902  1IN902      0.0204
     26  C34        1.9540   24.9980    4.2960 C.ar  902  1IN902      0.0989
     27  C35        4.2710   25.2160    4.2190 C.ar  902  1IN902      0.0946
     28  N1         9.0410   24.1990    2.7430 N.am  902  1IN902     -0.2762
     29  O1        10.9500   24.2430    6.8020 O.2   902  1IN902     -0.2718
     30  N2         9.7620   26.2240    6.7000 N.am  902  1IN902     -0.2077
     31  C4         9.6420   26.4370    8.1380 C.3   902  1IN902      0.0788
     32  C5         8.9790   27.8040    8.3960 C.3   902  1IN902      0.0217
     33  C6        11.0310   26.4430    8.8060 C.3   902  1IN902      0.0217
     34  N3        11.5700   24.5040    4.0610 N.3   902  1IN902     -0.2614
     35  O2        15.1130   24.8010    4.2330 O.3   902  1IN902     -0.2216
     36  C17       18.8240   21.1990    8.6270 C.ar  902  1IN902     -0.0003
     37  C18       18.5030   20.1880    9.5460 C.ar  902  1IN902     -0.0000
     38  O3        13.8860   20.9770    5.7050 O.2   902  1IN902     -0.2733
     39  N4        16.1330   20.8760    5.2780 N.am  902  1IN902     -0.2046
     40  C23       17.6170   18.8820    5.1970 C.3   902  1IN902      0.1718
     41  C25       16.8140   18.1110    3.0320 C.3   902  1IN902      0.0045
     42  C29       15.4290   20.1310    2.6060 C.3   902  1IN902      0.0018
     43  C26        6.8090   25.2110    2.7320 C.3   902  1IN902      0.0900
     44  C28        4.2720   25.0620    2.8360 C.ar  902  1IN902     -0.0025
     45  N5         3.1320   25.1810    4.8900 N.ar  902  1IN902     -0.2426
@<TRIPOS>BOND
     1     5    23    2
     2    23    43    1
     3    23    28   am
     4    21    43    1
     5    21    44    1
     6     8     7    1
     7     8    28    1
     8    24    44   ar
     9    24    25   ar
    10     7    34    1
    11    42    22    1
    12    28     1    1
    13    44    27   ar
    14    25    26   ar
    15    41    22    1
    16    41    20    1
    17    22    19    1
    18    34     9    1
    19    34     2    1
    20     1     2    1
    21    20    40    1
    22    27    45   ar
    23    35    10    1
    24    26    45   ar
    25     9    10    1
    26     2     3    1
    27    10    11    1
    28     4    40    1
    29    19    40    1
    30    19    39    1
    31    39    18   am
    32    38    18    2
    33    18    12    1
    34    11    12    1
    35     3    30   am
    36     3    29    2
    37    12    13    1
    38    30    31    1
    39    13    14    1
    40    15    14   ar
    41    15    36   ar
    42    31    32    1
    43    31     6    1
    44    31    33    1
    45    14    17   ar
    46    36    37   ar
    47    17    16   ar
    48    37    16   ar
