@<TRIPOS>MOLECULE
2bpx_MK1_B_1.pdb
 45 49 0 0 0
SMALL
GASTEIGER

@<TRIPOS>ATOM
      1  N1         9.3350   24.4680    3.1140 N.3   902  MK1902     -0.2661
      2  C1         9.4030   24.7380    4.5690 C.3   902  MK1902      0.0980
      3  C2        10.7000   25.4630    4.9540 C.3   902  MK1902      0.1527
      4  C3        10.7510   25.6770    6.4560 C.2   902  MK1902      0.2572
      5  O1        11.1530   24.7800    7.1970 O.2   902  MK1902     -0.2718
      6  N2        10.3340   26.8990    6.8710 N.am  902  MK1902     -0.2077
      7  C4        10.0620   27.2130    8.2730 C.3   902  MK1902      0.0788
      8  C5         9.4680   28.6120    8.3850 C.3   902  MK1902      0.0217
      9  C6        11.3670   27.1240    9.1060 C.3   902  MK1902      0.0217
     10  C7         8.9380   26.3030    8.7870 C.3   902  MK1902      0.0217
     11  N3        11.8610   24.6450    4.5220 N.3   902  MK1902     -0.2619
     12  C8        11.7780   24.4290    3.0710 C.3   902  MK1902      0.0901
     13  C9        10.5050   23.6980    2.6900 C.3   902  MK1902      0.0899
     14  C10       13.0700   25.4950    4.5650 C.3   902  MK1902      0.1057
     15  C11       14.3490   24.8390    5.1220 C.3   902  MK1902      0.1684
     16  O2        15.3090   25.6670    4.8290 O.3   902  MK1902     -0.2216
     17  C12       14.4490   24.5420    6.6320 C.3   902  MK1902      0.0438
     18  C13       15.6490   23.7130    7.1090 C.3   902  MK1902      0.0851
     19  C14       15.7550   23.6090    8.6300 C.3   902  MK1902      0.0356
     20  C15       16.9130   22.7260    9.0480 C.ar  902  MK1902     -0.0217
     21  C16       18.2390   22.9930    8.6660 C.ar  902  MK1902     -0.0043
     22  C17       19.2700   22.0890    8.9830 C.ar  902  MK1902     -0.0003
     23  C18       18.9350   20.9140    9.6970 C.ar  902  MK1902     -0.0000
     24  C19       17.6150   20.6460   10.1220 C.ar  902  MK1902     -0.0003
     25  C20       16.6110   21.5740    9.7870 C.ar  902  MK1902     -0.0043
     26  C21       15.5650   22.3400    6.5350 C.2   902  MK1902      0.2416
     27  O3        14.5180   21.6910    6.5700 O.2   902  MK1902     -0.2733
     28  N4        16.7330   21.8940    6.0900 N.am  902  MK1902     -0.2001
     29  C22       16.8990   20.4760    5.8320 C.3   902  MK1902      0.1477
     30  C23       18.3450   19.9970    6.0790 C.3   902  MK1902      0.1802
     31  O4        19.2450   20.7140    5.4160 O.3   902  MK1902     -0.2206
     32  C24       18.4690   18.6210    5.4960 C.3   902  MK1902      0.0611
     33  C25       17.6110   18.9380    4.2480 C.ar  902  MK1902     -0.0218
     34  C26       17.5970   18.2200    3.0320 C.ar  902  MK1902     -0.0044
     35  C27       16.6960   18.6660    2.0380 C.ar  902  MK1902     -0.0003
     36  C28       15.8570   19.8020    2.2470 C.ar  902  MK1902     -0.0003
     37  C29       15.8770   20.4950    3.4800 C.ar  902  MK1902     -0.0029
     38  C30       16.7610   20.0340    4.4520 C.ar  902  MK1902     -0.0040
     39  C31        8.2090   23.5460    2.9300 C.3   902  MK1902      0.1008
     40  C32        6.8650   24.2590    2.8410 C.ar  902  MK1902      0.0130
     41  C33        6.6250   25.2420    1.8560 C.ar  902  MK1902      0.0959
     42  N5         5.4280   25.8340    1.7700 N.ar  902  MK1902     -0.2426
     43  C34        4.4200   25.5290    2.6030 C.ar  902  MK1902      0.0989
     44  C35        4.5560   24.5550    3.6240 C.ar  902  MK1902      0.0204
     45  C36        5.8140   23.9240    3.7240 C.ar  902  MK1902      0.0002
@<TRIPOS>BOND
     1    42    41   ar
     2    42    43   ar
     3    41    40   ar
     4    35    36   ar
     5    35    34   ar
     6    36    37   ar
     7    43    44   ar
     8    13    12    1
     9    13     1    1
    10    40    39    1
    11    40    45   ar
    12    39     1    1
    13    34    33   ar
    14    12    11    1
    15     1     2    1
    16    37    38   ar
    17    44    45   ar
    18    33    38   ar
    19    33    32    1
    20    38    29    1
    21    11    14    1
    22    11     3    1
    23    14    15    1
    24     2     3    1
    25    16    15    1
    26     3     4    1
    27    15    17    1
    28    31    30    1
    29    32    30    1
    30    29    30    1
    31    29    28    1
    32    28    26   am
    33     4     6   am
    34     4     5    2
    35    26    27    2
    36    26    18    1
    37    17    18    1
    38     6     7    1
    39    18    19    1
    40     7     8    1
    41     7    10    1
    42     7     9    1
    43    19    20    1
    44    21    22   ar
    45    21    20   ar
    46    22    23   ar
    47    20    25   ar
    48    23    24   ar
    49    25    24   ar
