@<TRIPOS>MOLECULE
2bq1_DGT_E_1.pdb
 31 33 0 0 0
SMALL
GASTEIGER

@<TRIPOS>ATOM
      1  PG       112.0170   67.2370  153.7740 P.3   1700  DGT1700     0.5373
      2  O1G      111.3000   66.4980  152.5880 O.2   1700  DGT1700    -0.2221
      3  O2G      112.6240   66.1610  154.7910 O.3   1700  DGT1700    -0.1143
      4  O3G      110.9430   68.2070  154.4330 O.3   1700  DGT1700    -0.1143
      5  O3B      113.2400   68.1140  153.2320 O.3   1700  DGT1700    -0.2258
      6  PB       112.9850   69.6650  152.8680 P.3   1700  DGT1700     0.2277
      7  O1B      111.6770   69.6720  151.9230 O.2   1700  DGT1700    -0.5168
      8  O2B      114.3230   70.2820  152.2700 O.3   1700  DGT1700    -0.4368
      9  O3A      112.5750   70.3670  154.3060 O.3   1700  DGT1700    -0.2700
     10  PA       111.6300   71.6340  154.5300 P.3   1700  DGT1700     0.2189
     11  O1A      112.3920   72.9600  154.0780 O.3   1700  DGT1700    -0.4371
     12  O2A      110.2790   71.5110  153.7290 O.2   1700  DGT1700    -0.5170
     13  O5'      111.3550   71.8190  156.0970 O.3   1700  DGT1700    -0.3112
     14  C5'      110.6930   70.8340  156.9070 C.3   1700  DGT1700     0.1812
     15  C4'      110.8560   71.1890  158.3950 C.3   1700  DGT1700     0.1772
     16  O4'      112.2160   71.0030  158.8310 O.3   1700  DGT1700    -0.3347
     17  C3'      110.5430   72.6410  158.5970 C.3   1700  DGT1700     0.1857
     18  O3'      109.5840   72.6790  159.6560 O.3   1700  DGT1700    -0.2203
     19  C2'      111.7770   73.2820  159.1530 C.3   1700  DGT1700     0.0865
     20  C1'      112.8310   72.2220  159.2550 C.3   1700  DGT1700     0.1981
     21  N9       113.9620   72.4260  158.3420 N.pl3 1700  DGT1700    -0.2374
     22  C8       114.0870   72.1120  157.0290 C.3   1700  DGT1700     0.2245
     23  N7       115.3130   72.4650  156.5230 N.2   1700  DGT1700    -0.2322
     24  C5       115.9870   73.0340  157.5520 C.2   1700  DGT1700     0.2182
     25  C6       117.3000   73.6570  157.8480 C.1   1700  DGT1700     0.2372
     26  O6       118.1550   73.7540  156.9440 O.2   1700  DGT1700    -0.2069
     27  N1       117.5800   74.1170  159.0700 N.2   1700  DGT1700    -0.2485
     28  C2       116.7150   74.0550  160.1010 C.1   1700  DGT1700     0.2531
     29  N2       117.0860   74.5430  161.3030 N.pl3 1700  DGT1700    -0.0226
     30  N3       115.4830   73.5170  159.9730 N.2   1700  DGT1700    -0.3074
     31  C4       115.0990   72.9920  158.6860 C.2   1700  DGT1700     0.2299
@<TRIPOS>BOND
     1     7     6    2
     2     8     6    1
     3     2     1    2
     4     6     5    1
     5     6     9    1
     6     5     1    1
     7    12    10    2
     8     1     4    1
     9     1     3    1
    10    11    10    1
    11     9    10    1
    12    10    13    1
    13    13    14    1
    14    23    22    1
    15    23    24    2
    16    14    15    1
    17    26    25    2
    18    22    21    1
    19    24    25    1
    20    24    31    1
    21    25    27    2
    22    21    31    1
    23    21    20    1
    24    15    17    1
    25    15    16    1
    26    17    19    1
    27    17    18    1
    28    31    30    2
    29    16    20    1
    30    27    28    2
    31    19    20    1
    32    30    28    2
    33    28    29    1
