@<TRIPOS>MOLECULE
2bq4_HEC_A_1.pdb
 43 50 0 0 0
SMALL
GASTEIGER

@<TRIPOS>ATOM
      1 FE         -5.0950    3.9130   12.4870 Fe    1115  HEC1115     0.0000
      2  CHA       -5.0390    6.0500   15.2410 C.2   1115  HEC1115     0.0000
      3  CHB       -7.8460    5.5240   11.3240 C.2   1115  HEC1115     0.0000
      4  CHC       -5.1010    1.8820    9.6610 C.2   1115  HEC1115     0.0000
      5  CHD       -2.4640    2.1920   13.7230 C.2   1115  HEC1115     0.0000
      6  NA        -6.2070    5.4810   13.1580 N.ar  1115  HEC1115     0.0000
      7  C1A       -6.0230    6.2340   14.3020 C.ar  1115  HEC1115     0.0000
      8  C2A       -7.0440    7.2580   14.3350 C.ar  1115  HEC1115     0.0000
      9  C3A       -7.8150    7.1190   13.2570 C.ar  1115  HEC1115     0.0000
     10  C4A       -7.3090    5.9980   12.4960 C.ar  1115  HEC1115     0.0000
     11  CMA       -9.0430    7.9900   12.8950 C.3   1115  HEC1115     0.0000
     12  CAA       -7.1930    8.3220   15.4380 C.3   1115  HEC1115     0.0000
     13  CBA       -7.8700    7.6590   16.6310 C.3   1115  HEC1115     0.0000
     14  CGA       -7.7520    8.5780   17.8140 C.2   1115  HEC1115     0.0000
     15  O1A       -8.6920    9.3810   18.0260 O.co2 1115  HEC1115     0.0000
     16  O2A       -6.7120    8.5030   18.5250 O.co2 1115  HEC1115     0.0000
     17  NB        -6.2360    3.7340   10.8130 N.2   1115  HEC1115     0.0000
     18  C1B       -7.3490    4.5070   10.5420 C.2   1115  HEC1115     0.0000
     19  C2B       -7.8910    4.0690    9.2720 C.2   1115  HEC1115     0.0000
     20  C3B       -7.1240    3.0660    8.8070 C.2   1115  HEC1115     0.0000
     21  C4B       -6.0740    2.8400    9.7720 C.2   1115  HEC1115     0.0000
     22  CMB       -9.1540    4.6650    8.6110 C.3   1115  HEC1115     0.0000
     23  CAB       -7.2810    2.2330    7.5050 C.3   1115  HEC1115     0.0000
     24  CBB       -7.2940    2.9660    6.3780 C.3   1115  HEC1115     0.0000
     25  NC        -4.0450    2.3550   11.8280 N.ar  1115  HEC1115     0.0000
     26  C1C       -4.1570    1.6640   10.6240 C.ar  1115  HEC1115     0.0000
     27  C2C       -3.0780    0.7100   10.5130 C.ar  1115  HEC1115     0.0000
     28  C3C       -2.3810    0.7880   11.6540 C.ar  1115  HEC1115     0.0000
     29  C4C       -2.9580    1.8210   12.4900 C.ar  1115  HEC1115     0.0000
     30  CMC       -2.8950   -0.2950    9.3420 C.3   1115  HEC1115     0.0000
     31  CAC       -1.1490   -0.0490   12.0790 C.3   1115  HEC1115     0.0000
     32  CBC       -0.1940   -0.1060   11.1400 C.3   1115  HEC1115     0.0000
     33  ND        -3.9300    4.1240   14.1930 N.2   1115  HEC1115     0.0000
     34  C1D       -2.9220    3.2050   14.5130 C.2   1115  HEC1115     0.0000
     35  C2D       -2.4160    3.4990   15.8300 C.2   1115  HEC1115     0.0000
     36  C3D       -3.2250    4.6990   16.2970 C.2   1115  HEC1115     0.0000
     37  C4D       -4.1310    5.0240   15.2300 C.2   1115  HEC1115     0.0000
     38  CMD       -1.3080    2.7790   16.6230 C.3   1115  HEC1115     0.0000
     39  CAD       -3.0810    5.3910   17.6490 C.3   1115  HEC1115     0.0000
     40  CBD       -1.8620    6.2920   17.6150 C.3   1115  HEC1115     0.0000
     41  CGD       -1.8180    7.0290   18.9190 C.2   1115  HEC1115     0.0000
     42  O1D       -2.0070    6.3690   19.9750 O.co2 1115  HEC1115     0.0000
     43  O2D       -1.6040    8.2730   18.8860 O.co2 1115  HEC1115     0.0000
@<TRIPOS>BOND
     1    24    23    1
     2    23    20    1
     3    22    19    1
     4    20    19    2
     5    20    21    1
     6    19    18    1
     7    30    27    1
     8     4    21    2
     9     4    26    1
    10    21    17    1
    11    27    26   ar
    12    27    28   ar
    13    18    17    2
    14    18     3    1
    15    26    25   ar
    16    17     1    1
    17    32    31    1
    18     3    10    2
    19    28    31    1
    20    28    29   ar
    21    25     1    1
    22    25    29   ar
    23     1     6    1
    24     1    33    1
    25    29     5    1
    26    10     6   ar
    27    10     9   ar
    28    11     9    1
    29     6     7   ar
    30     9     8   ar
    31     5    34    2
    32    33    34    1
    33    33    37    2
    34     7     8   ar
    35     7     2    2
    36     8    12    1
    37    34    35    1
    38    37     2    1
    39    37    36    1
    40    12    13    1
    41    35    36    2
    42    35    38    1
    43    36    39    1
    44    13    14    1
    45    40    39    1
    46    40    41    1
    47    14    15   ar
    48    14    16   ar
    49    43    41   ar
    50    41    42   ar
