@<TRIPOS>MOLECULE
2bq6_IIB_B_1.pdb
 36 40 0 0 0
SMALL
GASTEIGER

@<TRIPOS>ATOM
      1  C1         1.4830    7.4450   25.1880 C.ar  1246  IIB1246    -0.0028
      2  C2         2.6010    7.7340   24.3340 C.ar  1246  IIB1246    -0.0060
      3  C3         3.2800    6.6720   23.6180 C.ar  1246  IIB1246     0.0569
      4  C4         2.7860    5.3150   23.8010 C.ar  1246  IIB1246     0.0267
      5  C5         1.6640    5.0540   24.6630 C.ar  1246  IIB1246     0.0021
      6  C6         1.0130    6.1090   25.3550 C.ar  1246  IIB1246    -0.0002
      7  N7         4.3900    6.5600   22.7050 N.ar  1246  IIB1246    -0.3175
      8  C8         4.6050    5.2090   22.3300 C.ar  1246  IIB1246     0.1256
      9  C9         3.6100    4.4520   23.0040 C.ar  1246  IIB1246     0.0901
     10  C10        5.6200    4.7020   21.4550 C.2   1246  IIB1246     0.2813
     11  N11        5.2800    3.7710   20.5390 N.am  1246  IIB1246    -0.2021
     12  C12        6.2710    3.0090   19.7730 C.3   1246  IIB1246     0.0984
     13  C13        6.0240    1.5000   19.8730 C.3   1246  IIB1246     0.0390
     14  C14        7.1010    0.7460   19.0440 C.3   1246  IIB1246     0.0738
     15  N15        7.1840    1.2640   17.6260 N.3   1246  IIB1246    -0.2738
     16  C16        7.4400    2.7220   17.5370 C.3   1246  IIB1246     0.0738
     17  C17        6.3280    3.4770   18.2980 C.3   1246  IIB1246     0.0390
     18  C27        8.1520    0.5710   16.6930 C.3   1246  IIB1246     0.0576
     19  C28        7.3500    0.0620   15.4970 C.3   1246  IIB1246     0.0173
     20  C32        8.9310   -0.6000   17.3480 C.3   1246  IIB1246     0.0173
     21  C37        5.2150    7.7200   22.2140 C.3   1246  IIB1246     0.1554
     22  C38        6.5760    7.8990   22.8390 C.ar  1246  IIB1246     0.1235
     23  N41        7.4240    8.8780   22.4140 N.ar  1246  IIB1246    -0.0794
     24  O42        8.5000    8.7620   23.1290 O.2   1246  IIB1246    -0.3531
     25  C43        8.3700    7.7440   24.0000 C.ar  1246  IIB1246     0.1826
     26  C44        7.1390    7.1320   23.8700 C.ar  1246  IIB1246     0.0606
     27  C45        9.4120    7.3040   24.9570 C.ar  1246  IIB1246     0.0674
     28  S46       11.0360    7.5270   24.6110 S.2   1246  IIB1246    -0.0723
     29  C47       11.4480    6.7720   26.0600 C.ar  1246  IIB1246     0.0871
     30  C48       10.3520    6.3440   26.8410 C.ar  1246  IIB1246     0.0186
     31  C49        9.1310    6.6580   26.1870 C.ar  1246  IIB1246     0.0110
     32 CL50       13.0880    6.5540   26.4870 Cl    1246  IIB1246    -0.0752
     33  O56        6.7840    5.0730   21.5730 O.2   1246  IIB1246    -0.2668
     34  C7         3.3940    3.0140   22.9480 C.1   1246  IIB1246     0.1021
     35  N1         3.1850    1.8890   22.8850 N.1   1246  IIB1246    -0.1908
     36  C11        2.9490    9.1740   24.2890 C.3   1246  IIB1246     0.0325
@<TRIPOS>BOND
     1    19    18    1
     2    18    20    1
     3    18    15    1
     4    16    15    1
     5    16    17    1
     6    15    14    1
     7    17    12    1
     8    14    13    1
     9    12    13    1
    10    12    11    1
    11    11    10   am
    12    10    33    2
    13    10     8    1
    14    21     7    1
    15    21    22    1
    16     8     7   ar
    17     8     9   ar
    18    23    22   ar
    19    23    24   ar
    20     7     3   ar
    21    22    26   ar
    22    35    34    3
    23    34     9    1
    24     9     4   ar
    25    24    25   ar
    26     3     4   ar
    27     3     2   ar
    28     4     5   ar
    29    26    25   ar
    30    25    27    1
    31    36     2    1
    32     2     1   ar
    33    28    27   ar
    34    28    29   ar
    35     5     6   ar
    36    27    31   ar
    37     1     6   ar
    38    29    32    1
    39    29    30   ar
    40    31    30   ar
