@<TRIPOS>MOLECULE
2bq7_IID_A_1.pdb
 30 33 0 0 0
SMALL
GASTEIGER

@<TRIPOS>ATOM
      1  C1         2.9280   10.1710   25.6810 C.ar  1001  IID1001     0.0015
      2  C2         4.1290    9.3140   25.6060 C.ar  1001  IID1001     0.0172
      3  C3         4.5190    8.6980   24.3160 C.ar  1001  IID1001     0.0603
      4  C4         3.6890    8.9150   23.0960 C.ar  1001  IID1001     0.0174
      5  C5         2.5090    9.7940   23.1820 C.ar  1001  IID1001     0.0015
      6  C6         2.1280   10.4270   24.4640 C.ar  1001  IID1001     0.0001
      7  N7         5.5630    7.8600   23.9420 N.ar  1001  IID1001    -0.3194
      8  C8         5.4000    7.5430   22.6360 C.ar  1001  IID1001     0.1159
      9  C9         4.2690    8.1570   22.0620 C.ar  1001  IID1001     0.0233
     10  C11        6.2190    6.6620   21.9460 C.2   1001  IID1001     0.2806
     11  N12        5.6200    5.8960   21.0150 N.am  1001  IID1001    -0.2021
     12  C13        6.5290    4.8740   20.5510 C.3   1001  IID1001     0.0984
     13  C14        7.1480    5.2740   19.2120 C.3   1001  IID1001     0.0390
     14  C17        6.6300    7.3370   24.8480 C.3   1001  IID1001     0.1330
     15  C18        7.9910    8.0540   24.9150 C.ar  1001  IID1001     0.0034
     16  C21        8.4230    9.1450   23.9950 C.ar  1001  IID1001    -0.0022
     17  C22        9.7460    9.7500   24.1690 C.ar  1001  IID1001     0.0029
     18  C23       10.6360    9.2850   25.2370 C.ar  1001  IID1001     0.0369
     19  C24       10.2270    8.2260   26.1600 C.ar  1001  IID1001     0.1385
     20  C25        8.9040    7.6040   25.9830 C.ar  1001  IID1001     0.0345
     21  C26        8.1740    4.2590   18.7010 C.3   1001  IID1001     0.0738
     22  O1        11.1410    7.9520   27.1750 O.3   1001  IID1001    -0.4714
     23  O45        7.4220    6.5950   22.2000 O.2   1001  IID1001    -0.2668
     24  C7        11.1000    6.7610   27.9850 C.3   1001  IID1001     0.2525
     25  C10        5.8550    3.5200   20.3430 C.3   1001  IID1001     0.0390
     26  C12        6.8320    2.4410   19.8490 C.3   1001  IID1001     0.0738
     27  N1         7.5590    2.9000   18.6120 N.3   1001  IID1001    -0.2738
     28  C16        8.5080    1.8250   18.2030 C.3   1001  IID1001     0.0576
     29  C19        9.5270    2.2250   17.1470 C.3   1001  IID1001     0.0173
     30  C20        7.7150    0.6220   17.7310 C.3   1001  IID1001     0.0173
@<TRIPOS>BOND
     1    29    28    1
     2    30    28    1
     3    28    27    1
     4    27    21    1
     5    27    26    1
     6    21    13    1
     7    13    12    1
     8    26    25    1
     9    25    12    1
    10    12    11    1
    11    11    10   am
    12    10    23    2
    13    10     8    1
    14     9     8   ar
    15     9     4   ar
    16     8     7   ar
    17     4     5   ar
    18     4     3   ar
    19     5     6   ar
    20     7     3   ar
    21     7    14    1
    22    16    17   ar
    23    16    15   ar
    24    17    18   ar
    25     3     2   ar
    26     6     1   ar
    27    14    15    1
    28    15    20   ar
    29    18    19   ar
    30     2     1   ar
    31    20    19   ar
    32    19    22    1
    33    22    24    1
