@<TRIPOS>MOLECULE
2bqp_GLC_A_1.pdb
 13 13 0 0 0
SMALL
GASTEIGER

@<TRIPOS>ATOM
      1  C1        47.2870   53.2140    7.0180 C.3   337  GLC337      0.3023
      2  C2        47.6480   53.9590    8.3000 C.3   337  GLC337      0.2434
      3  C3        46.7250   53.4920    9.4190 C.3   337  GLC337      0.2199
      4  C4        45.2670   53.6600    9.0170 C.3   337  GLC337      0.2140
      5  C5        45.0030   52.9710    7.6810 C.3   337  GLC337      0.1769
      6  C6        43.5980   53.2060    7.1470 C.3   337  GLC337      0.1604
      7  O1        47.4460   51.8510    7.2170 O.3   337  GLC337     -0.1869
      8  O2        48.9980   53.6840    8.6510 O.3   337  GLC337     -0.2148
      9  O3        46.9740   54.2280   10.6050 O.3   337  GLC337     -0.2174
     10  O4        44.4510   53.0880   10.0260 O.3   337  GLC337     -0.2176
     11  O5        45.9180   53.4610    6.6790 O.3   337  GLC337     -0.3241
     12  O6        43.4450   54.5300    6.6530 O.3   337  GLC337     -0.2250
     13  H61       43.5540   52.4930    6.2260 H     337  GLC337      0.0687
@<TRIPOS>BOND
     1    13     6    1
     2    12     6    1
     3    11     1    1
     4    11     5    1
     5     1     7    1
     6     1     2    1
     7     6     5    1
     8     5     4    1
     9     2     8    1
    10     2     3    1
    11     4     3    1
    12     4    10    1
    13     3     9    1
