@<TRIPOS>MOLECULE
2bqr_DTP_A_1.pdb
 30 32 0 0 0
SMALL
GASTEIGER

@<TRIPOS>ATOM
      1  PG        26.4390   40.4860    5.2170 P.3   1000  DTP1000     0.5373
      2  O1G       27.4720   39.6150    5.8210 O.3   1000  DTP1000    -0.1143
      3  O2G       27.2040   41.6620    4.6790 O.2   1000  DTP1000    -0.2221
      4  O3G       25.4680   41.0250    6.1990 O.3   1000  DTP1000    -0.1143
      5  PB        24.3660   38.8440    4.2320 P.3   1000  DTP1000     0.2277
      6  O1B       24.3570   37.6260    3.3670 O.2   1000  DTP1000    -0.5168
      7  O2B       23.1570   39.6700    3.9310 O.3   1000  DTP1000    -0.4368
      8  O3B       25.6930   39.7580    3.9990 O.3   1000  DTP1000    -0.2258
      9  PA        25.3050   37.6880    6.8640 P.3   1000  DTP1000     0.2189
     10  O1A       24.8400   36.2750    7.0060 O.3   1000  DTP1000    -0.4371
     11  O2A       26.6960   37.6630    6.3840 O.2   1000  DTP1000    -0.5170
     12  O3A       24.3110   38.5620    5.8700 O.3   1000  DTP1000    -0.2700
     13  O5'       25.2270   38.3840    8.3210 O.3   1000  DTP1000    -0.3112
     14  C5'       25.5840   39.7890    8.5500 C.3   1000  DTP1000     0.1813
     15  C4'       26.8840   40.1060    9.2770 C.3   1000  DTP1000     0.1795
     16  O4'       27.3850   38.9850   10.0230 O.3   1000  DTP1000    -0.3155
     17  C3'       28.0650   40.5140    8.4120 C.3   1000  DTP1000     0.1883
     18  O3'       27.9010   41.8400    7.8780 O.3   1000  DTP1000    -0.2202
     19  C2'       29.2290   40.3400    9.3630 C.3   1000  DTP1000     0.1151
     20  C1'       28.8130   39.0720   10.1140 C.3   1000  DTP1000     0.2873
     21  N9        29.4300   37.8430    9.5500 N.pl3 1000  DTP1000    -0.1460
     22  C8        28.8640   36.8570    8.7590 C.3   1000  DTP1000     0.3377
     23  N7        29.6990   35.9030    8.4280 N.2   1000  DTP1000    -0.2095
     24  C5        30.8870   36.2700    9.0310 C.2   1000  DTP1000     0.2526
     25  C6        32.1710   35.6710    9.0620 C.2   1000  DTP1000     0.4393
     26  N6        32.4420   34.5350    8.4390 N.pl3 1000  DTP1000     0.2180
     27  N1        33.1700   36.3020    9.7670 N.2   1000  DTP1000     0.0021
     28  C2        32.8820   37.4610   10.4010 C.3   1000  DTP1000     0.5254
     29  N3        31.6950   38.1140   10.4320 N.2   1000  DTP1000    -0.0055
     30  C4        30.7370   37.4630    9.7270 C.2   1000  DTP1000     0.3518
@<TRIPOS>BOND
     1     6     5    2
     2     7     5    1
     3     8     5    1
     4     8     1    1
     5     5    12    1
     6     3     1    2
     7     1     2    1
     8     1     4    1
     9    12     9    1
    10    11     9    2
    11     9    10    1
    12     9    13    1
    13    18    17    1
    14    13    14    1
    15    17    15    1
    16    17    19    1
    17    23    22    1
    18    23    24    2
    19    26    25    1
    20    14    15    1
    21    22    21    1
    22    24    25    1
    23    24    30    1
    24    25    27    2
    25    15    16    1
    26    19    20    1
    27    21    30    1
    28    21    20    1
    29    30    29    2
    30    27    28    1
    31    16    20    1
    32    28    29    1
