@<TRIPOS>MOLECULE
2bqu_DAD_A_1.pdb
 29 31 0 0 0
SMALL
GASTEIGER

@<TRIPOS>ATOM
      1  PG        25.8890   39.8680    5.1530 P.3   1342  DAD1342     0.5373
      2  O1G       25.4010   41.1780    5.7100 O.3   1342  DAD1342    -0.1143
      3  O2G       27.3920   39.8280    5.3310 O.3   1342  DAD1342    -0.1143
      4  O3G       25.5980   39.7440    3.6820 O.2   1342  DAD1342    -0.2221
      5  PB        24.5270   37.2940    5.3580 P.3   1342  DAD1342     0.2277
      6  O1B       25.4400   36.4820    4.4820 O.2   1342  DAD1342    -0.5168
      7  O2B       23.3310   37.7730    4.5830 O.3   1342  DAD1342    -0.4368
      8  O3B       25.3120   38.5790    6.0090 O.3   1342  DAD1342    -0.2258
      9  PA        24.9510   35.7330    7.7470 P.3   1342  DAD1342     0.2189
     10  O1A       24.5420   34.3670    8.2000 O.3   1342  DAD1342    -0.4371
     11  O2A       26.3340   35.6750    7.1960 O.2   1342  DAD1342    -0.5170
     12  O3A       23.9960   36.4550    6.6250 O.3   1342  DAD1342    -0.2700
     13  O5'       24.8490   36.7260    8.9900 O.3   1342  DAD1342    -0.3113
     14  C5'       25.1360   38.1380    8.7730 C.3   1342  DAD1342     0.1786
     15  C4'       26.2590   38.7800    9.5470 C.3   1342  DAD1342     0.1493
     16  O4'       27.1030   37.7980   10.1720 O.3   1342  DAD1342    -0.3183
     17  C3'       27.1940   39.6360    8.7060 C.3   1342  DAD1342     0.0392
     18  C2'       28.4720   39.6490    9.5250 C.3   1342  DAD1342     0.0823
     19  C1'       28.4420   38.2700   10.1930 C.3   1342  DAD1342     0.2847
     20  N9        29.3050   37.2550    9.5500 N.pl3 1342  DAD1342    -0.1461
     21  C8        28.9610   36.2590    8.6530 C.3   1342  DAD1342     0.3377
     22  N7        29.9620   35.5120    8.2700 N.2   1342  DAD1342    -0.2095
     23  C5        31.0460   36.0330    8.9470 C.2   1342  DAD1342     0.2526
     24  C6        32.4200   35.6720    8.9720 C.2   1342  DAD1342     0.4393
     25  N6        32.9110   34.6540    8.2530 N.pl3 1342  DAD1342     0.2180
     26  N1        33.2700   36.4120    9.7740 N.2   1342  DAD1342     0.0021
     27  C2        32.7580   37.4420   10.4990 C.3   1342  DAD1342     0.5254
     28  N3        31.4730   37.8630   10.5470 N.2   1342  DAD1342    -0.0055
     29  C4        30.6620   37.1140    9.7450 C.2   1342  DAD1342     0.3518
@<TRIPOS>BOND
     1     4     1    2
     2     6     5    2
     3     7     5    1
     4     1     3    1
     5     1     2    1
     6     1     8    1
     7     5     8    1
     8     5    12    1
     9    12     9    1
    10    11     9    2
    11     9    10    1
    12     9    13    1
    13    25    24    1
    14    22    21    1
    15    22    23    2
    16    21    20    1
    17    17    18    1
    18    17    15    1
    19    14    13    1
    20    14    15    1
    21    23    24    1
    22    23    29    1
    23    24    26    2
    24    18    19    1
    25    15    16    1
    26    20    29    1
    27    20    19    1
    28    29    28    2
    29    26    27    1
    30    16    19    1
    31    27    28    1
