@<TRIPOS>MOLECULE
2bqv_A1A_A_1.pdb
 43 46 0 0 0
SMALL
GASTEIGER

@<TRIPOS>ATOM
      1  C23       11.2050   23.5680    3.2120 C.ar  1100  A1A1100    -0.0192
      2  C24       10.9580   24.6870    2.3360 C.ar  1100  A1A1100    -0.0042
      3  C25        9.6500   24.9000    1.7910 C.ar  1100  A1A1100    -0.0003
      4  C26        8.5800   24.0050    2.1130 C.ar  1100  A1A1100    -0.0000
      5  C27        8.8150   22.8880    2.9790 C.ar  1100  A1A1100    -0.0003
      6  C28       10.1190   22.6700    3.5280 C.ar  1100  A1A1100    -0.0042
      7  C33       16.3190   22.5150    8.1320 C.ar  1100  A1A1100    -0.0045
      8  C34       17.6310   22.0230    8.4580 C.ar  1100  A1A1100    -0.0029
      9  C35       17.7960   20.9570    9.3990 C.ar  1100  A1A1100    -0.0003
     10  C36       16.6460   20.3730   10.0250 C.ar  1100  A1A1100    -0.0000
     11  C37       15.3320   20.8570    9.7080 C.ar  1100  A1A1100    -0.0003
     12  C38       15.1680   21.9240    8.7650 C.ar  1100  A1A1100    -0.0029
     13  C32       16.2050   23.6620    7.1150 C.3   1100  A1A1100     0.1203
     14  C7        19.9980   18.2300    7.3330 C.3   1100  A1A1100     0.2574
     15  C4        13.9810   23.7580    6.1230 C.3   1100  A1A1100     0.1339
     16  O3        19.1030   20.1170    5.4440 O.2   1100  A1A1100    -0.2245
     17  N1        17.0530   19.1780    5.4240 N.am  1100  A1A1100    -0.1610
     18  C22       12.6090   23.3500    3.8330 C.3   1100  A1A1100     0.0672
     19  O6        13.4140   25.5240    4.5570 O.3   1100  A1A1100    -0.2144
     20  O8        18.6870   18.2930    6.7790 O.3   1100  A1A1100    -0.4294
     21  C10       11.6220   24.5080    5.9080 C.2   1100  A1A1100     0.2710
     22  O11       11.2890   23.6920    6.7900 O.2   1100  A1A1100    -0.2706
     23  N12       10.8690   25.5990    5.6880 N.am  1100  A1A1100    -0.1980
     24  C51        9.6490   25.9060    6.4570 C.3   1100  A1A1100     0.1478
     25  C52        9.8750   26.7030    7.7130 C.ar  1100  A1A1100    -0.0040
     26  C57        8.7640   27.5470    7.9310 C.ar  1100  A1A1100    -0.0218
     27  C53       10.9930   26.6900    8.6100 C.ar  1100  A1A1100    -0.0029
     28  C54       10.9550   27.5670    9.7440 C.ar  1100  A1A1100    -0.0003
     29  C55        9.8200   28.4300    9.9660 C.ar  1100  A1A1100    -0.0003
     30  C59        8.5610   26.7340    5.6850 C.3   1100  A1A1100     0.1802
     31  O60        9.1140   27.8490    4.9750 O.3   1100  A1A1100    -0.2206
     32  C30       18.3210   19.2340    5.8690 C.2   1100  A1A1100     0.4216
     33  C56        8.7080   28.4260    9.0550 C.ar  1100  A1A1100    -0.0044
     34  C58        7.7270   27.3590    6.8320 C.3   1100  A1A1100     0.0611
     35  C41       16.4460   20.0700    4.4420 C.3   1100  A1A1100     0.1774
     36  C42       15.8860   19.1680    3.2980 C.3   1100  A1A1100     0.0291
     37  C43       16.9700   18.2640    2.6470 C.3   1100  A1A1100     0.0023
     38  C1        12.9340   24.2830    5.0580 C.3   1100  A1A1100     0.2160
     39  C44       15.2330   19.9660    2.1590 C.3   1100  A1A1100     0.0023
     40  C45       15.4440   21.0340    5.1590 C.2   1100  A1A1100     0.2764
     41  N24       15.4020   23.4710    5.8620 N.3   1100  A1A1100    -0.1769
     42  O46       14.4470   20.5980    5.7490 O.2   1100  A1A1100    -0.2701
     43  N47       15.7440   22.3610    5.0620 N.am  1100  A1A1100    -0.1257
@<TRIPOS>BOND
     1     3     4   ar
     2     3     2   ar
     3     4     5   ar
     4    39    36    1
     5     2     1   ar
     6    37    36    1
     7     5     6   ar
     8     1     6   ar
     9     1    18    1
    10    36    35    1
    11    18    38    1
    12    35    40    1
    13    35    17    1
    14    19    38    1
    15    31    30    1
    16    38    21    1
    17    38    15    1
    18    43    40   am
    19    43    41    1
    20    40    42    2
    21    17    32   am
    22    16    32    2
    23    30    24    1
    24    30    34    1
    25    23    21   am
    26    23    24    1
    27    41    15    1
    28    41    13    1
    29    32    20    1
    30    21    22    2
    31    24    25    1
    32    20    14    1
    33    34    26    1
    34    13     7    1
    35    25    26   ar
    36    25    27   ar
    37    26    33   ar
    38     7     8   ar
    39     7    12   ar
    40     8     9   ar
    41    27    28   ar
    42    12    11   ar
    43    33    29   ar
    44     9    10   ar
    45    11    10   ar
    46    28    29   ar
