@<TRIPOS>MOLECULE
2bqw_IIE_B_1.pdb
 32 35 0 0 0
SMALL
GASTEIGER

@<TRIPOS>ATOM
      1  C1         3.3080   10.3150   25.1190 C.ar  1246  IIE1246     0.0015
      2  C2         4.3610    9.2950   25.1870 C.ar  1246  IIE1246     0.0172
      3  C3         4.8340    8.6550   23.9310 C.ar  1246  IIE1246     0.0604
      4  C4         4.2640    9.0330   22.6300 C.ar  1246  IIE1246     0.0174
      5  C5         3.2350   10.0650   22.5880 C.ar  1246  IIE1246     0.0015
      6  C6         2.7490   10.7040   23.8140 C.ar  1246  IIE1246     0.0001
      7  N7         5.7610    7.6690   23.6630 N.ar  1246  IIE1246    -0.3152
      8  C8         5.7980    7.4410   22.3590 C.ar  1246  IIE1246     0.1160
      9  C9         4.8910    8.2390   21.6710 C.ar  1246  IIE1246     0.0233
     10  C10        6.7300    6.6690   21.7310 C.2   1246  IIE1246     0.2806
     11  N11        6.2790    5.9310   20.7060 N.am  1246  IIE1246    -0.2021
     12  C12        7.2490    4.9750   20.1930 C.3   1246  IIE1246     0.0984
     13  C13        6.6140    3.5920   20.3280 C.3   1246  IIE1246     0.0390
     14  C14        7.4960    2.5350   19.6990 C.3   1246  IIE1246     0.0738
     15  N15        7.7350    2.8910   18.2770 N.3   1246  IIE1246    -0.2738
     16  C16        8.4670    4.1860   18.1620 C.3   1246  IIE1246     0.0738
     17  C17        7.5780    5.2820   18.7280 C.3   1246  IIE1246     0.0390
     18  C27        8.3450    1.7110   17.6080 C.3   1246  IIE1246     0.0576
     19  C28        9.7140    1.3050   18.2200 C.3   1246  IIE1246     0.0173
     20  C32        8.4930    2.0220   16.1240 C.3   1246  IIE1246     0.0173
     21  C37        6.5940    7.0300   24.6770 C.3   1246  IIE1246     0.1939
     22  C38        7.7290    7.9920   24.9440 C.2   1246  IIE1246     0.2686
     23  C43       10.3430    7.1570   27.4100 C.ar  1246  IIE1246     0.0175
     24  C40       11.7850    7.1400   27.6250 C.ar  1246  IIE1246     0.0127
     25  C45        9.7700    7.6550   26.1670 C.ar  1246  IIE1246     0.0735
     26  C47       12.6660    7.6150   26.5700 C.ar  1246  IIE1246     0.0578
     27  C48       12.1000    8.1340   25.3290 C.ar  1246  IIE1246     0.0127
     28  C49       10.6680    8.1520   25.1310 C.ar  1246  IIE1246     0.0175
     29  N12        8.4270    7.5680   26.0170 N.am  1246  IIE1246    -0.1776
     30  O14        7.9420    8.9770   24.2280 O.2   1246  IIE1246    -0.2709
     31 CL50       14.3360    7.5000   26.7280 Cl    1246  IIE1246    -0.0822
     32  O56        7.9000    6.6950   22.1320 O.2   1246  IIE1246    -0.2668
@<TRIPOS>BOND
     1    20    18    1
     2    18    19    1
     3    18    15    1
     4    16    15    1
     5    16    17    1
     6    15    14    1
     7    17    12    1
     8    14    13    1
     9    12    13    1
    10    12    11    1
    11    11    10   am
    12     9     8   ar
    13     9     4   ar
    14    10    32    2
    15    10     8    1
    16     8     7   ar
    17     5     4   ar
    18     5     6   ar
    19     4     3   ar
    20     7     3   ar
    21     7    21    1
    22     6     1   ar
    23     3     2   ar
    24    30    22    2
    25    21    22    1
    26    22    29   am
    27     1     2   ar
    28    28    27   ar
    29    28    25   ar
    30    27    26   ar
    31    29    25    1
    32    25    23   ar
    33    26    31    1
    34    26    24   ar
    35    23    24   ar
