@<TRIPOS>MOLECULE
2bqz_SAH_A_1.pdb
 25 27 0 0 0
SMALL
GASTEIGER

@<TRIPOS>ATOM
      1  N          4.7090    4.7560   -7.3720 N.3   1354  SAH1354    -0.1301
      2  CA         3.7010    3.7630   -7.7760 C.3   1354  SAH1354     0.1256
      3  CB         2.5900    3.6860   -6.7340 C.3   1354  SAH1354     0.0333
      4  CG         3.0050    2.8000   -5.5680 C.3   1354  SAH1354     0.0592
      5  SD         3.0450    1.0590   -6.0700 S.3   1354  SAH1354    -0.1376
      6  C          3.1210    4.0090   -9.1710 C.3   1354  SAH1354     0.2010
      7  O          2.3830    3.1100   -9.5890 O.3   1354  SAH1354    -0.2188
      8  C5'        4.6910    0.6000   -5.4170 C.3   1354  SAH1354     0.0899
      9  C4'        5.8740    1.0530   -6.2570 C.3   1354  SAH1354     0.1630
     10  O4'        6.0860    2.4320   -6.0560 O.3   1354  SAH1354    -0.3153
     11  C3'        7.1880    0.3570   -5.8870 C.3   1354  SAH1354     0.2168
     12  O3'        7.3090   -0.9550   -6.4000 O.3   1354  SAH1354    -0.2175
     13  C2'        8.1580    1.3830   -6.4200 C.3   1354  SAH1354     0.2569
     14  O2'        8.2930    1.2820   -7.8350 O.3   1354  SAH1354    -0.2130
     15  C1'        7.4800    2.6810   -6.0460 C.3   1354  SAH1354     0.3185
     16  N9         7.8530    3.1600   -4.6950 N.pl3 1354  SAH1354    -0.1439
     17  C8         7.0730    3.2050   -3.5650 C.3   1354  SAH1354     0.3377
     18  N7         7.7600    3.7420   -2.5510 N.2   1354  SAH1354    -0.2095
     19  C5         9.0060    4.0650   -3.0300 C.2   1354  SAH1354     0.2526
     20  C6        10.1010    4.6390   -2.4120 C.2   1354  SAH1354     0.4393
     21  N6        10.1290    5.0130   -1.1290 N.pl3 1354  SAH1354     0.2180
     22  N1        11.2100    4.8230   -3.2110 N.2   1354  SAH1354     0.0021
     23  C2        11.2330    4.4520   -4.5400 C.3   1354  SAH1354     0.5254
     24  N3        10.1550    3.8860   -5.1720 N.2   1354  SAH1354    -0.0055
     25  C4         9.0600    3.7090   -4.3850 C.2   1354  SAH1354     0.3518
@<TRIPOS>BOND
     1     7     6    1
     2     6     2    1
     3    14    13    1
     4     2     1    1
     5     2     3    1
     6     3     4    1
     7    13    15    1
     8    13    11    1
     9    12    11    1
    10     9    10    1
    11     9    11    1
    12     9     8    1
    13     5     4    1
    14     5     8    1
    15    10    15    1
    16    15    16    1
    17    24    23    1
    18    24    25    2
    19    16    25    1
    20    16    17    1
    21    23    22    1
    22    25    19    1
    23    17    18    1
    24    22    20    2
    25    19    18    2
    26    19    20    1
    27    20    21    1
