@<TRIPOS>MOLECULE
2br0_NUC_A_1.pdb
 18 20 0 0 0
SMALL
GASTEIGER

@<TRIPOS>ATOM
      1  O5'       26.3200   39.2750    7.0170 O.3   1000  DG1000     -0.2177
      2  C5'       25.4290   38.9820    8.1000 C.3   1000  DG1000      0.2114
      3  C4'       26.1670   38.7030    9.4170 C.3   1000  DG1000      0.1501
      4  O4'       26.8050   37.4100    9.4130 O.3   1000  DG1000     -0.3373
      5  C3'       27.2890   39.7150    9.6620 C.3   1000  DG1000      0.0367
      6  C2'       28.4810   38.9710    9.0610 C.3   1000  DG1000      0.0536
      7  C1'       28.2010   37.6120    9.7000 C.3   1000  DG1000      0.1954
      8  N9        29.0390   36.5450    9.1020 N.pl3 1000  DG1000     -0.2375
      9  C8        28.6030   35.6270    8.2420 C.3   1000  DG1000      0.2245
     10  N7        29.6160   34.8460    7.8690 N.2   1000  DG1000     -0.2322
     11  C5        30.7010   35.2690    8.5000 C.2   1000  DG1000      0.2182
     12  C6        32.0340   34.8390    8.4870 C.1   1000  DG1000      0.2372
     13  O6        32.3860   33.9170    7.7660 O.2   1000  DG1000     -0.2069
     14  N1        32.9600   35.5160    9.2890 N.2   1000  DG1000     -0.2485
     15  C2        32.5410   36.6000   10.0710 C.1   1000  DG1000      0.2531
     16  N2        33.4280   37.2390   10.8300 N.pl3 1000  DG1000     -0.0226
     17  N3        31.2560   36.9830   10.0500 N.2   1000  DG1000     -0.3074
     18  C4        30.3410   36.3480    9.2910 C.2   1000  DG1000      0.2299
@<TRIPOS>BOND
     1     1     2    1
     2    13    12    2
     3    10     9    1
     4    10    11    2
     5     2     3    1
     6     9     8    1
     7    12    11    1
     8    12    14    2
     9    11    18    1
    10     6     5    1
    11     6     7    1
    12     8    18    1
    13     8     7    1
    14    14    15    2
    15    18    17    2
    16     4     3    1
    17     4     7    1
    18     3     5    1
    19    17    15    2
    20    15    16    1
