@<TRIPOS>MOLECULE
2br1_PFP_A_1.pdb
 29 32 0 0 0
SMALL
GASTEIGER

@<TRIPOS>ATOM
      1  CAB       18.9620   -8.0070   12.9180 C.3   1277  PFP1277     0.2525
      2  OAS       17.6310   -7.6670   12.5680 O.3   1277  PFP1277    -0.4714
      3  CAV       17.6080   -6.4090   11.9280 C.ar  1277  PFP1277     0.1387
      4  CAG       18.3940   -5.3380   12.4250 C.ar  1277  PFP1277     0.0369
      5  CAK       18.3210   -4.0440   11.7950 C.ar  1277  PFP1277     0.0029
      6  CAF       16.7450   -6.1960   10.8440 C.ar  1277  PFP1277     0.0369
      7  CAJ       16.6770   -4.9250   10.2200 C.ar  1277  PFP1277     0.0029
      8  CAX       17.4810   -3.8550   10.6780 C.ar  1277  PFP1277     0.0002
      9  CBA       17.3310   -2.4950   10.0540 C.2   1277  PFP1277     0.0326
     10  CBC       16.1970   -1.8060    9.9290 C.3   1277  PFP1277     0.2098
     11  CAY       14.9220   -1.9560   10.4670 C.2   1277  PFP1277     0.3468
     12  NAQ       14.6190   -3.0080   11.2120 N.pl3 1277  PFP1277    -0.0320
     13  CAN       13.2030   -3.2550   11.6010 C.3   1277  PFP1277     0.2862
     14  CAM       12.5240   -2.3810   12.7310 C.3   1277  PFP1277     0.2372
     15  OAC       12.1040   -0.9840   12.4450 O.3   1277  PFP1277    -0.2156
     16  NAO       13.9850   -1.0330   10.2090 N.2   1277  PFP1277    -0.0365
     17  CAL       14.2790    0.0380    9.4700 C.3   1277  PFP1277     0.3939
     18  NAP       15.5230    0.2070    8.9640 N.2   1277  PFP1277    -0.1873
     19  CBB       16.4790   -0.7010    9.1890 C.2   1277  PFP1277     0.2206
     20  OAT       17.7140   -0.7390    8.8380 O.2   1277  PFP1277    -0.4395
     21  CAZ       18.2670   -1.8180    9.2740 C.2   1277  PFP1277     0.1437
     22  CAW       19.5820   -2.1570    9.0700 C.ar  1277  PFP1277     0.0345
     23  CAH       20.4510   -1.2110    8.5100 C.ar  1277  PFP1277     0.0061
     24  CAD       21.7700   -1.5370    8.2650 C.ar  1277  PFP1277     0.0370
     25  CAU       22.2320   -2.8040    8.5440 C.ar  1277  PFP1277     0.1387
     26  OAR       23.5290   -3.1180    8.3000 O.3   1277  PFP1277    -0.4714
     27  CAA       24.5290   -2.0490    8.1770 C.3   1277  PFP1277     0.2525
     28  CAE       21.3610   -3.7670    9.0800 C.ar  1277  PFP1277     0.0370
     29  CAI       20.0290   -3.4400    9.3210 C.ar  1277  PFP1277     0.0061
@<TRIPOS>BOND
     1    27    26    1
     2    24    23   ar
     3    24    25   ar
     4    26    25    1
     5    23    22   ar
     6    25    28   ar
     7    20    19    1
     8    20    21    1
     9    18    19    2
    10    18    17    1
    11    22    21    1
    12    22    29   ar
    13    28    29   ar
    14    19    10    1
    15    21     9    2
    16    17    16    1
    17    10     9    1
    18    10    11    1
    19     9     8    1
    20    16    11    2
    21     7     8   ar
    22     7     6   ar
    23    11    12    1
    24     8     5   ar
    25     6     3   ar
    26    12    13    1
    27    13    14    1
    28     5     4   ar
    29     3     4   ar
    30     3     2    1
    31    15    14    1
    32     2     1    1
