@<TRIPOS>MOLECULE
2br4_P4C_A_1.pdb
 22 21 0 0 0
SMALL
GASTEIGER

@<TRIPOS>ATOM
      1  O1        43.8350   54.4670   50.8600 O.2   500  P4C500     -0.2796
      2  C2        43.9740   55.2650   51.9720 C.2   500  P4C500      0.2741
      3  C3        43.3190   55.1770   53.1160 C.2   500  P4C500      0.2179
      4  O4        43.5820   56.2180   54.0840 O.2   500  P4C500     -0.4665
      5  C5        42.7720   56.4410   55.2500 C.3   500  P4C500      0.2376
      6  C6        41.2700   56.3270   54.9990 C.3   500  P4C500      0.1894
      7  O7        40.5590   56.5330   56.2190 O.3   500  P4C500     -0.3471
      8  C8        39.1520   56.3290   56.0780 C.3   500  P4C500      0.1743
      9  C9        38.7380   54.9940   56.6910 C.3   500  P4C500      0.1742
     10  O10       38.8670   55.0140   58.1160 O.3   500  P4C500     -0.3484
     11  C11       37.7890   55.6360   58.8170 C.3   500  P4C500      0.1742
     12  C12       37.7120   55.0780   60.2330 C.3   500  P4C500      0.1742
     13  O13       38.2420   55.9750   61.2130 O.3   500  P4C500     -0.3484
     14  C14       38.2200   55.3840   62.5150 C.3   500  P4C500      0.1742
     15  C15       38.9400   56.2550   63.5340 C.3   500  P4C500      0.1742
     16  O16       40.2020   55.6880   63.9100 O.3   500  P4C500     -0.3484
     17  C17       40.7950   56.2780   65.0750 C.3   500  P4C500      0.1758
     18  C18       42.3190   56.2890   64.9320 C.3   500  P4C500      0.1925
     19  O19       42.9380   57.4870   65.4300 O.3   500  P4C500     -0.2796
     20  C20       42.6260   57.9660   66.6370 C.1   500  P4C500      0.0885
     21  C21       42.1420   58.2680   67.6830 C.1   500  P4C500      0.1236
     22  O22       41.5850   58.7370   68.5840 O.3   500  P4C500     -0.1266
@<TRIPOS>BOND
     1     1     2    1
     2     2     3    2
     3     3     4    1
     4     4     5    1
     5     6     5    1
     6     6     7    1
     7     8     7    1
     8     8     9    1
     9     9    10    1
    10    10    11    1
    11    11    12    1
    12    12    13    1
    13    13    14    1
    14    14    15    1
    15    15    16    1
    16    16    17    1
    17    18    17    1
    18    18    19    1
    19    19    20    1
    20    20    21    3
    21    21    22    1
