@<TRIPOS>MOLECULE
2br4_SAM_A_1.pdb
 27 29 0 0 0
SMALL
GASTEIGER

@<TRIPOS>ATOM
      1  N         44.8500   55.1240   43.0920 N.3   301  SAM301     -0.1208
      2  CA        44.5810   54.0660   44.0590 C.3   301  SAM301      0.1952
      3  C         43.3270   53.2850   43.6760 C.2   301  SAM301      0.3819
      4  O         43.3950   52.1150   43.2900 O.co2 301  SAM301     -0.2441
      5  OXT       42.2190   53.8200   43.7580 O.co2 301  SAM301     -0.2441
      6  CB        44.3940   54.6520   45.4560 C.3   301  SAM301      0.0414
      7  CG        45.6680   55.1020   46.1820 C.3   301  SAM301      0.0503
      8  SD        45.5670   54.6760   47.9450 S.3   301  SAM301     -0.1761
      9  CE        46.1710   52.9950   47.8000 C.3   301  SAM301      0.0590
     10  C5'       46.8930   55.4790   48.8860 C.3   301  SAM301      0.0806
     11  C4'       48.2600   55.5360   48.2190 C.3   301  SAM301      0.1622
     12  O4'       48.7760   56.8300   48.4490 O.3   301  SAM301     -0.3153
     13  C3'       49.2670   54.5390   48.7890 C.3   301  SAM301      0.2168
     14  O3'       49.8250   53.7610   47.7550 O.3   301  SAM301     -0.2175
     15  C2'       50.3310   55.3770   49.4680 C.3   301  SAM301      0.2569
     16  O2'       51.6330   54.8870   49.2180 O.3   301  SAM301     -0.2130
     17  C1'       50.1230   56.7580   48.8620 C.3   301  SAM301      0.3185
     18  N9        50.4840   57.8460   49.7960 N.pl3 301  SAM301     -0.1439
     19  C8        50.0940   58.0300   51.1020 C.3   301  SAM301      0.3377
     20  N7        50.6830   59.1610   51.5640 N.2   301  SAM301     -0.2095
     21  C5        51.4420   59.6950   50.5730 C.2   301  SAM301      0.2526
     22  C6        52.2480   60.8270   50.4900 C.2   301  SAM301      0.4393
     23  N6        52.3880   61.6360   51.5370 N.pl3 301  SAM301      0.2180
     24  N1        52.9100   61.1050   49.3080 N.2   301  SAM301      0.0021
     25  C2        52.7760   60.2810   48.2110 C.3   301  SAM301      0.5254
     26  N3        51.9750   59.1640   48.2970 N.2   301  SAM301     -0.0055
     27  C4        51.3240   58.8760   49.4560 C.2   301  SAM301      0.3518
@<TRIPOS>BOND
     1     1     2    1
     2     4     3   ar
     3     3     5   ar
     4     3     2    1
     5     2     6    1
     6     6     7    1
     7     7     8    1
     8    14    13    1
     9     9     8    1
    10     8    10    1
    11    25    26    1
    12    25    24    1
    13    11    12    1
    14    11    13    1
    15    11    10    1
    16    26    27    2
    17    12    17    1
    18    13    15    1
    19    17    15    1
    20    17    18    1
    21    16    15    1
    22    24    22    2
    23    27    18    1
    24    27    21    1
    25    18    19    1
    26    22    21    1
    27    22    23    1
    28    21    20    2
    29    19    20    1
