@<TRIPOS>MOLECULE
2br5_SAH_A_1.pdb
 26 28 0 0 0
SMALL
GASTEIGER

@<TRIPOS>ATOM
      1  N         34.6540   43.8400   75.7420 N.3   301  SAH301     -0.1208
      2  CA        35.6250   44.7920   75.2180 C.3   301  SAH301      0.1952
      3  CB        36.6250   45.2190   76.3000 C.3   301  SAH301      0.0422
      4  CG        36.0640   45.4220   77.7130 C.3   301  SAH301      0.0597
      5  SD        36.7530   46.9120   78.4830 S.3   301  SAH301     -0.1375
      6  C         36.3390   44.1820   74.0060 C.2   301  SAH301      0.3819
      7  O         35.7680   43.4500   73.2040 O.co2 301  SAH301     -0.2441
      8  OXT       37.5230   44.3720   73.7290 O.co2 301  SAH301     -0.2441
      9  C5'       37.0180   46.2550   80.1530 C.3   301  SAH301      0.0899
     10  C4'       35.7570   46.0540   80.9880 C.3   301  SAH301      0.1630
     11  O4'       36.1230   45.3430   82.1470 O.3   301  SAH301     -0.3153
     12  C3'       35.0630   47.3140   81.4920 C.3   301  SAH301      0.2168
     13  O3'       33.7650   47.3880   80.9560 O.3   301  SAH301     -0.2175
     14  C2'       35.0100   47.1720   83.0030 C.3   301  SAH301      0.2569
     15  O2'       33.7640   47.5190   83.5480 O.3   301  SAH301     -0.2130
     16  C1'       35.2800   45.6980   83.2140 C.3   301  SAH301      0.3185
     17  N9        35.9050   45.3730   84.5100 N.pl3 301  SAH301     -0.1439
     18  C8        37.0560   45.8930   85.0310 C.3   301  SAH301      0.3377
     19  N7        37.2760   45.3190   86.2360 N.2   301  SAH301     -0.2095
     20  C5        36.2910   44.4340   86.4920 C.2   301  SAH301      0.2526
     21  C6        36.0370   43.5850   87.5680 C.2   301  SAH301      0.4393
     22  N6        36.8530   43.5440   88.6190 N.pl3 301  SAH301      0.2180
     23  N1        34.9160   42.7810   87.5370 N.2   301  SAH301      0.0021
     24  C2        34.0640   42.8170   86.4510 C.3   301  SAH301      0.5254
     25  N3        34.3270   43.6590   85.3910 N.2   301  SAH301     -0.0055
     26  C4        35.4210   44.4590   85.4100 C.2   301  SAH301      0.3518
@<TRIPOS>BOND
     1     7     6   ar
     2     8     6   ar
     3     6     2    1
     4     2     1    1
     5     2     3    1
     6     3     4    1
     7     4     5    1
     8     5     9    1
     9     9    10    1
    10    13    12    1
    11    10    12    1
    12    10    11    1
    13    12    14    1
    14    11    16    1
    15    14    16    1
    16    14    15    1
    17    16    17    1
    18    17    18    1
    19    17    26    1
    20    18    19    1
    21    25    26    2
    22    25    24    1
    23    26    20    1
    24    19    20    2
    25    24    23    1
    26    20    21    1
    27    23    21    2
    28    21    22    1
