@<TRIPOS>MOLECULE
2br7_EPE_A_1.pdb
 15 15 0 0 0
SMALL
GASTEIGER

@<TRIPOS>ATOM
      1  N1       -71.3940  -15.1350  -72.8320 N.3   1206  EPE1206    -0.2689
      2  C2       -72.2180  -14.0890  -73.4490 C.3   1206  EPE1206     0.0897
      3  C3       -73.2130  -14.7580  -74.3880 C.3   1206  EPE1206     0.0897
      4  N4       -72.3390  -15.5660  -75.2050 N.3   1206  EPE1206    -0.2681
      5  C5       -71.7930  -16.7540  -74.5850 C.3   1206  EPE1206     0.0897
      6  C6       -70.7460  -16.1920  -73.6230 C.3   1206  EPE1206     0.0897
      7  C7       -72.0020  -15.1160  -76.5510 C.3   1206  EPE1206     0.1081
      8  C8       -71.7050  -16.3400  -77.3910 C.3   1206  EPE1206     0.1993
      9  O8       -72.8180  -16.6540  -78.2330 O.3   1206  EPE1206    -0.2189
     10  C9       -71.2340  -15.0870  -71.3740 C.3   1206  EPE1206     0.0939
     11  C10      -69.9090  -14.4090  -71.0000 C.3   1206  EPE1206     0.1225
     12  S        -69.7180  -14.2550  -69.3370 S.3   1206  EPE1206    -0.1946
     13  O1S      -70.8930  -13.5230  -68.7980 O.3   1206  EPE1206    -0.3074
     14  O2S      -68.5040  -13.4530  -69.0190 O.3   1206  EPE1206    -0.3074
     15  O3S      -69.6120  -15.6070  -68.7190 O.3   1206  EPE1206    -0.3074
@<TRIPOS>BOND
     1     9     8    1
     2     8     7    1
     3     7     4    1
     4     4     5    1
     5     4     3    1
     6     5     6    1
     7     3     2    1
     8     6     1    1
     9     2     1    1
    10     1    10    1
    11    10    11    1
    12    11    12    1
    13    12    14    1
    14    12    13    1
    15    12    15    1
