@<TRIPOS>MOLECULE
2br9_III_P_1.pdb
 46 46 0 0 0
SMALL
GASTEIGER

@<TRIPOS>ATOM
      1  N        -14.5970    7.1780    8.6390 N.3     2  ARG2       -0.1231
      2  CA       -14.5800    5.8570    9.3080 C.3     2  ARG2        0.1693
      3  C        -15.5880    5.9420   10.4440 C.2     2  ARG2        0.2592
      4  O        -15.5410    6.8690   11.2960 O.2     2  ARG2       -0.2718
      5  CB       -13.1920    5.5580    9.8660 C.3     2  ARG2        0.0284
      6  CG       -12.7800    4.1010    9.7930 C.3     2  ARG2        0.0020
      7  CD       -11.7120    3.8450   10.8380 C.3     2  ARG2        0.0001
      8  N        -16.4950    4.9730   10.4470 N.am    3  GLN3       -0.1966
      9  CA       -17.5490    4.9090   11.4460 C.3     3  GLN3        0.1733
     10  C        -16.9080    4.6250   12.7810 C.2     3  GLN3        0.2616
     11  O        -15.8690    3.9660   12.8430 O.2     3  GLN3       -0.2715
     12  CB       -18.5020    3.7510   11.1450 C.3     3  GLN3        0.0408
     13  CG       -19.6890    4.1370   10.3550 C.3     3  GLN3        0.0908
     14  CD       -19.5680    3.7190    8.9430 C.2     3  GLN3        0.2608
     15  OE1      -19.9120    2.5980    8.6040 O.2     3  GLN3       -0.2717
     16  NE2      -19.0860    4.6150    8.0900 N.am    3  GLN3       -0.0878
     17  N        -17.5500    5.0860   13.8550 N.am    4  ARG4       -0.1963
     18  CA       -17.1240    4.6700   15.1680 C.3     4  ARG4        0.1728
     19  C        -18.1990    3.7710   15.7710 C.2     4  ARG4        0.2617
     20  O        -19.3810    3.9850   15.5700 O.2     4  ARG4       -0.2715
     21  CB       -16.9800    5.9080   16.0510 C.3     4  ARG4        0.0311
     22  CG       -15.7750    6.8360   15.6790 C.3     4  ARG4        0.0023
     23  CD       -14.6300    6.6640   16.7160 C.3     4  ARG4        0.0001
     24  N        -17.7980    2.8080   16.5690 N.am    5  SER5       -0.1937
     25  CA       -18.7990    2.0540   17.2990 C.3     5  SER5        0.2027
     26  CB       -18.7290    0.5880   16.8240 C.3     5  SER5        0.1847
     27  OG       -17.3900    0.0730   17.0460 O.3     5  SER5       -0.2679
     28  C        -18.4920    2.1980   18.7900 C.2     5  SER5        0.2642
     29  O        -17.5490    2.9230   19.1730 O.2     5  SER5       -0.2714
     30  P        -17.1410   -1.5010   16.6670 P.3     5  SER5        0.5327
     31  O1P      -15.6180   -1.7200   17.1070 O.3     5  SER5       -0.1145
     32  O2P      -17.4450   -1.6040   15.1030 O.2     5  SER5       -0.2224
     33  O3P      -18.0990   -2.3190   17.6450 O.3     5  SER5       -0.1145
     34  N        -19.2790    1.5460   19.6450 N.am    6  ALA6       -0.1963
     35  CA       -19.2020    1.8310   21.0590 C.3     6  ALA6        0.1713
     36  C        -17.8680    1.3490   21.6690 C.2     6  ALA6        0.2459
     37  O        -17.2630    0.3680   21.2050 O.2     6  ALA6       -0.2730
     38  CB       -20.3970    1.2520   21.7830 C.3     6  ALA6        0.0333
     39  N        -17.3980    2.0560   22.7070 N.am    7  PRO7       -0.2699
     40  CA       -16.2730    1.4940   23.4940 C.3     7  PRO7        0.1791
     41  C        -16.6680    0.2040   24.2830 C.2     7  PRO7        0.3825
     42  O        -15.7580   -0.4940   24.8030 O.co2   7  PRO7       -0.2438
     43  CB       -15.9030    2.6420   24.4470 C.3     7  PRO7        0.0332
     44  CG       -16.5860    3.8840   23.9060 C.3     7  PRO7        0.0238
     45  CD       -17.8410    3.3610   23.2360 C.3     7  PRO7        0.0940
     46  OXT      -17.8400   -0.2450   24.4460 O.co2   7  PRO7       -0.2438
@<TRIPOS>BOND
     1    16    14   am
     2    15    14    2
     3     1     2    1
     4    14    13    1
     5     2     5    1
     6     2     3    1
     7     6     5    1
     8     6     7    1
     9    13    12    1
    10     3     8   am
    11     3     4    2
    12     8     9    1
    13    12     9    1
    14     9    10    1
    15    10    11    2
    16    10    17   am
    17    17    18    1
    18    32    30    2
    19    18    19    1
    20    18    21    1
    21    20    19    2
    22    22    21    1
    23    22    23    1
    24    19    24   am
    25    24    25    1
    26    30    27    1
    27    30    31    1
    28    30    33    1
    29    26    27    1
    30    26    25    1
    31    25    28    1
    32    28    29    2
    33    28    34   am
    34    34    35    1
    35    35    36    1
    36    35    38    1
    37    37    36    2
    38    36    39   am
    39    39    45    1
    40    39    40    1
    41    45    44    1
    42    40    41    1
    43    40    43    1
    44    44    43    1
    45    41    46   ar
    46    41    42   ar
