@<TRIPOS>MOLECULE
2brb_PFQ_A_1.pdb
 25 28 0 0 0
SMALL
GASTEIGER

@<TRIPOS>ATOM
      1  C2        14.3110    0.2600    9.6510 C.3   1277  PFQ1277     0.3939
      2  C10       18.3220   -1.7000    9.2930 C.2   1277  PFQ1277     0.1437
      3  C11       19.6470   -1.9520    8.9490 C.ar  1277  PFQ1277     0.0343
      4  C12       20.3240   -3.1340    9.2430 C.ar  1277  PFQ1277     0.0030
      5  C13       21.6530   -3.2690    8.8360 C.ar  1277  PFQ1277     0.0001
      6  C14       22.2900   -2.2420    8.1380 C.ar  1277  PFQ1277     0.0000
      7  C15       21.6140   -1.0560    7.8470 C.ar  1277  PFQ1277     0.0001
      8  C16       20.2910   -0.9400    8.2410 C.ar  1277  PFQ1277     0.0030
      9  C19       16.9690   -4.8120   10.0740 C.ar  1277  PFQ1277    -0.0002
     10  C20       17.0350   -6.0670   10.6850 C.ar  1277  PFQ1277    -0.0000
     11  C21       17.6450   -6.1780   11.9360 C.ar  1277  PFQ1277    -0.0000
     12  C22       18.1740   -5.0270   12.5490 C.ar  1277  PFQ1277    -0.0000
     13  N1        15.5150    0.4240    9.1270 N.2   1277  PFQ1277    -0.1873
     14  C6        16.4650   -0.5070    9.2980 C.2   1277  PFQ1277     0.2206
     15  O6        17.7520   -0.5450    8.8630 O.2   1277  PFQ1277    -0.4395
     16  C5        16.2030   -1.6630   10.0320 C.3   1277  PFQ1277     0.2098
     17  N9        14.5520   -2.8610   11.2950 N.pl3 1277  PFQ1277    -0.0320
     18  C4        14.9180   -1.7990   10.5690 C.2   1277  PFQ1277     0.3468
     19  N3        14.0200   -0.8210   10.3510 N.2   1277  PFQ1277    -0.0365
     20  C17       18.1030   -3.7740   11.9320 C.ar  1277  PFQ1277    -0.0002
     21  C1        17.3790   -2.4230   10.0340 C.2   1277  PFQ1277     0.0326
     22  C18       17.5000   -3.6660   10.6770 C.ar  1277  PFQ1277    -0.0000
     23  C23       12.6900   -2.5010   12.8800 C.3   1277  PFQ1277     0.2372
     24  C8        13.1250   -3.1390   11.5520 C.3   1277  PFQ1277     0.2862
     25  O24       12.1850   -1.1800   12.6450 O.3   1277  PFQ1277    -0.2156
@<TRIPOS>BOND
     1     7     6   ar
     2     7     8   ar
     3     6     5   ar
     4     8     3   ar
     5     5     4   ar
     6    15     2    1
     7    15    14    1
     8     3     4   ar
     9     3     2    1
    10    13    14    2
    11    13     1    1
    12     2    21    2
    13    14    16    1
    14     1    19    1
    15    16    21    1
    16    16    18    1
    17    21    22    1
    18     9    22   ar
    19     9    10   ar
    20    19    18    2
    21    18    17    1
    22    22    20   ar
    23    10    11   ar
    24    17    24    1
    25    24    23    1
    26    20    12   ar
    27    11    12   ar
    28    25    23    1
