@<TRIPOS>MOLECULE
2brc_CT5_A_1.pdb
 26 29 0 0 0
SMALL
GASTEIGER

@<TRIPOS>ATOM
      1  C15       15.8320   -3.9980   -6.2080 C.ar  1215  CT51215     0.0365
      2  C12       14.5870   -4.4520   -5.7630 C.ar  1215  CT51215     0.1721
      3  O17       14.3010   -5.7910   -5.6770 O.3   1215  CT51215    -0.4684
      4  O18       12.3190   -3.9240   -4.9620 O.3   1215  CT51215    -0.4684
      5  C16       13.5520   -3.4690   -5.4030 C.ar  1215  CT51215     0.1724
      6  C22       13.8600   -2.1150   -5.5050 C.ar  1215  CT51215     0.0397
      7  C20       15.1210   -1.6830   -5.9400 C.ar  1215  CT51215    -0.0002
      8  C8        16.1060   -2.6260   -6.2720 C.ar  1215  CT51215    -0.0083
      9  C4        17.4630   -2.2010   -6.7400 C.3   1215  CT51215     0.1021
     10  C1        17.7930   -1.3650   -7.8890 C.2   1215  CT51215     0.0680
     11  C7        16.8980   -0.6970   -8.8830 C.3   1215  CT51215     0.0499
     12  N5        19.1350   -1.3250   -7.8920 N.2   1215  CT51215    -0.1563
     13  C2        18.7650   -2.5760   -6.1260 C.2   1215  CT51215     0.0926
     14  N3        19.7220   -2.0590   -6.8290 N.2   1215  CT51215    -0.1522
     15  C6        18.7770   -3.4260   -4.9260 C.ar  1215  CT51215     0.0548
     16  C10       17.8940   -3.1560   -3.9040 C.ar  1215  CT51215     0.0033
     17  C14       17.9130   -3.9760   -2.8050 C.ar  1215  CT51215     0.0170
     18  C26       16.9710   -3.7600   -1.6480 C.3   1215  CT51215     0.0296
     19  C27       15.6760   -3.0930   -2.0710 C.3   1215  CT51215     0.0051
     20  C13       18.8580   -5.0860   -2.7260 C.ar  1215  CT51215     0.1949
     21  C17       12.9140   -6.1600   -5.7600 C.3   1215  CT51215     0.2526
     22  O25       18.7630   -5.8500   -1.6080 O.3   1215  CT51215    -0.2868
     23  C11       19.7380   -5.3620   -3.7660 C.ar  1215  CT51215     0.0837
     24  C18       12.1530   -5.3280   -4.7220 C.3   1215  CT51215     0.2526
     25  C9        19.7430   -4.5250   -4.8680 C.ar  1215  CT51215     0.2000
     26  O24       20.5910   -4.6930   -5.8990 O.3   1215  CT51215    -0.2864
@<TRIPOS>BOND
     1    11    10    1
     2    12    10    2
     3    12    14    1
     4    10     9    1
     5    14    13    2
     6     9     8    1
     7     9    13    1
     8     8     1   ar
     9     8     7   ar
    10     1     2   ar
    11    13    15    1
    12     7     6   ar
    13    26    25    1
    14     2     3    1
    15     2     5   ar
    16    21     3    1
    17    21    24    1
    18     6     5   ar
    19     5     4    1
    20     4    24    1
    21    15    25   ar
    22    15    16   ar
    23    25    23   ar
    24    16    17   ar
    25    23    20   ar
    26    17    20   ar
    27    17    18    1
    28    20    22    1
    29    19    18    1
