@<TRIPOS>MOLECULE
2brd_RET_A_1.pdb
 20 20 0 0 0
SMALL
GASTEIGER

@<TRIPOS>ATOM
      1  C1        15.2830    9.9390    1.3510 C.3   271  RET271      0.0183
      2  C2        14.5450   10.7040    0.2390 C.3   271  RET271      0.0044
      3  C3        15.0090   12.0640    0.0510 C.3   271  RET271      0.0047
      4  C4        14.8090   12.8780    1.3500 C.3   271  RET271      0.0217
      5  C5        15.1820   12.1120    2.6010 C.2   271  RET271     -0.0479
      6  C6        15.4090   10.7910    2.6260 C.2   271  RET271     -0.0307
      7  C7        15.8060   10.0440    3.8150 C.2   271  RET271     -0.0052
      8  C8        16.0450    8.7240    3.8810 C.2   271  RET271     -0.0046
      9  C9        16.4380    7.9320    5.0310 C.2   271  RET271     -0.0219
     10  C10       16.6360    6.5920    4.8940 C.2   271  RET271     -0.0043
     11  C11       17.0150    5.6560    5.9070 C.2   271  RET271     -0.0007
     12  C12       17.2050    4.3340    5.7120 C.2   271  RET271     -0.0046
     13  C13       17.5880    3.3000    6.6090 C.2   271  RET271     -0.0261
     14  C14       17.6820    2.0430    6.0820 C.2   271  RET271     -0.0300
     15  C15       18.0330    0.8300    6.6720 C.3   271  RET271      0.0304
     16  C16       14.5230    8.6400    1.6360 C.3   271  RET271      0.0043
     17  C17       16.6710    9.6200    0.7580 C.3   271  RET271      0.0043
     18  C18       15.2890   13.0480    3.7810 C.3   271  RET271      0.0260
     19  C19       16.6160    8.6430    6.3400 C.3   271  RET271      0.0310
     20  C20       17.8560    3.6200    8.0540 C.3   271  RET271      0.0307
@<TRIPOS>BOND
     1     3     2    1
     2     3     4    1
     3     2     1    1
     4    17     1    1
     5     4     5    1
     6     1    16    1
     7     1     6    1
     8     5     6    2
     9     5    18    1
    10     6     7    1
    11     7     8    2
    12     8     9    1
    13    10     9    2
    14    10    11    1
    15     9    19    1
    16    12    11    2
    17    12    13    1
    18    14    13    2
    19    14    15    1
    20    13    20    1
