@<TRIPOS>MOLECULE
2bre_KJ2_A_1.pdb
 25 27 0 0 0
SMALL
GASTEIGER

@<TRIPOS>ATOM
      1  C1        15.6670   19.6610   15.9090 C.ar  1214  KJ21214     0.2093
      2  C2        15.3640   20.7490   16.7130 C.ar  1214  KJ21214     0.0967
      3  C3        16.9470   19.1440   15.9590 C.ar  1214  KJ21214     0.0849
      4  C4        17.9200   19.7050   16.7850 C.ar  1214  KJ21214     0.2001
      5  C5        17.6330   20.8130   17.5930 C.ar  1214  KJ21214     0.0559
      6  C6        16.3360   21.2890   17.5140 C.ar  1214  KJ21214     0.0191
      7  O7        19.1620   19.1230   16.7710 O.3   1214  KJ21214    -0.2864
      8  O8        14.7660   19.0750   15.0800 O.3   1214  KJ21214    -0.2856
      9 CL9        13.8010   21.4660   16.7460 Cl    1214  KJ21214    -0.0789
     10  C10       18.6510   21.3960   18.4150 C.2   1214  KJ21214     0.0930
     11  C11       19.1590   22.7050   18.4860 C.3   1214  KJ21214     0.1074
     12  N12       20.2260   21.4710   19.9450 N.2   1214  KJ21214    -0.1507
     13  C13       20.1280   22.7100   19.4420 C.2   1214  KJ21214     0.1057
     14  N14       19.3380   20.6540   19.3360 N.2   1214  KJ21214    -0.1518
     15  C15       18.6690   23.7430   17.6570 C.ar  1214  KJ21214    -0.0109
     16  C16       18.8550   23.8610   16.2810 C.ar  1214  KJ21214    -0.0004
     17  C17       18.3340   24.9060   15.5370 C.ar  1214  KJ21214     0.0366
     18  C18       17.3870   25.8230   17.5000 C.ar  1214  KJ21214     0.0366
     19  C19       17.9110   24.7700   18.2440 C.ar  1214  KJ21214    -0.0004
     20  C20       17.5910   25.9030   16.1440 C.ar  1214  KJ21214     0.1385
     21  O21       17.0990   26.9040   15.4380 O.3   1214  KJ21214    -0.4754
     22  C22       16.0300   26.6730   14.6490 C.3   1214  KJ21214     0.2069
     23  C23       14.9170   27.7320   14.8380 C.3   1214  KJ21214     0.0678
     24  C24       14.9740   28.8640   13.7810 C.3   1214  KJ21214     0.1131
     25  N25       14.4370   30.1000   14.2750 N.3   1214  KJ21214    -0.1313
@<TRIPOS>BOND
     1    24    25    1
     2    24    23    1
     3    22    23    1
     4    22    21    1
     5     8     1    1
     6    21    20    1
     7    17    20   ar
     8    17    16   ar
     9     1     3   ar
    10     1     2   ar
    11     3     4   ar
    12    20    18   ar
    13    16    15   ar
    14     2     9    1
    15     2     6   ar
    16     7     4    1
    17     4     5   ar
    18    18    19   ar
    19     6     5   ar
    20     5    10    1
    21    15    19   ar
    22    15    11    1
    23    10    11    1
    24    10    14    2
    25    11    13    1
    26    14    12    1
    27    13    12    2
