@<TRIPOS>MOLECULE
2brg_DFY_A_1.pdb
 26 29 0 0 0
SMALL
GASTEIGER

@<TRIPOS>ATOM
      1  C2         5.8270   -2.0940   19.7640 C.3   1270  DFY1270     0.3937
      2  C10        1.7960   -4.0850   19.9240 C.2   1270  DFY1270     0.1437
      3  C11        0.4530   -4.4350   20.2240 C.ar  1270  DFY1270     0.0343
      4  C12        0.0010   -5.7760   20.2250 C.ar  1270  DFY1270     0.0030
      5  C13       -1.3200   -6.1150   20.5430 C.ar  1270  DFY1270     0.0001
      6  C14       -2.2050   -5.1090   20.9090 C.ar  1270  DFY1270     0.0000
      7  C15       -1.7550   -3.7890   20.9370 C.ar  1270  DFY1270     0.0001
      8  C16       -0.4470   -3.4320   20.6040 C.ar  1270  DFY1270     0.0030
      9  C19        1.4100   -6.0770   17.5750 C.ar  1270  DFY1270    -0.0002
     10  C20        1.0450   -7.3070   17.0230 C.ar  1270  DFY1270    -0.0000
     11  C21        1.6660   -8.4810   17.4410 C.ar  1270  DFY1270    -0.0000
     12  C22        2.6700   -8.4080   18.4230 C.ar  1270  DFY1270    -0.0000
     13  N1         4.5930   -1.9880   20.2900 N.2   1270  DFY1270    -0.1873
     14  C6         3.6720   -2.9120   20.0340 C.2   1270  DFY1270     0.2204
     15  O6         2.3710   -2.9630   20.4590 O.2   1270  DFY1270    -0.4395
     16  C5         3.9750   -4.0330   19.2160 C.3   1270  DFY1270     0.2061
     17  N9         5.8140   -5.0910   17.9060 N.pl3 1270  DFY1270    -0.1875
     18  C4         5.3040   -4.1040   18.6950 C.2   1270  DFY1270     0.3098
     19  N3         6.1900   -3.1150   18.9920 N.2   1270  DFY1270    -0.0401
     20  C17        3.0350   -7.1790   18.9840 C.ar  1270  DFY1270    -0.0002
     21  C1         2.7520   -4.7640   19.1520 C.2   1270  DFY1270     0.0325
     22  C18        2.4230   -5.9920   18.5480 C.ar  1270  DFY1270    -0.0000
     23  C23        7.8110   -4.2130   16.6610 C.3   1270  DFY1270     0.2326
     24  C8         7.3060   -5.1480   17.8050 C.3   1270  DFY1270     0.2379
     25  O24        8.2310   -2.9300   17.1550 O.3   1270  DFY1270    -0.2158
     26  CAA        4.9330   -6.0480   17.2170 C.3   1270  DFY1270     0.2533
@<TRIPOS>BOND
     1    23    25    1
     2    23    24    1
     3    10    11   ar
     4    10     9   ar
     5    26    17    1
     6    11    12   ar
     7     9    22   ar
     8    24    17    1
     9    17    18    1
    10    12    20   ar
    11    22    20   ar
    12    22    21    1
    13    18    19    2
    14    18    16    1
    15    19     1    1
    16    21    16    1
    17    21     2    2
    18    16    14    1
    19     1    13    1
    20     2     3    1
    21     2    15    1
    22    14    13    2
    23    14    15    1
    24     3     4   ar
    25     3     8   ar
    26     4     5   ar
    27     5     6   ar
    28     8     7   ar
    29     6     7   ar
