@<TRIPOS>MOLECULE
2brh_DFW_A_1.pdb
 26 29 0 0 0
SMALL
GASTEIGER

@<TRIPOS>ATOM
      1  C2        14.7740   -0.4920    9.4980 C.3   1272  DFW1272     0.3939
      2  C10       18.9250   -2.3310    9.2240 C.2   1272  DFW1272     0.1437
      3  C11       20.3690   -2.6180    8.8710 C.ar  1272  DFW1272     0.0343
      4  C12       21.1530   -1.5580    8.3760 C.ar  1272  DFW1272     0.0030
      5  C13       22.4750   -1.7610    8.0070 C.ar  1272  DFW1272     0.0001
      6  C14       23.0470   -3.0510    8.1200 C.ar  1272  DFW1272     0.0000
      7  C15       22.2760   -4.1310    8.5860 C.ar  1272  DFW1272     0.0001
      8  C16       20.9370   -3.9140    8.9420 C.ar  1272  DFW1272     0.0030
      9  C19       19.1910   -4.5630   11.5970 C.ar  1272  DFW1272    -0.0002
     10  C20       19.3540   -5.7980   12.2630 C.ar  1272  DFW1272    -0.0000
     11  C21       18.4310   -6.8340   12.0720 C.ar  1272  DFW1272    -0.0000
     12  C22       17.3620   -6.6460   11.1730 C.ar  1272  DFW1272    -0.0000
     13  N1        15.9700   -0.3250    8.9230 N.2   1272  DFW1272    -0.1873
     14  C6        16.9750   -1.2000    9.1640 C.2   1272  DFW1272     0.2206
     15  O6        18.3070   -1.1970    8.7450 O.2   1272  DFW1272    -0.4395
     16  C5        16.7610   -2.3200    9.9480 C.3   1272  DFW1272     0.2098
     17  N9        15.1070   -3.5830   11.2520 N.pl3 1272  DFW1272    -0.0221
     18  C4        15.4630   -2.5000   10.4850 C.2   1272  DFW1272     0.3473
     19  N3        14.4970   -1.5810   10.2300 N.2   1272  DFW1272    -0.0365
     20  C17       17.2120   -5.4100   10.5090 C.ar  1272  DFW1272    -0.0002
     21  C1        17.9570   -3.0430    9.9770 C.2   1272  DFW1272     0.0326
     22  C18       18.1290   -4.3590   10.7130 C.ar  1272  DFW1272    -0.0000
     23  C23       13.8760   -4.8900   12.8870 C.2   1272  DFW1272     0.4159
     24  C8        13.7760   -3.7470   11.8920 C.3   1272  DFW1272     0.3631
     25  O24       12.8460   -5.3340   13.4390 O.co2 1272  DFW1272    -0.2409
     26  O3        14.9480   -5.6680   12.7710 O.co2 1272  DFW1272    -0.2409
@<TRIPOS>BOND
     1     5     6   ar
     2     5     4   ar
     3     6     7   ar
     4     4     3   ar
     5     7     8   ar
     6    15    14    1
     7    15     2    1
     8     3     8   ar
     9     3     2    1
    10    13    14    2
    11    13     1    1
    12    14    16    1
    13     2    21    2
    14     1    19    1
    15    16    21    1
    16    16    18    1
    17    21    22    1
    18    19    18    2
    19    18    17    1
    20    20    22   ar
    21    20    12   ar
    22    22     9   ar
    23    12    11   ar
    24    17    24    1
    25     9    10   ar
    26    24    23    1
    27    11    10   ar
    28    26    23   ar
    29    23    25   ar
