@<TRIPOS>MOLECULE
2bri_ANP_A_1.pdb
 31 33 0 0 0
SMALL
GASTEIGER

@<TRIPOS>ATOM
      1  PG        72.9750  100.8110   34.9730 P.3   1226  ANP1226     0.4884
      2  O1G       73.6680   99.7180   35.6740 O.3   1226  ANP1226    -0.1240
      3  O2G       73.2630  101.0250   33.5250 O.2   1226  ANP1226    -0.2331
      4  O3G       73.2460  102.1710   35.7450 O.3   1226  ANP1226    -0.1240
      5  PB        70.4710   99.5130   34.0260 P.3   1226  ANP1226     0.4669
      6  O1B       71.4210   98.5170   33.5250 O.2   1226  ANP1226    -0.2351
      7  O2B       69.3990   99.0630   34.9020 O.3   1226  ANP1226    -0.1253
      8  N3B       71.3480  100.5940   34.7130 N.3   1226  ANP1226    -0.0163
      9  PA        69.6410   99.6460   31.2280 P.3   1226  ANP1226     0.2220
     10  O1A       69.2340  100.9610   30.6260 O.3   1226  ANP1226    -0.4370
     11  O2A       70.9150   99.3380   30.5980 O.2   1226  ANP1226    -0.5170
     12  O3A       69.6080  100.0290   32.7850 O.3   1226  ANP1226    -0.2360
     13  O5'       68.5400   98.4810   30.8790 O.3   1226  ANP1226    -0.3111
     14  C5'       67.3480   98.4070   30.1840 C.3   1226  ANP1226     0.1813
     15  C4'       66.9040   99.0000   29.0610 C.3   1226  ANP1226     0.1821
     16  O4'       67.0710   97.9210   28.2510 O.3   1226  ANP1226    -0.3135
     17  C3'       65.3850   99.3600   28.9550 C.3   1226  ANP1226     0.2184
     18  O3'       64.8320  100.4500   29.6080 O.3   1226  ANP1226    -0.2174
     19  C2'       65.2710   99.1750   27.3510 C.3   1226  ANP1226     0.2570
     20  O2'       65.4140  100.5860   26.7240 O.3   1226  ANP1226    -0.2130
     21  C1'       66.4230   98.2190   26.9780 C.3   1226  ANP1226     0.3186
     22  N9        66.0690   96.9820   26.2460 N.pl3 1226  ANP1226    -0.1439
     23  C8        66.3520   96.5340   25.0330 C.3   1226  ANP1226     0.3377
     24  N7        65.9210   95.4060   24.6220 N.2   1226  ANP1226    -0.2095
     25  C5        65.2620   95.0220   25.6880 C.2   1226  ANP1226     0.2526
     26  C6        64.5160   93.8150   25.9010 C.2   1226  ANP1226     0.4393
     27  N6        64.4940   92.9450   24.8960 N.pl3 1226  ANP1226     0.2180
     28  N1        63.8810   93.6090   27.1210 N.2   1226  ANP1226     0.0021
     29  C2        63.9150   94.5330   28.1730 C.3   1226  ANP1226     0.5254
     30  N3        64.6400   95.7410   28.0040 N.2   1226  ANP1226    -0.0055
     31  C4        65.2470   95.8920   26.7720 C.2   1226  ANP1226     0.3518
@<TRIPOS>BOND
     1    24    23    1
     2    24    25    2
     3    27    26    1
     4    23    22    1
     5    25    26    1
     6    25    31    1
     7    26    28    2
     8    22    31    1
     9    22    21    1
    10    20    19    1
    11    31    30    2
    12    21    19    1
    13    21    16    1
    14    28    29    1
    15    19    17    1
    16    30    29    1
    17    16    15    1
    18    17    15    1
    19    17    18    1
    20    15    14    1
    21    14    13    1
    22    11     9    2
    23    10     9    1
    24    13     9    1
    25     9    12    1
    26    12     5    1
    27     6     5    2
    28     3     1    2
    29     5     8    1
    30     5     7    1
    31     8     1    1
    32     1     2    1
    33     1     4    1
