@<TRIPOS>MOLECULE
2brk_CMF_A_1.pdb
 33 37 0 0 0
SMALL
GASTEIGER

@<TRIPOS>ATOM
      1  C24       25.3300    8.8570    4.9030 C.3   1534  CMF1534     0.1255
      2  C26       25.5850    7.6980    3.9050 C.3   1534  CMF1534     0.1636
      3  O4        25.7240    8.0050    2.4550 O.3   1534  CMF1534    -0.3501
      4  C27       25.6930    9.4080    1.9960 C.3   1534  CMF1534     0.1636
      5  C25       25.1530   10.4300    3.0120 C.3   1534  CMF1534     0.1255
      6  N2        25.7830   10.1180    4.3090 N.am  1534  CMF1534    -0.2728
      7  C23       26.7460   10.9000    4.8390 C.2   1534  CMF1534     0.2489
      8  O3        27.0870   11.9290    4.2490 O.2   1534  CMF1534    -0.2728
      9  C22       27.4230   10.5360    6.1760 C.3   1534  CMF1534     0.1919
     10  N1        28.5540   11.4290    6.5070 N.ar  1534  CMF1534    -0.3192
     11  C1        29.7780   11.3190    5.9990 C.ar  1534  CMF1534     0.0602
     12  C6        30.3540   10.4250    5.0860 C.ar  1534  CMF1534     0.0238
     13  C5        31.6970   10.5810    4.7610 C.ar  1534  CMF1534     0.0812
     14  C8        32.3970    9.6340    3.7940 C.2   1534  CMF1534     0.3878
     15  O2        31.7720    8.7270    3.2690 O.co2 1534  CMF1534    -0.2406
     16  O1        33.6030    9.7480    3.5740 O.co2 1534  CMF1534    -0.2406
     17  C4        32.4530   11.5920    5.3460 C.ar  1534  CMF1534     0.0067
     18  C3        31.8820   12.4720    6.2510 C.ar  1534  CMF1534     0.0014
     19  C2        30.5440   12.3440    6.5720 C.ar  1534  CMF1534     0.0132
     20  C7        29.7160   13.0500    7.4270 C.ar  1534  CMF1534    -0.0053
     21  C16       30.1190   14.2670    8.3020 C.3   1534  CMF1534     0.0238
     22  C17       30.8690   15.3310    7.5100 C.3   1534  CMF1534     0.0044
     23  C20       31.4280   16.4280    8.4180 C.3   1534  CMF1534     0.0003
     24  C21       32.3880   15.8660    9.4760 C.3   1534  CMF1534     0.0000
     25  C19       31.5800   14.8860   10.3230 C.3   1534  CMF1534     0.0003
     26  C18       31.0040   13.7550    9.4470 C.3   1534  CMF1534     0.0044
     27  C9        28.4730   12.4620    7.3540 C.ar  1534  CMF1534     0.0562
     28  C10       27.3660   12.8540    8.0700 C.ar  1534  CMF1534     0.0155
     29  C11       27.4360   12.9500    9.4690 C.ar  1534  CMF1534     0.0014
     30  C12       26.3140   13.3260   10.2230 C.ar  1534  CMF1534     0.0000
     31  C13       25.1040   13.5510    9.5730 C.ar  1534  CMF1534     0.0000
     32  C14       25.0380   13.4490    8.1750 C.ar  1534  CMF1534     0.0000
     33  C15       26.1630   13.0920    7.4280 C.ar  1534  CMF1534     0.0014
@<TRIPOS>BOND
     1     4     3    1
     2     4     5    1
     3     3     2    1
     4     5     6    1
     5    15    14   ar
     6    16    14   ar
     7    14    13    1
     8     2     1    1
     9     8     7    2
    10     6     7   am
    11     6     1    1
    12    13    12   ar
    13    13    17   ar
    14     7     9    1
    15    12    11   ar
    16    17    18   ar
    17    11    10   ar
    18    11    19   ar
    19     9    10    1
    20    18    19   ar
    21    10    27   ar
    22    19    20   ar
    23    27    20   ar
    24    27    28    1
    25    20    21    1
    26    33    28   ar
    27    33    32   ar
    28    22    21    1
    29    22    23    1
    30    28    29   ar
    31    32    31   ar
    32    21    26    1
    33    23    24    1
    34    26    25    1
    35    29    30   ar
    36    24    25    1
    37    31    30   ar
