@<TRIPOS>MOLECULE
2brl_POO_A_1.pdb
 37 41 0 0 0
SMALL
GASTEIGER

@<TRIPOS>ATOM
      1  C28       27.3720    9.6870    0.7210 C.3   1534  POO1534     0.0045
      2  C29       28.3450    8.6330    0.1640 C.3   1534  POO1534     0.0174
      3  C30       28.4380    7.3690    1.0640 C.3   1534  POO1534     0.0721
      4  N3        27.1000    6.8400    1.4670 N.3   1534  POO1534    -0.2715
      5  C31       26.4240    6.1490    0.3370 C.3   1534  POO1534     0.0896
      6  C27       26.1690    7.8680    2.0100 C.3   1534  POO1534     0.0738
      7  C26       26.8500    9.2440    2.0980 C.3   1534  POO1534     0.0359
      8  C25       25.8730   10.2570    2.7000 C.3   1534  POO1534     0.0949
      9  N2        26.1290   10.1410    4.1430 N.am  1534  POO1534    -0.2762
     10  C24       25.3010    9.2750    5.0030 C.3   1534  POO1534     0.1149
     11  C23       27.1860   10.8170    4.6840 C.2   1534  POO1534     0.2488
     12  O3        27.9310   11.5540    4.0140 O.2   1534  POO1534    -0.2728
     13  C22       27.4820   10.6560    6.1920 C.3   1534  POO1534     0.1919
     14  N1        28.6360   11.5150    6.5750 N.ar  1534  POO1534    -0.3192
     15  C1        29.8800   11.4100    6.0770 C.ar  1534  POO1534     0.0602
     16  C6        30.4760   10.5180    5.1770 C.ar  1534  POO1534     0.0238
     17  C5        31.8260   10.6370    4.8630 C.ar  1534  POO1534     0.0812
     18  C8        32.4950    9.6670    3.8920 C.2   1534  POO1534     0.3878
     19  O2        31.8460    8.7450    3.4230 O.co2 1534  POO1534    -0.2406
     20  O1        33.6970    9.7520    3.6100 O.co2 1534  POO1534    -0.2406
     21  C4        32.5820   11.6400    5.4770 C.ar  1534  POO1534     0.0067
     22  C3        31.9790   12.5270    6.3680 C.ar  1534  POO1534     0.0014
     23  C2        30.6300   12.4200    6.6600 C.ar  1534  POO1534     0.0132
     24  C7        29.7840   13.1230    7.5160 C.ar  1534  POO1534    -0.0053
     25  C16       30.2070   14.3200    8.4060 C.3   1534  POO1534     0.0238
     26  C17       30.8910   15.4130    7.6100 C.3   1534  POO1534     0.0044
     27  C20       31.4720   16.4960    8.5370 C.3   1534  POO1534     0.0003
     28  C21       32.5970   15.9170    9.3890 C.3   1534  POO1534     0.0000
     29  C19       31.9180   14.8730   10.3050 C.3   1534  POO1534     0.0003
     30  C18       31.2050   13.7820    9.4770 C.3   1534  POO1534     0.0044
     31  C9        28.5260   12.5590    7.4200 C.ar  1534  POO1534     0.0562
     32  C10       27.3850   12.9340    8.1220 C.ar  1534  POO1534     0.0155
     33  C11       27.4300   13.1040    9.5250 C.ar  1534  POO1534     0.0014
     34  C12       26.2960   13.4400   10.2700 C.ar  1534  POO1534     0.0000
     35  C13       25.0710   13.5590    9.6240 C.ar  1534  POO1534     0.0000
     36  C14       25.0180   13.3790    8.2250 C.ar  1534  POO1534     0.0000
     37  C15       26.1660   13.0540    7.4980 C.ar  1534  POO1534     0.0014
@<TRIPOS>BOND
     1     2     1    1
     2     2     3    1
     3     5     4    1
     4     1     7    1
     5     3     4    1
     6     4     6    1
     7     6     7    1
     8     7     8    1
     9     8     9    1
    10    19    18   ar
    11    20    18   ar
    12    18    17    1
    13    12    11    2
    14     9    11   am
    15     9    10    1
    16    11    13    1
    17    17    16   ar
    18    17    21   ar
    19    16    15   ar
    20    21    22   ar
    21    15    14   ar
    22    15    23   ar
    23    13    14    1
    24    22    23   ar
    25    14    31   ar
    26    23    24   ar
    27    31    24   ar
    28    31    32    1
    29    37    32   ar
    30    37    36   ar
    31    24    25    1
    32    26    25    1
    33    26    27    1
    34    32    33   ar
    35    36    35   ar
    36    25    30    1
    37    27    28    1
    38    28    29    1
    39    30    29    1
    40    33    34   ar
    41    35    34   ar
