@<TRIPOS>MOLECULE
2brm_DFZ_A_1.pdb
 25 28 0 0 0
SMALL
GASTEIGER

@<TRIPOS>ATOM
      1  C2         6.0690   -2.2850   19.4910 C.3   1275  DFZ1275     0.4013
      2  C10        2.0930   -4.2810   19.7290 C.2   1275  DFZ1275     0.1436
      3  C11        0.7620   -4.6430   19.9740 C.ar  1275  DFZ1275     0.0305
      4  C12        0.2530   -5.9090   19.7010 C.ar  1275  DFZ1275     0.0026
      5  C13       -1.0810   -6.2130   19.9650 C.ar  1275  DFZ1275     0.0001
      6  C14       -1.9300   -5.2530   20.5090 C.ar  1275  DFZ1275     0.0000
      7  C15       -1.4340   -3.9840   20.7860 C.ar  1275  DFZ1275     0.0001
      8  C16       -0.0980   -3.6880   20.5170 C.ar  1275  DFZ1275     0.0026
      9  C19        2.1820   -6.3430   17.1790 C.ar  1275  DFZ1275     0.0001
     10  C20        2.0550   -7.5920   16.5670 C.ar  1275  DFZ1275     0.0000
     11  C21        2.6560   -8.7200   17.1260 C.ar  1275  DFZ1275     0.0000
     12  C22        3.3880   -8.5960   18.3040 C.ar  1275  DFZ1275     0.0000
     13  N1         4.8520   -2.1560   19.9810 N.2   1275  DFZ1275    -0.1548
     14  C6         3.9260   -3.0990   19.7700 C.1   1275  DFZ1275     0.0942
     15  C5         4.2350   -4.2300   19.0210 C.2   1275  DFZ1275     0.1614
     16  N9         5.9720   -5.3620   17.7820 N.pl3 1275  DFZ1275    -0.0281
     17  C4         5.5390   -4.3340   18.5170 C.2   1275  DFZ1275     0.3688
     18  N3         6.4120   -3.3440   18.7820 N.2   1275  DFZ1275    -0.0317
     19  N90        2.6610   -3.1610   20.1650 N.2   1275  DFZ1275    -0.3503
     20  C17        3.5100   -7.3500   18.9160 C.ar  1275  DFZ1275     0.0001
     21  C1         3.0590   -4.9830   18.9950 C.2   1275  DFZ1275     0.0482
     22  C18        2.9100   -6.2190   18.3600 C.ar  1275  DFZ1275     0.0034
     23  C23        7.5920   -4.3990   16.1920 C.3   1275  DFZ1275     0.2372
     24  C8         7.3640   -5.4350   17.3020 C.3   1275  DFZ1275     0.2865
     25  O24        8.4060   -3.3250   16.6890 O.3   1275  DFZ1275    -0.2156
@<TRIPOS>BOND
     1    23    25    1
     2    23    24    1
     3    10    11   ar
     4    10     9   ar
     5    11    12   ar
     6     9    22   ar
     7    24    16    1
     8    16    17    1
     9    12    20   ar
    10    22    20   ar
    11    22    21    1
    12    17    18    2
    13    17    15    1
    14    18     1    1
    15    21    15    2
    16    21     2    1
    17    15    14    1
    18     1    13    1
    19     4     5   ar
    20     4     3   ar
    21     2     3    1
    22     2    19    2
    23    14    13    2
    24    14    19    2
    25     5     6   ar
    26     3     8   ar
    27     6     7   ar
    28     8     7   ar
