@<TRIPOS>MOLECULE
2brn_DF1_A_1.pdb
 26 29 0 0 0
SMALL
GASTEIGER

@<TRIPOS>ATOM
      1  C17        3.8910   -6.9350   18.9340 C.ar  1277  DF11277     0.0001
      2  C18        3.6840   -8.1800   18.3240 C.ar  1277  DF11277     0.0000
      3  C19        2.7030   -8.3230   17.3390 C.ar  1277  DF11277     0.0000
      4  C20        1.9290   -7.2240   16.9650 C.ar  1277  DF11277     0.0000
      5  C21        2.1430   -5.9780   17.5700 C.ar  1277  DF11277     0.0001
      6  C15        3.1260   -5.8340   18.5540 C.ar  1277  DF11277     0.0034
      7  C7         3.3290   -4.5810   19.1610 C.2   1277  DF11277     0.0482
      8  C6         4.5210   -3.8420   19.1320 C.2   1277  DF11277     0.1614
      9  C4         5.8260   -4.1040   18.7420 C.2   1277  DF11277     0.3688
     10  N10        6.1610   -5.3000   18.1630 N.pl3 1277  DF11277    -0.0282
     11  C11        6.6830   -5.3550   16.7670 C.3   1277  DF11277     0.2837
     12  C12        8.1110   -4.7500   16.8160 C.3   1277  DF11277     0.2029
     13  C14        9.0490   -5.4490   15.8290 C.3   1277  DF11277     0.0401
     14  O13        8.0840   -3.3060   16.6280 O.3   1277  DF11277    -0.2185
     15  N3         6.7710   -3.1620   18.9380 N.2   1277  DF11277    -0.0317
     16  C2         6.4590   -1.9940   19.5310 C.3   1277  DF11277     0.4013
     17  N1         5.2080   -1.7340   19.9080 N.2   1277  DF11277    -0.1548
     18  C5         4.2360   -2.6300   19.7290 C.1   1277  DF11277     0.0942
     19  N9         2.9070   -2.6020   20.0530 N.2   1277  DF11277    -0.3503
     20  C8         2.3100   -3.7530   19.6430 C.2   1277  DF11277     0.1436
     21  C16        0.9660   -4.0820   19.8800 C.ar  1277  DF11277     0.0305
     22  C22        0.4520   -5.3440   19.5320 C.ar  1277  DF11277     0.0026
     23  C23       -0.8860   -5.6480   19.8170 C.ar  1277  DF11277     0.0001
     24  C24       -1.6660   -4.7510   20.5540 C.ar  1277  DF11277     0.0000
     25  C25       -1.1180   -3.5360   20.9730 C.ar  1277  DF11277     0.0001
     26  C26        0.1980   -3.2180   20.6430 C.ar  1277  DF11277     0.0026
@<TRIPOS>BOND
     1    13    12    1
     2    14    12    1
     3    11    12    1
     4    11    10    1
     5     4     3   ar
     6     4     5   ar
     7     3     2   ar
     8     5     6   ar
     9    10     9    1
    10     2     1   ar
    11     6     1   ar
    12     6     7    1
    13     9    15    2
    14     9     8    1
    15    15    16    1
    16     8     7    2
    17     8    18    1
    18     7    20    1
    19    16    17    1
    20    22    23   ar
    21    22    21   ar
    22    20    21    1
    23    20    19    2
    24    18    17    2
    25    18    19    2
    26    23    24   ar
    27    21    26   ar
    28    24    25   ar
    29    26    25   ar
