@<TRIPOS>MOLECULE
2bro_DF2_A_1.pdb
 27 30 0 0 0
SMALL
GASTEIGER

@<TRIPOS>ATOM
      1  C2         6.0080   -2.2440   19.4940 C.3   1277  DF21277     0.4013
      2  C10        2.0170   -4.2580   19.5640 C.2   1277  DF21277     0.1436
      3  C11        0.6750   -4.5770   19.7620 C.ar  1277  DF21277     0.0305
      4  C12        0.0310   -5.6330   19.1180 C.ar  1277  DF21277     0.0026
      5  C13       -1.3250   -5.9030   19.3630 C.ar  1277  DF21277     0.0001
      6  C14       -2.0480   -5.0900   20.2500 C.ar  1277  DF21277     0.0000
      7  C15       -1.4140   -4.0250   20.8720 C.ar  1277  DF21277     0.0001
      8  C16       -0.0610   -3.7700   20.6310 C.ar  1277  DF21277     0.0026
      9  C19        2.4130   -6.5850   17.1240 C.ar  1277  DF21277     0.0001
     10  C20        2.3890   -7.9450   16.7750 C.ar  1277  DF21277     0.0000
     11  C21        2.8260   -8.9490   17.6610 C.ar  1277  DF21277     0.0000
     12  C22        3.3390   -8.7590   18.9190 C.ar  1277  DF21277     0.0000
     13  N1         4.7640   -2.1100   19.9200 N.2   1277  DF21277    -0.1548
     14  C26        8.6480   -5.4600   15.6850 C.3   1277  DF21277     0.2192
     15  C6         3.8480   -3.0580   19.6860 C.1   1277  DF21277     0.0942
     16  C5         4.1910   -4.2270   19.0050 C.2   1277  DF21277     0.1614
     17  O27        7.8400   -6.5480   15.2260 O.3   1277  DF21277    -0.2174
     18  N9         6.0290   -5.3850   17.9910 N.pl3 1277  DF21277    -0.0281
     19  C4         5.5280   -4.3360   18.6050 C.2   1277  DF21277     0.3688
     20  N3         6.4000   -3.3520   18.8690 N.2   1277  DF21277    -0.0317
     21  N90        2.5400   -3.1060   19.9750 N.2   1277  DF21277    -0.3503
     22  C17        3.3500   -7.3800   19.1670 C.ar  1277  DF21277     0.0001
     23  C1         3.0190   -4.9960   18.9380 C.2   1277  DF21277     0.0482
     24  C18        2.9050   -6.3050   18.3830 C.ar  1277  DF21277     0.0034
     25  C23        7.7500   -4.5820   16.5380 C.3   1277  DF21277     0.2355
     26  C8         7.4670   -5.4010   17.8080 C.3   1277  DF21277     0.2865
     27  O24        8.3350   -3.2640   16.8360 O.3   1277  DF21277    -0.2157
@<TRIPOS>BOND
     1    17    14    1
     2    14    25    1
     3    25    27    1
     4    25    26    1
     5    10     9   ar
     6    10    11   ar
     7     9    24   ar
     8    11    12   ar
     9    26    18    1
    10    18    19    1
    11    24    23    1
    12    24    22   ar
    13    19    20    2
    14    19    16    1
    15    20     1    1
    16    12    22   ar
    17    23    16    2
    18    23     2    1
    19    16    15    1
    20     4     5   ar
    21     4     3   ar
    22     5     6   ar
    23     1    13    1
    24     2     3    1
    25     2    21    2
    26    15    13    2
    27    15    21    2
    28     3     8   ar
    29     6     7   ar
    30     8     7   ar
