@<TRIPOS>MOLECULE
2brp_XLS_A_1.pdb
 10 9 0 0 0
SMALL
GASTEIGER

@<TRIPOS>ATOM
      1  C1        19.4690  -23.0950   44.5090 C.3   1100  XLS1100     0.2175
      2  C2        20.2130  -23.2770   43.3100 C.3   1100  XLS1100     0.2175
      3  C3        21.1480  -22.2650   42.8660 C.3   1100  XLS1100     0.2175
      4  C4        21.7290  -22.2680   41.5040 C.3   1100  XLS1100     0.2175
      5  C5        20.7550  -22.3740   40.3370 C.3   1100  XLS1100     0.2175
      6  O1        18.3260  -23.6310   44.3190 O.3   1100  XLS1100    -0.2175
      7  O2        20.8890  -24.4770   43.3890 O.3   1100  XLS1100    -0.2175
      8  O3        22.1230  -21.9300   43.8450 O.3   1100  XLS1100    -0.2175
      9  O4        22.5930  -21.1710   41.2450 O.3   1100  XLS1100    -0.2175
     10  O5        19.6680  -21.4870   40.3270 O.3   1100  XLS1100    -0.2175
@<TRIPOS>BOND
     1    10     5    1
     2     5     4    1
     3     9     4    1
     4     4     3    1
     5     3     2    1
     6     3     8    1
     7     2     7    1
     8     2     1    1
     9     6     1    1
