@<TRIPOS>MOLECULE
2brp_SIE_A_1.pdb
 35 37 0 0 0
SMALL
GASTEIGER

@<TRIPOS>ATOM
      1  CS1       15.3520  -10.8030   33.6460 C.ar  1000  SIE1000     0.0160
      2  CS2       16.1400  -11.9350   33.9780 C.ar  1000  SIE1000     0.0046
      3  CS3       17.5700  -11.8280   34.2050 C.ar  1000  SIE1000     0.0399
      4  CS4       18.2840  -10.5340   34.1050 C.ar  1000  SIE1000     0.1729
      5  CS5       17.4220   -9.3020   33.7610 C.ar  1000  SIE1000     0.0399
      6  CS6       15.9920   -9.4870   33.5400 C.ar  1000  SIE1000     0.0046
      7  OS7       19.9090  -10.3910   34.3480 O.3   1000  SIE1000    -0.3468
      8  SS7       20.4990   -9.1530   34.6280 S.3   1000  SIE1000     0.1232
      9  OS8       20.1980   -8.0870   33.6950 O.3   1000  SIE1000    -0.0428
     10  OS9       20.0830   -8.8480   35.9290 O.3   1000  SIE1000    -0.0428
     11  NS0       22.0030   -9.3470   34.6820 N.3   1000  SIE1000     0.0501
     12  NI1       12.8380  -11.9980   33.3800 N.ar  1000  SIE1000    -0.3271
     13  CI2       13.6640  -10.8730   33.3090 C.ar  1000  SIE1000     0.0599
     14  CI3       12.9960   -9.7400   32.9910 C.ar  1000  SIE1000     0.0186
     15  CI4       10.5000   -9.3730   32.5400 C.ar  1000  SIE1000     0.0047
     16  CI5        9.2780  -10.0140   32.4820 C.ar  1000  SIE1000     0.0399
     17  CI6        9.1470  -11.4080   32.7110 C.ar  1000  SIE1000     0.1743
     18  CI7       10.2700  -12.2240   33.0260 C.ar  1000  SIE1000     0.0570
     19  CI8       11.5380  -11.5570   33.0880 C.ar  1000  SIE1000     0.0630
     20  CI9       11.6320  -10.1310   32.8570 C.ar  1000  SIE1000     0.0174
     21  CP1       13.2000  -13.4090   33.7750 C.3   1000  SIE1000     0.1060
     22  CP2       14.1980  -14.0560   32.8290 C.3   1000  SIE1000     0.0245
     23  CP3       14.7750  -15.2990   33.4680 C.3   1000  SIE1000     0.0020
     24  CP4       16.2970  -15.2640   33.5420 C.3   1000  SIE1000     0.0001
     25  CP5       16.8780  -16.6450   33.8900 C.3   1000  SIE1000     0.0000
     26  CP6       16.2210  -17.2910   35.1260 C.3   1000  SIE1000     0.0000
     27  CP7       16.3460  -18.8180   35.0780 C.3   1000  SIE1000     0.0000
     28  CP8       15.9740  -19.3490   33.6900 C.3   1000  SIE1000     0.0000
     29  CP9       14.6860  -20.1440   33.7150 C.3   1000  SIE1000     0.0000
     30  CP0       13.9970  -20.1370   32.3600 C.3   1000  SIE1000     0.0000
     31  O27        7.2000  -11.7610   34.8300 O.3   1000  SIE1000    -0.0428
     32  S27        6.6210  -12.0350   33.5920 S.3   1000  SIE1000     0.1232
     33  O28        5.6300  -11.1150   33.0920 O.3   1000  SIE1000    -0.0428
     34  O29        7.6720  -12.1250   32.6160 O.3   1000  SIE1000    -0.3468
     35  N20        6.0080  -13.3990   33.6810 N.3   1000  SIE1000     0.0501
@<TRIPOS>BOND
     1    30    29    1
     2    16    15   ar
     3    16    17   ar
     4    15    20   ar
     5    34    17    1
     6    34    32    1
     7    17    18   ar
     8    22    23    1
     9    22    21    1
    10    20    14   ar
    11    20    19   ar
    12    14    13   ar
    13    18    19   ar
    14    19    12   ar
    15    33    32    1
    16    13    12   ar
    17    13     1    1
    18    12    21    1
    19    23    24    1
    20     6     1   ar
    21     6     5   ar
    22    24    25    1
    23    32    35    1
    24    32    31    1
    25     1     2   ar
    26    28    29    1
    27    28    27    1
    28     9     8    1
    29     5     4   ar
    30    25    26    1
    31     2     3   ar
    32     4     3   ar
    33     4     7    1
    34     7     8    1
    35     8    11    1
    36     8    10    1
    37    27    26    1
