@<TRIPOS>MOLECULE
2brq_GSH_A_1.pdb
 20 19 0 0 0
SMALL
GASTEIGER

@<TRIPOS>ATOM
      1  N1        23.2840   19.2690   12.1960 N.3   3330  GSH3330    -0.1208
      2  CA1       23.6550   20.0650   13.3560 C.3   3330  GSH3330     0.1948
      3  C1        23.2260   21.5070   13.2620 C.2   3330  GSH3330     0.3819
      4  O11       23.8790   22.3100   12.5540 O.co2 3330  GSH3330    -0.2441
      5  O12       22.2340   21.9200   13.9140 O.co2 3330  GSH3330    -0.2441
      6  CB1       23.1210   19.4790   14.6590 C.3   3330  GSH3330     0.0402
      7  CG1       24.0740   19.9020   15.7760 C.3   3330  GSH3330     0.0889
      8  CD1       23.6010   19.3610   17.0930 C.2   3330  GSH3330     0.2418
      9  OE1       23.5350   17.9730   17.3030 O.2   3330  GSH3330    -0.2733
     10  N2        23.2860   20.2920   17.9950 N.am  3330  GSH3330    -0.1968
     11  CA2       22.7710   20.0680   19.3360 C.3   3330  GSH3330     0.1843
     12  C2        21.2680   20.1140   19.3500 C.2   3330  GSH3330     0.2627
     13  O2        20.5640   20.3850   20.5440 O.2   3330  GSH3330    -0.2714
     14  CB2       23.2870   21.1960   20.2250 C.3   3330  GSH3330     0.0997
     15  SG2       25.0580   20.9910   20.5340 S.3   3330  GSH3330    -0.0797
     16  N3        20.6560   19.8950   18.1930 N.am  3330  GSH3330    -0.1917
     17  CA3       19.3150   20.3720   17.9520 C.3   3330  GSH3330     0.2285
     18  C3        18.5610   19.3330   17.1760 C.2   3330  GSH3330     0.3865
     19  O31       19.1440   18.2960   16.7750 O.co2 3330  GSH3330    -0.2437
     20  O32       17.3530   19.5090   16.9320 O.co2 3330  GSH3330    -0.2437
@<TRIPOS>BOND
     1     1     2    1
     2     4     3   ar
     3     3     2    1
     4     3     5   ar
     5     2     6    1
     6     6     7    1
     7     7     8    1
     8    19    18   ar
     9    20    18   ar
    10     8     9    2
    11     8    10   am
    12    18    17    1
    13    17    16    1
    14    10    11    1
    15    16    12   am
    16    11    12    1
    17    11    14    1
    18    12    13    2
    19    14    15    1
