@<TRIPOS>MOLECULE
2brt_AKG_A_1.pdb
 10 9 0 0 0
SMALL
GASTEIGER

@<TRIPOS>ATOM
      1  C1        22.2660   27.8920   34.9480 C.2   1351  AKG1351     0.4219
      2  O1        22.2860   26.8080   35.6180 O.co2 1351  AKG1351    -0.2373
      3  O2        21.7310   28.0100   33.7770 O.co2 1351  AKG1351    -0.2373
      4  C2        22.8000   29.0900   35.5930 C.2   1351  AKG1351     0.2526
      5  O5        22.9670   30.0870   34.8770 O.2   1351  AKG1351    -0.2843
      6  C3        23.0110   29.0140   37.1160 C.3   1351  AKG1351     0.0881
      7  C4        23.7960   30.1250   37.7950 C.3   1351  AKG1351     0.1224
      8  C5        24.0020   29.8360   39.2920 C.2   1351  AKG1351     0.3653
      9  O3        24.6000   28.7870   39.6330 O.co2 1351  AKG1351    -0.2456
     10  O4        23.5980   30.6590   40.1720 O.co2 1351  AKG1351    -0.2456
@<TRIPOS>BOND
     1     3     1   ar
     2     5     4    2
     3     1     4    1
     4     1     2   ar
     5     4     6    1
     6     6     7    1
     7     7     8    1
     8     8     9   ar
     9     8    10   ar
