@<TRIPOS>MOLECULE
2brt_NAR_A_1.pdb
 20 22 0 0 0
SMALL
GASTEIGER

@<TRIPOS>ATOM
      1  C1        16.7420   23.6070   30.1360 C.ar  1352  NAR1352     0.0792
      2  C2        15.9030   24.7230   29.9400 C.ar  1352  NAR1352     0.2020
      3  C3        16.3410   25.9880   29.9150 C.ar  1352  NAR1352     0.0843
      4  C4        17.6460   26.2820   30.0600 C.ar  1352  NAR1352     0.2046
      5  C5        18.6190   25.1880   30.2830 C.ar  1352  NAR1352     0.1078
      6  C6        18.0970   23.8130   30.3210 C.ar  1352  NAR1352     0.1479
      7  C7        20.0860   25.4460   30.5350 C.2   1352  NAR1352     0.1831
      8  C8        20.9830   24.1770   30.7990 C.3   1352  NAR1352     0.1174
      9  C9        20.3730   22.9030   30.1740 C.3   1352  NAR1352     0.1958
     10  O1        18.9650   22.7740   30.5220 O.3   1352  NAR1352    -0.4740
     11  O2        20.4650   26.6670   30.6140 O.2   1352  NAR1352    -0.2910
     12  C10       21.0650   21.5580   30.4250 C.ar  1352  NAR1352     0.0178
     13  C11       22.0900   21.2970   31.3660 C.ar  1352  NAR1352     0.0025
     14  C12       22.6280   20.0110   31.4840 C.ar  1352  NAR1352     0.0418
     15  C13       22.2090   18.9480   30.6640 C.ar  1352  NAR1352     0.1957
     16  C14       21.2280   19.1840   29.7140 C.ar  1352  NAR1352     0.0418
     17  C15       20.6610   20.4630   29.6060 C.ar  1352  NAR1352     0.0025
     18  O3        22.7570   17.6690   30.7610 O.3   1352  NAR1352    -0.2866
     19  O4        14.7150   24.6630   29.3450 O.3   1352  NAR1352    -0.2864
     20  O5        17.9570   27.5720   29.9890 O.3   1352  NAR1352    -0.2863
@<TRIPOS>BOND
     1    19     2    1
     2    17    16   ar
     3    17    12   ar
     4    16    15   ar
     5     3     2   ar
     6     3     4   ar
     7     2     1   ar
     8    20     4    1
     9     4     5   ar
    10     1     6   ar
    11     9    12    1
    12     9    10    1
    13     9     8    1
    14     5     6   ar
    15     5     7    1
    16     6    10    1
    17    12    13   ar
    18     7    11    2
    19     7     8    1
    20    15    18    1
    21    15    14   ar
    22    13    14   ar
