@<TRIPOS>MOLECULE
2bs2_HEM_C_1.pdb
 43 50 0 0 0
SMALL
GASTEIGER

@<TRIPOS>ATOM
      1 FE         23.4940   -5.2950  -32.4080 Fe    1255  HEM1255     0.0000
      2  CHA       24.0550   -6.7250  -29.3680 C.2   1255  HEM1255     0.0000
      3  CHB       23.4150   -8.3540  -33.9010 C.2   1255  HEM1255     0.0000
      4  CHC       22.9620   -3.7680  -35.4630 C.2   1255  HEM1255     0.0000
      5  CHD       23.7530   -2.1640  -30.9490 C.2   1255  HEM1255     0.0000
      6  NA        23.5900   -7.1640  -31.7560 N.ar  1255  HEM1255     0.0000
      7  C1A       23.7880   -7.5670  -30.4510 C.ar  1255  HEM1255     0.0000
      8  C2A       23.5770   -8.9920  -30.3690 C.ar  1255  HEM1255     0.0000
      9  C3A       23.6010   -9.4640  -31.6390 C.ar  1255  HEM1255     0.0000
     10  C4A       23.5340   -8.3130  -32.5140 C.ar  1255  HEM1255     0.0000
     11  CMA       23.7120  -10.9350  -32.0450 C.3   1255  HEM1255     0.0000
     12  CAA       23.3150   -9.7680  -29.0760 C.3   1255  HEM1255     0.0000
     13  CBA       22.0410   -9.2800  -28.3940 C.3   1255  HEM1255     0.0000
     14  CGA       21.9320   -9.7520  -26.9590 C.2   1255  HEM1255     0.0000
     15  O1A       22.9860   -9.9920  -26.3320 O.co2 1255  HEM1255     0.0000
     16  O2A       20.7940   -9.8650  -26.4510 O.co2 1255  HEM1255     0.0000
     17  NB        23.2290   -5.9390  -34.3210 N.2   1255  HEM1255     0.0000
     18  C1B       23.2980   -7.2470  -34.7440 C.2   1255  HEM1255     0.0000
     19  C2B       23.4640   -7.2650  -36.1810 C.2   1255  HEM1255     0.0000
     20  C3B       23.2550   -5.9970  -36.6230 C.2   1255  HEM1255     0.0000
     21  C4B       23.0840   -5.1620  -35.4540 C.2   1255  HEM1255     0.0000
     22  CMB       23.8990   -8.5010  -36.9940 C.3   1255  HEM1255     0.0000
     23  CAB       23.2750   -5.5230  -37.9420 C.3   1255  HEM1255     0.0000
     24  CBB       22.6670   -6.2040  -39.0620 C.3   1255  HEM1255     0.0000
     25  NC        23.2480   -3.3550  -33.0510 N.ar  1255  HEM1255     0.0000
     26  C1C       23.0220   -2.9330  -34.3450 C.ar  1255  HEM1255     0.0000
     27  C2C       22.8330   -1.5030  -34.3630 C.ar  1255  HEM1255     0.0000
     28  C3C       22.9930   -1.0620  -33.0890 C.ar  1255  HEM1255     0.0000
     29  C4C       23.3660   -2.2080  -32.2900 C.ar  1255  HEM1255     0.0000
     30  CMC       22.5210   -0.6250  -35.5660 C.3   1255  HEM1255     0.0000
     31  CAC       22.8630    0.2820  -32.7160 C.3   1255  HEM1255     0.0000
     32  CBC       22.3650    0.8150  -31.4610 C.3   1255  HEM1255     0.0000
     33  ND        23.8930   -4.5790  -30.5390 N.2   1255  HEM1255     0.0000
     34  C1D       24.0220   -3.2640  -30.1460 C.2   1255  HEM1255     0.0000
     35  C2D       24.5220   -3.2110  -28.7880 C.2   1255  HEM1255     0.0000
     36  C3D       24.5130   -4.4800  -28.3160 C.2   1255  HEM1255     0.0000
     37  C4D       24.1230   -5.3380  -29.4150 C.2   1255  HEM1255     0.0000
     38  CMD       24.9800   -1.9570  -28.0410 C.3   1255  HEM1255     0.0000
     39  CAD       24.8480   -4.9350  -26.9010 C.3   1255  HEM1255     0.0000
     40  CBD       23.5640   -5.1140  -26.1220 C.3   1255  HEM1255     0.0000
     41  CGD       23.8100   -5.5980  -24.7150 C.2   1255  HEM1255     0.0000
     42  O1D       22.8390   -6.0260  -24.0610 O.co2 1255  HEM1255     0.0000
     43  O2D       24.9730   -5.5420  -24.2650 O.co2 1255  HEM1255     0.0000
@<TRIPOS>BOND
     1    24    23    1
     2    23    20    1
     3    22    19    1
     4    20    19    2
     5    20    21    1
     6    19    18    1
     7    30    27    1
     8     4    21    2
     9     4    26    1
    10    21    17    1
    11    18    17    2
    12    18     3    1
    13    27    26   ar
    14    27    28   ar
    15    26    25   ar
    16    17     1    1
    17     3    10    2
    18    28    31    1
    19    28    29   ar
    20    25     1    1
    21    25    29   ar
    22    31    32    1
    23    10     6   ar
    24    10     9   ar
    25     1     6    1
    26     1    33    1
    27    29     5    1
    28    11     9    1
    29     6     7   ar
    30     9     8   ar
    31     5    34    2
    32    33    34    1
    33    33    37    2
    34     7     8   ar
    35     7     2    2
    36     8    12    1
    37    34    35    1
    38    37     2    1
    39    37    36    1
    40    12    13    1
    41    35    36    2
    42    35    38    1
    43    13    14    1
    44    36    39    1
    45    14    16   ar
    46    14    15   ar
    47    39    40    1
    48    40    41    1
    49    41    43   ar
    50    41    42   ar
