@<TRIPOS>MOLECULE
2bs3_HEM_C_1.pdb
 43 50 0 0 0
SMALL
GASTEIGER

@<TRIPOS>ATOM
      1 FE         23.6100   -5.3340  -32.3670 Fe    1255  HEM1255     0.0000
      2  CHA       24.1720   -6.7780  -29.3290 C.2   1255  HEM1255     0.0000
      3  CHB       23.5380   -8.3900  -33.8590 C.2   1255  HEM1255     0.0000
      4  CHC       23.0360   -3.8160  -35.4350 C.2   1255  HEM1255     0.0000
      5  CHD       23.8680   -2.2210  -30.9220 C.2   1255  HEM1255     0.0000
      6  NA        23.7280   -7.2070  -31.7070 N.ar  1255  HEM1255     0.0000
      7  C1A       23.9170   -7.6200  -30.4060 C.ar  1255  HEM1255     0.0000
      8  C2A       23.7220   -9.0480  -30.3280 C.ar  1255  HEM1255     0.0000
      9  C3A       23.7110   -9.5100  -31.6020 C.ar  1255  HEM1255     0.0000
     10  C4A       23.6690   -8.3550  -32.4700 C.ar  1255  HEM1255     0.0000
     11  CMA       23.7290  -10.9800  -32.0230 C.3   1255  HEM1255     0.0000
     12  CAA       23.5000   -9.8600  -29.0440 C.3   1255  HEM1255     0.0000
     13  CBA       22.2470   -9.3390  -28.3440 C.3   1255  HEM1255     0.0000
     14  CGA       22.1130   -9.8190  -26.9150 C.2   1255  HEM1255     0.0000
     15  O1A       23.1500  -10.1000  -26.2730 O.co2 1255  HEM1255     0.0000
     16  O2A       20.9660   -9.8930  -26.4260 O.co2 1255  HEM1255     0.0000
     17  NB        23.3390   -5.9740  -34.2840 N.2   1255  HEM1255     0.0000
     18  C1B       23.4070   -7.2850  -34.7030 C.2   1255  HEM1255     0.0000
     19  C2B       23.5210   -7.3130  -36.1430 C.2   1255  HEM1255     0.0000
     20  C3B       23.2500   -6.0570  -36.5880 C.2   1255  HEM1255     0.0000
     21  C4B       23.1620   -5.2080  -35.4200 C.2   1255  HEM1255     0.0000
     22  CMB       23.9520   -8.5570  -36.9420 C.3   1255  HEM1255     0.0000
     23  CAB       23.1320   -5.5890  -37.8990 C.3   1255  HEM1255     0.0000
     24  CBB       22.9890   -6.4070  -39.0960 C.3   1255  HEM1255     0.0000
     25  NC        23.3670   -3.4050  -33.0280 N.ar  1255  HEM1255     0.0000
     26  C1C       23.1170   -2.9790  -34.3170 C.ar  1255  HEM1255     0.0000
     27  C2C       22.8900   -1.5510  -34.3210 C.ar  1255  HEM1255     0.0000
     28  C3C       23.1260   -1.1070  -33.0600 C.ar  1255  HEM1255     0.0000
     29  C4C       23.4850   -2.2590  -32.2650 C.ar  1255  HEM1255     0.0000
     30  CMC       22.4650   -0.6700  -35.5010 C.3   1255  HEM1255     0.0000
     31  CAC       23.0860    0.2400  -32.6740 C.3   1255  HEM1255     0.0000
     32  CBC       22.5320    0.8040  -31.4620 C.3   1255  HEM1255     0.0000
     33  ND        24.0090   -4.6340  -30.5080 N.2   1255  HEM1255     0.0000
     34  C1D       24.1360   -3.3200  -30.1160 C.2   1255  HEM1255     0.0000
     35  C2D       24.6510   -3.2660  -28.7670 C.2   1255  HEM1255     0.0000
     36  C3D       24.6420   -4.5340  -28.2930 C.2   1255  HEM1255     0.0000
     37  C4D       24.2370   -5.3920  -29.3820 C.2   1255  HEM1255     0.0000
     38  CMD       25.1260   -2.0280  -28.0180 C.3   1255  HEM1255     0.0000
     39  CAD       24.9630   -4.9920  -26.8850 C.3   1255  HEM1255     0.0000
     40  CBD       23.6780   -5.1400  -26.0980 C.3   1255  HEM1255     0.0000
     41  CGD       23.9080   -5.6270  -24.6750 C.2   1255  HEM1255     0.0000
     42  O1D       22.9310   -6.0860  -24.0540 O.co2 1255  HEM1255     0.0000
     43  O2D       25.0530   -5.5470  -24.1760 O.co2 1255  HEM1255     0.0000
@<TRIPOS>BOND
     1    24    23    1
     2    23    20    1
     3    22    19    1
     4    20    19    2
     5    20    21    1
     6    19    18    1
     7    30    27    1
     8     4    21    2
     9     4    26    1
    10    21    17    1
    11    18    17    2
    12    18     3    1
    13    27    26   ar
    14    27    28   ar
    15    26    25   ar
    16    17     1    1
    17     3    10    2
    18    28    31    1
    19    28    29   ar
    20    25     1    1
    21    25    29   ar
    22    31    32    1
    23    10     6   ar
    24    10     9   ar
    25     1     6    1
    26     1    33    1
    27    29     5    1
    28    11     9    1
    29     6     7   ar
    30     9     8   ar
    31     5    34    2
    32    33    34    1
    33    33    37    2
    34     7     8   ar
    35     7     2    2
    36     8    12    1
    37    34    35    1
    38    37     2    1
    39    37    36    1
    40    12    13    1
    41    35    36    2
    42    35    38    1
    43    13    14    1
    44    36    39    1
    45    14    16   ar
    46    14    15   ar
    47    39    40    1
    48    40    41    1
    49    41    43   ar
    50    41    42   ar
