@<TRIPOS>MOLECULE
2bs4_HEM_C_1.pdb
 43 50 0 0 0
SMALL
GASTEIGER

@<TRIPOS>ATOM
      1 FE         23.5910   -5.2520  -32.4240 Fe    1255  HEM1255     0.0000
      2  CHA       24.2450   -6.6770  -29.3910 C.2   1255  HEM1255     0.0000
      3  CHB       23.4430   -8.3730  -33.8780 C.2   1255  HEM1255     0.0000
      4  CHC       22.9100   -3.8210  -35.4880 C.2   1255  HEM1255     0.0000
      5  CHD       23.7830   -2.1390  -31.0180 C.2   1255  HEM1255     0.0000
      6  NA        23.7110   -7.1400  -31.7520 N.ar  1255  HEM1255     0.0000
      7  C1A       23.9500   -7.5320  -30.4490 C.ar  1255  HEM1255     0.0000
      8  C2A       23.7080   -8.9530  -30.3410 C.ar  1255  HEM1255     0.0000
      9  C3A       23.7150   -9.4430  -31.6060 C.ar  1255  HEM1255     0.0000
     10  C4A       23.6020   -8.3030  -32.4930 C.ar  1255  HEM1255     0.0000
     11  CMA       23.8750  -10.9060  -32.0350 C.3   1255  HEM1255     0.0000
     12  CAA       23.4500   -9.7530  -29.0610 C.3   1255  HEM1255     0.0000
     13  CBA       22.2360   -9.1620  -28.3680 C.3   1255  HEM1255     0.0000
     14  CGA       21.9730   -9.7690  -27.0080 C.2   1255  HEM1255     0.0000
     15  O1A       22.9500  -10.0690  -26.2840 O.co2 1255  HEM1255     0.0000
     16  O2A       20.7820   -9.9300  -26.6630 O.co2 1255  HEM1255     0.0000
     17  NB        23.2980   -5.9670  -34.3230 N.2   1255  HEM1255     0.0000
     18  C1B       23.3370   -7.2820  -34.7340 C.2   1255  HEM1255     0.0000
     19  C2B       23.5730   -7.3010  -36.1600 C.2   1255  HEM1255     0.0000
     20  C3B       23.2800   -6.0610  -36.6210 C.2   1255  HEM1255     0.0000
     21  C4B       23.0780   -5.2130  -35.4600 C.2   1255  HEM1255     0.0000
     22  CMB       24.1590   -8.4510  -37.0190 C.3   1255  HEM1255     0.0000
     23  CAB       23.2670   -5.6590  -37.9670 C.3   1255  HEM1255     0.0000
     24  CBB       22.6390   -6.4080  -39.0760 C.3   1255  HEM1255     0.0000
     25  NC        23.3140   -3.3580  -33.1030 N.ar  1255  HEM1255     0.0000
     26  C1C       23.0050   -2.9630  -34.3900 C.ar  1255  HEM1255     0.0000
     27  C2C       22.7650   -1.5390  -34.4190 C.ar  1255  HEM1255     0.0000
     28  C3C       23.0260   -1.0680  -33.1730 C.ar  1255  HEM1255     0.0000
     29  C4C       23.4030   -2.2030  -32.3590 C.ar  1255  HEM1255     0.0000
     30  CMC       22.2950   -0.6960  -35.6180 C.3   1255  HEM1255     0.0000
     31  CAC       22.9660    0.2730  -32.7750 C.3   1255  HEM1255     0.0000
     32  CBC       22.2450    0.7750  -31.6100 C.3   1255  HEM1255     0.0000
     33  ND        24.0220   -4.5430  -30.5900 N.2   1255  HEM1255     0.0000
     34  C1D       24.0950   -3.2220  -30.2030 C.2   1255  HEM1255     0.0000
     35  C2D       24.6290   -3.1410  -28.8600 C.2   1255  HEM1255     0.0000
     36  C3D       24.6670   -4.4050  -28.3750 C.2   1255  HEM1255     0.0000
     37  C4D       24.2930   -5.2850  -29.4600 C.2   1255  HEM1255     0.0000
     38  CMD       25.1160   -1.9100  -28.1200 C.3   1255  HEM1255     0.0000
     39  CAD       25.0300   -4.8400  -26.9510 C.3   1255  HEM1255     0.0000
     40  CBD       23.7590   -4.9990  -26.1370 C.3   1255  HEM1255     0.0000
     41  CGD       24.0030   -5.6060  -24.7730 C.2   1255  HEM1255     0.0000
     42  O1D       23.0110   -5.8030  -24.0440 O.co2 1255  HEM1255     0.0000
     43  O2D       25.1720   -5.8910  -24.4250 O.co2 1255  HEM1255     0.0000
@<TRIPOS>BOND
     1    24    23    1
     2    23    20    1
     3    22    19    1
     4    20    19    2
     5    20    21    1
     6    19    18    1
     7    30    27    1
     8     4    21    2
     9     4    26    1
    10    21    17    1
    11    18    17    2
    12    18     3    1
    13    27    26   ar
    14    27    28   ar
    15    26    25   ar
    16    17     1    1
    17     3    10    2
    18    28    31    1
    19    28    29   ar
    20    25     1    1
    21    25    29   ar
    22    31    32    1
    23    10     6   ar
    24    10     9   ar
    25     1     6    1
    26     1    33    1
    27    29     5    1
    28    11     9    1
    29     6     7   ar
    30     9     8   ar
    31     5    34    2
    32    33    34    1
    33    33    37    2
    34     7     8   ar
    35     7     2    2
    36     8    12    1
    37    34    35    1
    38    37     2    1
    39    37    36    1
    40    12    13    1
    41    35    36    2
    42    35    38    1
    43    36    39    1
    44    13    14    1
    45    14    16   ar
    46    14    15   ar
    47    39    40    1
    48    40    41    1
    49    41    43   ar
    50    41    42   ar
