@<TRIPOS>MOLECULE
2bs4_DMW_E_1.pdb
 14 15 0 0 0
SMALL
GASTEIGER

@<TRIPOS>ATOM
      1  C5        19.4130  -11.5820  -49.7330 C.2   1244  DMW1244     0.0162
      2  C5M       19.3830  -11.8590  -48.2350 C.3   1244  DMW1244     0.0342
      3  C4        20.7360  -11.8630  -50.4240 C.2   1244  DMW1244     0.1915
      4  O4        21.7130  -12.2850  -49.7980 O.2   1244  DMW1244    -0.2869
      5  C3        20.8730  -11.6310  -51.8800 C.ar  1244  DMW1244     0.0417
      6  C2        19.7600  -11.1420  -52.6340 C.ar  1244  DMW1244     0.0417
      7  C1        18.4410  -10.8600  -51.9490 C.2   1244  DMW1244     0.1915
      8  O1        17.4750  -10.4370  -52.6060 O.2   1244  DMW1244    -0.2869
      9  C6        18.2760  -11.0880  -50.4760 C.2   1244  DMW1244     0.0162
     10  C3A       22.1500  -11.9040  -52.5480 C.ar  1244  DMW1244     0.0033
     11  C3B       22.3060  -11.6920  -53.9430 C.ar  1244  DMW1244     0.0001
     12  C3C       21.1950  -11.2000  -54.7130 C.ar  1244  DMW1244     0.0001
     13  C3D       19.9300  -10.9280  -54.0590 C.ar  1244  DMW1244     0.0033
     14  C6M       16.8740  -10.7760  -49.8320 C.3   1244  DMW1244     0.0342
@<TRIPOS>BOND
     1    12    13   ar
     2    12    11   ar
     3    13     6   ar
     4    11    10   ar
     5     6     7    1
     6     6     5   ar
     7     8     7    2
     8    10     5   ar
     9     7     9    1
    10     5     3    1
    11     9    14    1
    12     9     1    2
    13     3     4    2
    14     3     1    1
    15     1     2    1
