@<TRIPOS>MOLECULE
2bs5_FUC_A_1.pdb
 10 10 0 0 0
SMALL
GASTEIGER

@<TRIPOS>ATOM
      1  C1        14.0280   11.6840   36.6380 C.3   803  FUC803      0.1776
      2  C2        14.1730   11.2710   35.1720 C.3   803  FUC803      0.2141
      3  C3        14.6360    9.8110   35.1050 C.3   803  FUC803      0.2172
      4  C4        13.6290    8.9360   35.8320 C.3   803  FUC803      0.2116
      5  C5        13.6180    9.3840   37.2900 C.3   803  FUC803      0.1483
      6  C6        12.6130    8.5770   38.0680 C.3   803  FUC803      0.0349
      7  O2        15.1070   12.1280   34.5380 O.3   803  FUC803     -0.2176
      8  O3        14.7000    9.3870   33.7940 O.3   803  FUC803     -0.2175
      9  O4        12.3100    9.0520   35.3250 O.3   803  FUC803     -0.2177
     10  O5        13.2470   10.7440   37.3390 O.3   803  FUC803     -0.3508
@<TRIPOS>BOND
     1     8     3    1
     2     7     2    1
     3     3     2    1
     4     3     4    1
     5     2     1    1
     6     9     4    1
     7     4     5    1
     8     1    10    1
     9     5    10    1
    10     5     6    1
