@<TRIPOS>MOLECULE
2bs5_BGC_A_1.pdb
 12 12 0 0 0
SMALL
GASTEIGER

@<TRIPOS>ATOM
      1  C1        17.6240   -2.7550   42.8470 C.3   901  BGC901      0.3024
      2  C2        19.0870   -2.9930   42.4590 C.3   901  BGC901      0.2434
      3  C3        19.2100   -4.0150   41.3310 C.3   901  BGC901      0.2199
      4  C4        18.3010   -5.2490   41.5370 C.3   901  BGC901      0.2144
      5  C5        16.8770   -4.8400   41.9270 C.3   901  BGC901      0.1836
      6  C6        16.0110   -6.0390   42.2680 C.3   901  BGC901      0.2142
      7  O1        17.6000   -2.0580   44.0710 O.3   901  BGC901     -0.1869
      8  O2        19.7330   -1.7980   42.0410 O.3   901  BGC901     -0.2148
      9  O3        20.5790   -4.3530   41.2260 O.3   901  BGC901     -0.2174
     10  O4        18.1830   -5.8930   40.2900 O.3   901  BGC901     -0.2176
     11  O5        16.9030   -3.9660   43.0350 O.3   901  BGC901     -0.3236
     12  O6        14.6800   -5.5780   42.3370 O.3   901  BGC901     -0.2176
@<TRIPOS>BOND
     1    10     4    1
     2     9     3    1
     3     3     4    1
     4     3     2    1
     5     4     5    1
     6     5     6    1
     7     5    11    1
     8     8     2    1
     9     6    12    1
    10     2     1    1
    11     1    11    1
    12     1     7    1
