@<TRIPOS>MOLECULE
2bs6_XYS_C_1.pdb
 10 10 0 0 0
SMALL
GASTEIGER

@<TRIPOS>ATOM
      1  C1        -3.9560   12.7150   15.3850 C.3   801  XYS801      0.3024
      2  C2        -4.4800   12.7480   16.8260 C.3   801  XYS801      0.2434
      3  C3        -5.6590   13.7280   17.0270 C.3   801  XYS801      0.2199
      4  C4        -5.0820   15.0900   16.7220 C.3   801  XYS801      0.2143
      5  C5        -4.6350   15.1520   15.2580 C.3   801  XYS801      0.1804
      6  O1        -4.3970   11.6420   14.5500 O.3   801  XYS801     -0.1869
      7  O2        -4.4430   11.6400   17.7080 O.3   801  XYS801     -0.2148
      8  O3        -6.2440   13.6450   18.3240 O.3   801  XYS801     -0.2174
      9  O4        -5.8770   16.1560   17.1870 O.3   801  XYS801     -0.2176
     10  O5        -4.1560   13.9030   14.6990 O.3   801  XYS801     -0.3237
@<TRIPOS>BOND
     1     6     1    1
     2    10     5    1
     3    10     1    1
     4     5     4    1
     5     1     2    1
     6     4     3    1
     7     4     9    1
     8     2     3    1
     9     2     7    1
    10     3     8    1
