@<TRIPOS>MOLECULE
2bs6_FUC_A_1.pdb
 10 10 0 0 0
SMALL
GASTEIGER

@<TRIPOS>ATOM
      1  C1        21.9290   14.1410   -1.8920 C.3   803  FUC803      0.1776
      2  C2        22.9520   13.6000   -0.8860 C.3   803  FUC803      0.2141
      3  C3        23.6410   14.7850   -0.1920 C.3   803  FUC803      0.2172
      4  C4        22.5690   15.6560    0.4320 C.3   803  FUC803      0.2116
      5  C5        21.6190   16.1600   -0.6780 C.3   803  FUC803      0.1483
      6  C6        20.5350   17.1160   -0.1390 C.3   803  FUC803      0.0349
      7  O2        23.8570   12.7630   -1.5920 O.3   803  FUC803     -0.2176
      8  O3        24.5940   14.3180    0.7350 O.3   803  FUC803     -0.2175
      9  O4        21.8810   14.9340    1.4670 O.3   803  FUC803     -0.2177
     10  O5        21.0280   15.0440   -1.2920 O.3   803  FUC803     -0.3508
@<TRIPOS>BOND
     1     1    10    1
     2     1     2    1
     3     7     2    1
     4    10     5    1
     5     2     3    1
     6     5     6    1
     7     5     4    1
     8     3     4    1
     9     3     8    1
    10     4     9    1
