@<TRIPOS>MOLECULE
2bs7_CBS_1_1.pdb
 29 30 0 0 0
SMALL
GASTEIGER

@<TRIPOS>ATOM
      1  C1A      -12.1580  -29.0350   -5.1150 C.3   1178  CBS1178     0.2586
      2  C2A      -12.6590  -28.5700   -3.7440 C.3   1178  CBS1178     0.1842
      3  C3A      -13.8170  -27.6040   -3.9220 C.3   1178  CBS1178     0.2094
      4  C4A      -13.3490  -26.4150   -4.7700 C.3   1178  CBS1178     0.2136
      5  C5A      -12.8690  -26.9470   -6.1440 C.3   1178  CBS1178     0.1834
      6  C6A      -12.3600  -25.8110   -7.0350 C.3   1178  CBS1178     0.2142
      7  C7A      -12.3830  -30.2610   -1.9710 C.2   1178  CBS1178     0.2420
      8  C8A      -13.0010  -31.4560   -1.2420 C.3   1178  CBS1178     0.0964
      9  N2A      -13.1220  -29.7260   -2.9610 N.am  1178  CBS1178    -0.1992
     10  O1A      -11.0540  -29.8700   -4.9160 O.3   1178  CBS1178    -0.3264
     11  O3A      -14.2170  -27.1450   -2.6440 O.3   1178  CBS1178    -0.2183
     12  O4A      -14.4310  -25.5250   -4.9490 O.3   1178  CBS1178    -0.2176
     13  O5A      -11.7520  -27.8830   -5.9150 O.3   1178  CBS1178    -0.3262
     14  O6A      -11.1250  -25.3440   -6.5250 O.3   1178  CBS1178    -0.2176
     15  O7A      -11.2540  -29.8410   -1.6320 O.2   1178  CBS1178    -0.2733
     16  C1B       -8.6910  -32.5350   -7.2840 C.3   1178  CBS1178     0.2917
     17  C2B       -8.9300  -31.1120   -7.8550 C.3   1178  CBS1178     0.1870
     18  C3B       -9.4560  -30.1520   -6.7550 C.3   1178  CBS1178     0.2063
     19  C4B      -10.6360  -30.7760   -5.9720 C.3   1178  CBS1178     0.1795
     20  C5B      -10.1510  -32.1250   -5.3580 C.3   1178  CBS1178     0.1803
     21  C6B      -11.2560  -32.8150   -4.5800 C.3   1178  CBS1178     0.2141
     22  C7B       -6.4950  -30.4890   -7.6390 C.2   1178  CBS1178     0.2420
     23  C8B       -5.2480  -29.9350   -8.3290 C.3   1178  CBS1178     0.0964
     24  N2B       -7.6370  -30.5930   -8.3830 N.am  1178  CBS1178    -0.1991
     25  O1B       -8.5000  -33.4670   -8.2880 O.3   1178  CBS1178    -0.1879
     26  O3B       -9.8820  -28.9420   -7.3610 O.3   1178  CBS1178    -0.2184
     27  O5B       -9.7680  -33.0070   -6.4480 O.3   1178  CBS1178    -0.3243
     28  O6B      -12.2110  -33.3800   -5.4660 O.3   1178  CBS1178    -0.2176
     29  O7B       -6.4040  -30.8150   -6.4440 O.2   1178  CBS1178    -0.2733
@<TRIPOS>BOND
     1    24    17    1
     2    24    22   am
     3    23    22    1
     4    25    16    1
     5    17    16    1
     6    17    18    1
     7    22    29    2
     8    26    18    1
     9    16    27    1
    10     6    14    1
    11     6     5    1
    12    18    19    1
    13    27    20    1
    14     5    13    1
    15     5     4    1
    16    19    20    1
    17    19    10    1
    18    13     1    1
    19    28    21    1
    20    20    21    1
    21     1    10    1
    22     1     2    1
    23    12     4    1
    24     4     3    1
    25     3     2    1
    26     3    11    1
    27     2     9    1
    28     9     7   am
    29     7    15    2
    30     7     8    1
