@<TRIPOS>MOLECULE
2bs8_NAG_A_1.pdb
 15 15 0 0 0
SMALL
GASTEIGER

@<TRIPOS>ATOM
      1  C1        -2.1190   -1.9970   16.8530 C.3   1177  NAG1177     0.2917
      2  C2        -3.0440   -0.8990   17.4020 C.3   1177  NAG1177     0.1871
      3  C3        -4.4240   -1.4850   17.6220 C.3   1177  NAG1177     0.2095
      4  C4        -4.9720   -2.1110   16.3330 C.3   1177  NAG1177     0.2136
      5  C5        -3.9510   -3.1230   15.7590 C.3   1177  NAG1177     0.1835
      6  C6        -4.3240   -3.6620   14.3890 C.3   1177  NAG1177     0.2142
      7  C7        -1.8020    0.7270   18.6850 C.2   1177  NAG1177     0.2421
      8  C8        -2.3080    1.9510   17.9450 C.3   1177  NAG1177     0.0964
      9  N2        -2.5590   -0.3640   18.6610 N.am  1177  NAG1177    -0.1991
     10  O1        -0.8600   -1.4820   16.5800 O.3   1177  NAG1177    -0.1879
     11  O3        -5.2960   -0.4680   18.0730 O.3   1177  NAG1177    -0.2183
     12  O4        -6.1830   -2.7840   16.6450 O.3   1177  NAG1177    -0.2176
     13  O5        -2.6480   -2.5150   15.6200 O.3   1177  NAG1177    -0.3242
     14  O6        -4.4070   -2.6210   13.4260 O.3   1177  NAG1177    -0.2176
     15  O7        -0.7290    0.7810   19.2860 O.2   1177  NAG1177    -0.2733
@<TRIPOS>BOND
     1    14     6    1
     2     6     5    1
     3    13     5    1
     4    13     1    1
     5     5     4    1
     6     4    12    1
     7     4     3    1
     8    10     1    1
     9     1     2    1
    10     2     3    1
    11     2     9    1
    12     3    11    1
    13     8     7    1
    14     9     7   am
    15     7    15    2
