@<TRIPOS>MOLECULE
2bsa_NAP_A_1.pdb
 48 52 0 0 0
SMALL
GASTEIGER

@<TRIPOS>ATOM
      1  PA       -13.2510   40.6000   -5.5310 P.3   1305  NAP1305     0.2189
      2  O1A      -13.3470   39.3980   -6.4080 O.2   1305  NAP1305    -0.5170
      3  O2A      -12.6800   41.8480   -6.2610 O.3   1305  NAP1305    -0.4371
      4  O5B      -12.2010   40.1220   -4.4140 O.3   1305  NAP1305    -0.3112
      5  C5B      -12.1250   40.5350   -3.0750 C.3   1305  NAP1305     0.1813
      6  C4B      -10.9870   39.7490   -2.4030 C.3   1305  NAP1305     0.1820
      7  O4B      -11.4880   38.9720   -1.3200 O.3   1305  NAP1305    -0.3136
      8  C3B      -10.2160   38.7580   -3.3100 C.3   1305  NAP1305     0.2157
      9  O3B       -8.8150   39.0620   -3.1900 O.3   1305  NAP1305    -0.2175
     10  C2B      -10.6960   37.3700   -2.8080 C.3   1305  NAP1305     0.2314
     11  O2B       -9.8820   36.2060   -2.9670 O.3   1305  NAP1305    -0.2630
     12  C1B      -10.8360   37.7040   -1.3240 C.3   1305  NAP1305     0.3158
     13  N9A      -11.5000   36.6860   -0.4540 N.pl3 1305  NAP1305    -0.1439
     14  C8A      -12.0440   35.4580   -0.7640 C.3   1305  NAP1305     0.3377
     15  N7A      -12.5290   34.9010    0.3860 N.2   1305  NAP1305    -0.2095
     16  C5A      -12.2800   35.7390    1.4290 C.2   1305  NAP1305     0.2526
     17  C6A      -12.5390   35.6860    2.8090 C.2   1305  NAP1305     0.4393
     18  N6A      -13.3200   34.7310    3.3070 N.pl3 1305  NAP1305     0.2180
     19  N1A      -12.1290   36.7490    3.6180 N.2   1305  NAP1305     0.0021
     20  C2A      -11.5140   37.8550    3.0710 C.3   1305  NAP1305     0.5254
     21  N3A      -11.2480   37.8860    1.7180 N.2   1305  NAP1305    -0.0055
     22  C4A      -11.6290   36.8610    0.9080 C.2   1305  NAP1305     0.3518
     23  O3       -14.6250   40.8950   -4.6890 O.3   1305  NAP1305    -0.2703
     24  PN       -16.0230   41.5120   -5.2670 P.3   1305  NAP1305     0.2189
     25  O1N      -16.4420   40.6770   -6.4330 O.2   1305  NAP1305    -0.5170
     26  O2N      -16.0050   42.9760   -5.4310 O.3   1305  NAP1305    -0.4371
     27  O5D      -17.0070   41.1720   -4.0550 O.3   1305  NAP1305    -0.3112
     28  C5D      -17.6310   42.1570   -3.2880 C.3   1305  NAP1305     0.1813
     29  C4D      -18.6400   41.4110   -2.4520 C.3   1305  NAP1305     0.1799
     30  O4D      -19.0010   42.1950   -1.3350 O.3   1305  NAP1305    -0.3327
     31  C3D      -19.8970   41.0460   -3.2350 C.3   1305  NAP1305     0.2158
     32  O3D      -20.0270   39.6290   -3.2190 O.3   1305  NAP1305    -0.2175
     33  C2D      -21.0390   41.7690   -2.5240 C.3   1305  NAP1305     0.2309
     34  O2D      -22.1880   40.9350   -2.2980 O.3   1305  NAP1305    -0.2158
     35  C1D      -20.4070   42.1870   -1.1930 C.3   1305  NAP1305     0.2263
     36  N1N      -20.8990   43.5290   -0.8220 N.pl3 1305  NAP1305    -0.2787
     37  C2N      -21.8720   43.5270    0.1380 C.3   1305  NAP1305     0.1244
     38  C3N      -22.4200   44.7020    0.5690 C.2   1305  NAP1305     0.0544
     39  C7N      -23.6450   44.6230    1.4410 C.2   1305  NAP1305     0.2818
     40  O7N      -24.0980   43.4250    2.0370 O.2   1305  NAP1305    -0.2670
     41  N7N      -24.3270   45.7320    1.6720 N.am  1305  NAP1305    -0.0839
     42  C4N      -21.9120   45.8950    0.0420 C.2   1305  NAP1305     0.0033
     43  C5N      -20.9020   45.8860   -0.9210 C.2   1305  NAP1305     0.0157
     44  C6N      -20.3240   44.6740   -1.3460 C.2   1305  NAP1305     0.0633
     45  P2B       -9.1210   35.6650   -4.3040 P.3   1305  NAP1305     0.5328
     46  O1X      -10.0780   35.4680   -5.4030 O.2   1305  NAP1305    -0.2224
     47  O2X       -8.1380   36.6980   -4.8150 O.3   1305  NAP1305    -0.1145
     48  O3X       -8.3520   34.3860   -3.9860 O.3   1305  NAP1305    -0.1145
@<TRIPOS>BOND
     1    25    24    2
     2     2     1    2
     3     3     1    1
     4     1    23    1
     5     1     4    1
     6    26    24    1
     7    46    45    2
     8    24    23    1
     9    24    27    1
    10    47    45    1
    11     4     5    1
    12    45    48    1
    13    45    11    1
    14    27    28    1
    15     8     9    1
    16     8    10    1
    17     8     6    1
    18    28    29    1
    19    31    32    1
    20    31    33    1
    21    31    29    1
    22     5     6    1
    23    11    10    1
    24    10    12    1
    25    33    34    1
    26    33    35    1
    27    29    30    1
    28     6     7    1
    29    44    43    2
    30    44    36    1
    31    30    35    1
    32    12     7    1
    33    12    13    1
    34    35    36    1
    35    43    42    1
    36    36    37    1
    37    14    13    1
    38    14    15    1
    39    13    22    1
    40    42    38    2
    41    37    38    1
    42    15    16    2
    43    38    39    1
    44    22    16    1
    45    22    21    2
    46    16    17    1
    47    39    41   am
    48    39    40    2
    49    21    20    1
    50    17    18    1
    51    17    19    2
    52    20    19    1
