@<TRIPOS>MOLECULE
2bsb_NAG_A_1.pdb
 15 15 0 0 0
SMALL
GASTEIGER

@<TRIPOS>ATOM
      1  C1        -2.0280   -2.0090   16.4030 C.3   1177  NAG1177     0.2917
      2  C2        -2.9440   -1.1080   17.2340 C.3   1177  NAG1177     0.1871
      3  C3        -4.3040   -1.7700   17.4520 C.3   1177  NAG1177     0.2095
      4  C4        -4.9010   -2.2430   16.1140 C.3   1177  NAG1177     0.2136
      5  C5        -3.8760   -3.1200   15.3950 C.3   1177  NAG1177     0.1835
      6  C6        -4.3480   -3.6620   14.0610 C.3   1177  NAG1177     0.2142
      7  C7        -2.1460    0.4260   18.9400 C.2   1177  NAG1177     0.2421
      8  C8        -1.8190    1.4940   17.9040 C.3   1177  NAG1177     0.0964
      9  N2        -2.3260   -0.8260   18.5180 N.am  1177  NAG1177    -0.1991
     10  O1        -0.8780   -1.3160   16.0940 O.3   1177  NAG1177    -0.1879
     11  O3        -5.1690   -0.8260   18.0580 O.3   1177  NAG1177    -0.2183
     12  O4        -6.0920   -2.9850   16.3470 O.3   1177  NAG1177    -0.2176
     13  O5        -2.6660   -2.3680   15.1700 O.3   1177  NAG1177    -0.3242
     14  O6        -4.4850   -2.6230   13.1040 O.3   1177  NAG1177    -0.2176
     15  O7        -2.2090    0.7320   20.1300 O.2   1177  NAG1177    -0.2733
@<TRIPOS>BOND
     1    14     6    1
     2     6     5    1
     3    13     5    1
     4    13     1    1
     5     5     4    1
     6    10     1    1
     7     4    12    1
     8     4     3    1
     9     1     2    1
    10     2     3    1
    11     2     9    1
    12     3    11    1
    13     8     7    1
    14     9     7   am
    15     7    15    2
