@<TRIPOS>MOLECULE
2bsc_NAG_A_1.pdb
 15 15 0 0 0
SMALL
GASTEIGER

@<TRIPOS>ATOM
      1  C1        37.3780   46.8560   13.7210 C.3   1176  NAG1176     0.2917
      2  C2        36.0680   46.2400   14.2110 C.3   1176  NAG1176     0.1871
      3  C3        36.1280   44.7570   14.2790 C.3   1176  NAG1176     0.2095
      4  C4        36.4670   44.2060   12.9120 C.3   1176  NAG1176     0.2136
      5  C5        37.7300   44.7230   12.3960 C.3   1176  NAG1176     0.1835
      6  C6        38.2700   44.2720   11.0730 C.3   1176  NAG1176     0.2142
      7  C7        34.7980   47.5100   15.7230 C.2   1176  NAG1176     0.2421
      8  C8        34.5060   48.0390   17.2200 C.3   1176  NAG1176     0.0964
      9  N2        35.7640   46.8170   15.5320 N.am  1176  NAG1176    -0.1991
     10  O1        37.3600   48.3370   13.5780 O.3   1176  NAG1176    -0.1879
     11  O3        34.8400   44.2190   14.7240 O.3   1176  NAG1176    -0.2183
     12  O4        36.5230   42.7120   12.9960 O.3   1176  NAG1176    -0.2176
     13  O5        37.6590   46.2230   12.3760 O.3   1176  NAG1176    -0.3242
     14  O6        37.2660   44.7500   10.0550 O.3   1176  NAG1176    -0.2176
     15  O7        33.8200   47.9480   14.9950 O.2   1176  NAG1176    -0.2733
@<TRIPOS>BOND
     1    14     6    1
     2     6     5    1
     3    13     5    1
     4    13     1    1
     5     5     4    1
     6     4    12    1
     7     4     3    1
     8    10     1    1
     9     1     2    1
    10     2     3    1
    11     2     9    1
    12     3    11    1
    13    15     7    2
    14     9     7   am
    15     7     8    1
