@<TRIPOS>MOLECULE
2bsl_DHB_B_1.pdb
 11 11 0 0 0
SMALL
GASTEIGER

@<TRIPOS>ATOM
      1  C1         3.6600   16.1720   23.4900 C.ar  1313  DHB1313     0.0832
      2  C2         3.2980   17.3230   22.8060 C.ar  1313  DHB1313     0.0520
      3  C3         4.1520   17.8180   21.8170 C.ar  1313  DHB1313     0.2345
      4  O3         3.7590   18.9340   21.2060 O.3   1313  DHB1313    -0.2831
      5  C4         5.3630   17.1510   21.5150 C.ar  1313  DHB1313     0.2343
      6  O4         6.2270   17.5470   20.5760 O.3   1313  DHB1313    -0.2831
      7  C5         5.7120   16.0040   22.2070 C.ar  1313  DHB1313     0.0456
      8  C6         4.8520   15.5160   23.1790 C.ar  1313  DHB1313     0.0101
      9  C          2.7950   15.6200   24.5910 C.2   1313  DHB1313     0.3879
     10  O1         2.6500   14.3760   24.6670 O.co2 1313  DHB1313    -0.2406
     11  O2         2.2950   16.4340   25.4070 O.co2 1313  DHB1313    -0.2406
@<TRIPOS>BOND
     1     6     5    1
     2     4     3    1
     3     5     3   ar
     4     5     7   ar
     5     3     2   ar
     6     7     8   ar
     7     2     1   ar
     8     8     1   ar
     9     1     9    1
    10     9    10   ar
    11     9    11   ar
