@<TRIPOS>MOLECULE
2bsl_FMN_A_1.pdb
 31 33 0 0 0
SMALL
GASTEIGER

@<TRIPOS>ATOM
      1  N1         3.9330   48.0920   17.9210 N.2   1312  FMN1312    -0.2887
      2  C2         4.9420   48.9560   18.2820 C.1   1312  FMN1312     0.3669
      3  O2         5.4880   48.8680   19.3830 O.2   1312  FMN1312    -0.1744
      4  N3         5.3740   49.9440   17.3870 N.2   1312  FMN1312    -0.2300
      5  C4         4.7600   50.1080   16.1340 C.1   1312  FMN1312     0.2513
      6  O4         4.6990   51.2690   15.6630 O.2   1312  FMN1312    -0.2057
      7  C4A        3.7470   49.2140   15.7660 C.2   1312  FMN1312     0.2703
      8  N5         3.1570   49.3830   14.5250 N.2   1312  FMN1312    -0.3885
      9  C5A        2.1380   48.5560   14.1570 C.2   1312  FMN1312     0.1233
     10  C6         1.5620   48.7250   12.9410 C.3   1312  FMN1312     0.0606
     11  C7         0.5050   47.8790   12.5970 C.3   1312  FMN1312     0.0111
     12  C7M       -0.4610   48.3390   11.5370 C.3   1312  FMN1312     0.0008
     13  C8         0.0540   46.8630   13.4530 C.3   1312  FMN1312     0.0238
     14  C8M       -1.3910   46.3580   13.3680 C.3   1312  FMN1312     0.0047
     15  C9         0.6610   46.7040   14.6630 C.2   1312  FMN1312    -0.0093
     16  C9A        1.7030   47.5290   15.0420 C.2   1312  FMN1312     0.0750
     17  N10        2.3050   47.3570   16.2840 N.pl3 1312  FMN1312    -0.2548
     18  C10        3.3350   48.2080   16.6510 C.2   1312  FMN1312     0.2449
     19  C1'        2.0450   46.1130   17.0850 C.3   1312  FMN1312     0.1336
     20  C2'        0.8890   46.4370   17.9900 C.3   1312  FMN1312     0.2048
     21  O2'        1.3330   47.4820   18.8550 O.3   1312  FMN1312    -0.2185
     22  C3'        0.4380   45.2340   18.8230 C.3   1312  FMN1312     0.2165
     23  O3'        1.5230   44.8520   19.6630 O.3   1312  FMN1312    -0.2175
     24  C4'       -0.0370   44.0730   17.9480 C.3   1312  FMN1312     0.2147
     25  O4'       -0.8290   44.5590   16.8910 O.3   1312  FMN1312    -0.2176
     26  C5'       -0.8430   43.0610   18.7080 C.3   1312  FMN1312     0.1892
     27  O5'       -1.9960   43.6750   19.1750 O.3   1312  FMN1312    -0.2674
     28  P         -3.4040   43.3400   18.5040 P.3   1312  FMN1312     0.5327
     29  O1P       -3.3030   43.7820   17.0220 O.2   1312  FMN1312    -0.2224
     30  O2P       -3.6240   41.8670   18.5790 O.3   1312  FMN1312    -0.1145
     31  O3P       -4.5780   43.9900   19.2100 O.3   1312  FMN1312    -0.1145
@<TRIPOS>BOND
     1    12    11    1
     2    11    10    1
     3    11    13    1
     4    10     9    1
     5    14    13    1
     6    13    15    1
     7     9     8    2
     8     9    16    1
     9     8     7    2
    10    15    16    2
    11    16    17    1
    12     6     5    2
    13     7     5    1
    14     7    18    1
    15     5     4    2
    16    17    18    1
    17    17    19    1
    18    18     1    2
    19    25    24    1
    20    29    28    2
    21    19    20    1
    22     4     2    2
    23     1     2    2
    24    24    26    1
    25    24    22    1
    26    20    22    1
    27    20    21    1
    28     2     3    2
    29    28    30    1
    30    28    27    1
    31    28    31    1
    32    26    27    1
    33    22    23    1
