@<TRIPOS>MOLECULE
2bsm_BSM_A_1.pdb
 27 29 0 0 0
SMALL
GASTEIGER

@<TRIPOS>ATOM
      1  C22       35.0300    5.5210   21.5590 C.3   1224  BSM1224     0.2525
      2  O21       35.4700    6.0780   22.7990 O.3   1224  BSM1224    -0.4714
      3  C18       34.4740    6.6820   23.5620 C.ar  1224  BSM1224     0.1387
      4  C19       33.1400    6.8550   23.1240 C.ar  1224  BSM1224     0.0366
      5  C20       32.1930    7.4710   23.9890 C.ar  1224  BSM1224    -0.0004
      6  C17       34.8200    7.1250   24.8320 C.ar  1224  BSM1224     0.0366
      7  C16       33.8950    7.7530   25.6730 C.ar  1224  BSM1224    -0.0004
      8  C7        32.5790    7.9360   25.2640 C.ar  1224  BSM1224    -0.0108
      9  C3        31.6570    8.5710   26.1310 C.3   1224  BSM1224     0.1108
     10  C2        31.3230    8.1960   27.4090 C.2   1224  BSM1224     0.1445
     11  C8        31.8440    7.0080   28.2280 C.2   1224  BSM1224     0.2808
     12  O9        32.3840    6.0480   27.7010 O.2   1224  BSM1224    -0.2670
     13  N10       31.6730    7.1410   29.5480 N.am  1224  BSM1224    -0.2006
     14  C26       32.0460    6.1200   30.5660 C.3   1224  BSM1224     0.1156
     15  C27       33.4590    5.5720   30.3570 C.3   1224  BSM1224     0.0253
     16  N1        30.4190    9.0730   27.8520 N.2   1224  BSM1224    -0.1473
     17  N5        30.1470    9.9480   26.9810 N.2   1224  BSM1224    -0.1517
     18  C4        30.8870    9.7460   25.8920 C.2   1224  BSM1224     0.0931
     19  C6        30.8960   10.5090   24.7240 C.ar  1224  BSM1224     0.0559
     20  C11       32.0850   11.0070   24.2240 C.ar  1224  BSM1224     0.0191
     21  C12       32.0980   11.7910   23.0590 C.ar  1224  BSM1224     0.0967
     22 CL25       33.5840   12.4180   22.4400 Cl    1224  BSM1224    -0.0789
     23  C13       30.9090   12.0920   22.4120 C.ar  1224  BSM1224     0.2093
     24  O24       30.9180   12.8280   21.2740 O.3   1224  BSM1224    -0.2856
     25  C14       29.7020   11.5950   22.9230 C.ar  1224  BSM1224     0.0849
     26  C15       29.7050   10.8360   24.0920 C.ar  1224  BSM1224     0.2001
     27  O23       28.5470   10.3880   24.5870 O.3   1224  BSM1224    -0.2864
@<TRIPOS>BOND
     1    24    23    1
     2     1     2    1
     3    23    25   ar
     4    23    21   ar
     5    22    21    1
     6     2     3    1
     7    25    26   ar
     8    21    20   ar
     9     4     3   ar
    10     4     5   ar
    11     3     6   ar
    12     5     8   ar
    13    26    27    1
    14    26    19   ar
    15    20    19   ar
    16    19    18    1
    17     6     7   ar
    18     8     7   ar
    19     8     9    1
    20    18     9    1
    21    18    17    2
    22     9    10    1
    23    17    16    1
    24    10    16    2
    25    10    11    1
    26    12    11    2
    27    11    13   am
    28    13    14    1
    29    15    14    1
