@<TRIPOS>MOLECULE
2bsx_NOS_A_1.pdb
 19 21 0 0 0
SMALL
GASTEIGER

@<TRIPOS>ATOM
      1  N9        24.7310    7.5340  -10.2100 N.pl3 1248  NOS1248    -0.1435
      2  C4        23.5730    6.9500  -10.5300 C.2   1248  NOS1248     0.3528
      3  N3        22.5930    6.2750   -9.8910 N.2   1248  NOS1248    -0.0334
      4  C2        21.5140    5.7900  -10.5440 C.3   1248  NOS1248     0.4017
      5  N1        21.3250    5.9400  -11.8680 N.2   1248  NOS1248    -0.1458
      6  C6        22.2260    6.6010  -12.6350 C.1   1248  NOS1248     0.1792
      7  O6        22.0820    6.7830  -13.9730 O.2   1248  NOS1248    -0.2203
      8  C5        23.4240    7.1430  -11.9900 C.2   1248  NOS1248     0.2446
      9  N7        24.4910    7.8050  -12.4200 N.2   1248  NOS1248    -0.2054
     10  C8        25.2710    8.0410  -11.3350 C.3   1248  NOS1248     0.3382
     11  C5'       26.5600    4.5570   -9.4130 C.3   1248  NOS1248     0.2143
     12  O5'       27.8590    4.0320   -9.6990 O.3   1248  NOS1248    -0.2176
     13  C4'       26.6900    5.7090   -8.4350 C.3   1248  NOS1248     0.1851
     14  O4'       26.6570    6.9760   -9.0710 O.3   1248  NOS1248    -0.3134
     15  C1'       25.4100    7.6500   -8.9000 C.3   1248  NOS1248     0.3186
     16  C2'       24.6870    6.9250   -7.7900 C.3   1248  NOS1248     0.2570
     17  O2'       24.6600    7.7500   -6.6310 O.3   1248  NOS1248    -0.2130
     18  C3'       25.5290    5.7090   -7.4750 C.3   1248  NOS1248     0.2186
     19  O3'       26.0490    5.7940   -6.1360 O.3   1248  NOS1248    -0.2174
@<TRIPOS>BOND
     1     7     6    2
     2     6     8    1
     3     6     5    2
     4     9     8    2
     5     9    10    1
     6     8     2    1
     7     5     4    1
     8    10     1    1
     9     4     3    1
    10     2     1    1
    11     2     3    2
    12     1    15    1
    13    12    11    1
    14    11    13    1
    15    14    15    1
    16    14    13    1
    17    15    16    1
    18    13    18    1
    19    16    18    1
    20    16    17    1
    21    18    19    1
