@<TRIPOS>MOLECULE
2bsy_UMP_A_1.pdb
 20 21 0 0 0
SMALL
GASTEIGER

@<TRIPOS>ATOM
      1  N1        20.4470   12.6890   18.0710 N.am  1257  UMP1257    -0.1790
      2  C2        20.9260   11.7040   17.2410 C.1   1257  UMP1257     0.2844
      3  N3        20.5890   10.3980   17.5250 N.2   1257  UMP1257    -0.2452
      4  C4        19.8240   10.0260   18.5950 C.1   1257  UMP1257     0.2182
      5  C5        19.3500   11.0640   19.4180 C.2   1257  UMP1257     0.1242
      6  C6        19.7070   12.3670   19.1480 C.2   1257  UMP1257     0.0928
      7  O2        21.6320   11.9400   16.2430 O.2   1257  UMP1257    -0.1918
      8  O4        19.5620    8.8080   18.7460 O.2   1257  UMP1257    -0.2085
      9  C1'       20.7900   14.1060   17.8130 C.3   1257  UMP1257     0.2090
     10  C2'       19.5760   14.9570   17.5300 C.3   1257  UMP1257     0.0874
     11  C3'       19.2690   15.6680   18.8180 C.3   1257  UMP1257     0.1857
     12  C4'       20.6440   15.7470   19.4760 C.3   1257  UMP1257     0.1774
     13  O3'       18.6400   16.9440   18.6410 O.3   1257  UMP1257    -0.2203
     14  O4'       21.3950   14.6110   19.0000 O.3   1257  UMP1257    -0.3339
     15  C5'       20.6800   15.7460   20.9690 C.3   1257  UMP1257     0.1858
     16  O5'       20.0800   14.5780   21.4610 O.3   1257  UMP1257    -0.2675
     17  P         19.8590   14.3700   23.0160 P.3   1257  UMP1257     0.5327
     18  OP1       19.3040   12.9810   23.1680 O.2   1257  UMP1257    -0.2224
     19  OP2       21.1830   14.5260   23.7100 O.3   1257  UMP1257    -0.1145
     20  OP3       18.8410   15.3730   23.4490 O.3   1257  UMP1257    -0.1145
@<TRIPOS>BOND
     1     7     2    2
     2     2     3    2
     3     2     1   am
     4     3     4    2
     5    10     9    1
     6    10    11    1
     7     9     1    1
     8     9    14    1
     9     1     6    1
    10     4     8    2
    11     4     5    1
    12    13    11    1
    13    11    12    1
    14    14    12    1
    15     6     5    2
    16    12    15    1
    17    15    16    1
    18    16    17    1
    19    17    18    2
    20    17    20    1
    21    17    19    1
