@<TRIPOS>MOLECULE
2bt0_CT5_A_1.pdb
 26 29 0 0 0
SMALL
GASTEIGER

@<TRIPOS>ATOM
      1  C15       -0.0120  -37.0660   -0.0760 C.ar  1224  CT51224     0.0365
      2  C12        1.0360  -37.6430   -0.8100 C.ar  1224  CT51224     0.1721
      3  O17        0.7950  -38.2720   -1.9670 O.3   1224  CT51224    -0.4684
      4  O18        3.3260  -38.1800   -1.0700 O.3   1224  CT51224    -0.4684
      5  C16        2.3210  -37.6130   -0.3290 C.ar  1224  CT51224     0.1724
      6  C22        2.6040  -36.9800    0.8920 C.ar  1224  CT51224     0.0397
      7  C20        1.5750  -36.3930    1.6310 C.ar  1224  CT51224    -0.0002
      8  C8         0.2590  -36.4450    1.1520 C.ar  1224  CT51224    -0.0083
      9  C4        -0.7710  -35.8460    1.8800 C.3   1224  CT51224     0.1021
     10  C1        -1.2600  -36.2460    3.0740 C.2   1224  CT51224     0.0680
     11  C7        -0.8050  -37.4650    3.8720 C.3   1224  CT51224     0.0499
     12  N5        -2.2330  -35.3760    3.4230 N.2   1224  CT51224    -0.1563
     13  C2        -1.4740  -34.7300    1.5340 C.2   1224  CT51224     0.0926
     14  N3        -2.3500  -34.4850    2.5270 N.2   1224  CT51224    -0.1522
     15  C6        -1.2660  -33.9510    0.3890 C.ar  1224  CT51224     0.0548
     16  C10        0.0190  -33.5690    0.0600 C.ar  1224  CT51224     0.0033
     17  C14        0.2580  -32.8240   -1.0790 C.ar  1224  CT51224     0.0170
     18  C26        1.6510  -32.3800   -1.3940 C.3   1224  CT51224     0.0296
     19  C27        1.9470  -31.1200   -0.5900 C.3   1224  CT51224     0.0051
     20  C13       -0.7970  -32.4300   -1.8930 C.ar  1224  CT51224     0.1949
     21  C17        1.3700  -39.6110   -1.9070 C.3   1224  CT51224     0.2526
     22  O25       -0.5500  -31.6920   -3.0130 O.3   1224  CT51224    -0.2868
     23  C11       -2.1040  -32.8170   -1.5760 C.ar  1224  CT51224     0.0837
     24  C18        2.9300  -39.5500   -1.5190 C.3   1224  CT51224     0.2526
     25  C9        -2.3400  -33.5770   -0.4400 C.ar  1224  CT51224     0.2000
     26  O24       -3.6180  -33.9370   -0.1190 O.3   1224  CT51224    -0.2864
@<TRIPOS>BOND
     1    22    20    1
     2     3    21    1
     3     3     2    1
     4    21    24    1
     5    20    23   ar
     6    20    17   ar
     7    23    25   ar
     8    24     4    1
     9    18    17    1
    10    18    19    1
    11    17    16   ar
    12     4     5    1
    13     2     5   ar
    14     2     1   ar
    15    25    26    1
    16    25    15   ar
    17     5     6   ar
    18     1     8   ar
    19    16    15   ar
    20    15    13    1
    21     6     7   ar
    22     8     7   ar
    23     8     9    1
    24    13     9    1
    25    13    14    2
    26     9    10    1
    27    14    12    1
    28    10    12    2
    29    10    11    1
