@<TRIPOS>MOLECULE
2bt1_DUP_A_1.pdb
 28 29 0 0 0
SMALL
GASTEIGER

@<TRIPOS>ATOM
      1  O4        58.3340   18.0590   27.0650 O.2   1257  DUP1257    -0.2085
      2  C4        57.3050   18.3910   26.4080 C.1   1257  DUP1257     0.2182
      3  C5        56.9970   19.7110   26.0900 C.2   1257  DUP1257     0.1242
      4  C6        55.8430   20.0380   25.3460 C.2   1257  DUP1257     0.0928
      5  N3        56.4290   17.4490   25.9490 N.2   1257  DUP1257    -0.2452
      6  C2        55.2880   17.7340   25.2230 C.1   1257  DUP1257     0.2844
      7  O2        54.5440   16.7740   24.8900 O.2   1257  DUP1257    -0.1918
      8  N1        54.9630   19.0940   24.8840 N.am  1257  DUP1257    -0.1790
      9  C1'       53.7150   19.4550   24.1090 C.3   1257  DUP1257     0.2090
     10  C2'       52.6520   20.1450   24.9710 C.3   1257  DUP1257     0.0874
     11  C3'       52.8340   21.6430   24.7160 C.3   1257  DUP1257     0.1857
     12  O3'       51.6340   22.4170   24.7920 O.3   1257  DUP1257    -0.2203
     13  O4'       53.9610   20.3880   23.0510 O.3   1257  DUP1257    -0.3339
     14  C4'       53.3160   21.6610   23.2940 C.3   1257  DUP1257     0.1774
     15  C5'       54.2370   22.8450   23.0830 C.3   1257  DUP1257     0.1848
     16  O5'       55.4730   22.7150   23.7950 O.3   1257  DUP1257    -0.2775
     17  PA        56.6140   23.8880   23.6840 P.3   1257  DUP1257     0.4623
     18  O1A       57.7260   23.8100   24.7340 O.3   1257  DUP1257    -0.1255
     19  O2A       55.7760   25.1320   23.5760 O.2   1257  DUP1257    -0.2354
     20  N3A       57.3840   23.6360   22.1370 N.3   1257  DUP1257    -0.0179
     21  PB        57.3820   24.9160   20.9500 P.3   1257  DUP1257     0.4700
     22  O1B       58.7190   24.8770   20.2060 O.2   1257  DUP1257    -0.2350
     23  O2B       57.0500   26.2020   21.6990 O.3   1257  DUP1257    -0.1252
     24  O3B       56.1150   24.4950   19.9860 O.3   1257  DUP1257    -0.1901
     25  PG        54.5130   24.9550   19.9350 P.3   1257  DUP1257     0.5397
     26  O2G       53.6720   23.6560   20.0210 O.3   1257  DUP1257    -0.1143
     27  O1G       54.4370   25.6120   18.5630 O.2   1257  DUP1257    -0.2220
     28  O3G       54.3070   25.9380   21.0780 O.3   1257  DUP1257    -0.1143
@<TRIPOS>BOND
     1    27    25    2
     2    25    24    1
     3    25    26    1
     4    25    28    1
     5    24    21    1
     6    22    21    2
     7    21    23    1
     8    21    20    1
     9    20    17    1
    10    13    14    1
    11    13     9    1
    12    15    14    1
    13    15    16    1
    14    14    11    1
    15    19    17    2
    16    17    16    1
    17    17    18    1
    18     9     8    1
    19     9    10    1
    20    11    12    1
    21    11    10    1
    22     8     6   am
    23     8     4    1
    24     7     6    2
    25     6     5    2
    26     4     3    2
    27     5     2    2
    28     3     2    1
    29     2     1    2
