@<TRIPOS>MOLECULE
2bt4_CA2_A_1.pdb
 22 23 0 0 0
SMALL
GASTEIGER

@<TRIPOS>ATOM
      1  O2        27.3380   -1.9720  -10.9690 O.co2 160  CA2160     -0.2429
      2  C7        26.2160   -1.3980  -11.1320 C.2   160  CA2160      0.3917
      3  O1        26.0490   -0.1460  -10.9700 O.co2 160  CA2160     -0.2429
      4  C1        25.0490   -2.2450  -11.4650 C.3   160  CA2160      0.2215
      5  O3        25.2250   -3.4790  -10.6390 O.3   160  CA2160     -0.2140
      6  C2        25.1150   -2.4210  -12.9980 C.3   160  CA2160      0.0443
      7  C3        23.8210   -2.9470  -13.6510 C.3   160  CA2160      0.0362
      8  C4        22.4700   -2.5180  -13.0100 C.3   160  CA2160      0.1822
      9  O4        21.3720   -3.4320  -13.3790 O.3   160  CA2160     -0.2204
     10  C5        22.4570   -2.4600  -11.5140 C.3   160  CA2160      0.1851
     11  O5        21.1860   -1.8020  -11.1970 O.3   160  CA2160     -0.2203
     12  C6        23.6970   -1.6300  -11.0700 C.3   160  CA2160      0.0771
     13  C8        23.8030   -2.6310  -15.1660 C.3   160  CA2160      0.0065
     14  C9        24.7910   -3.4860  -15.9440 C.3   160  CA2160      0.0474
     15  C10       25.3140   -2.8800  -17.2360 C.3   160  CA2160      0.2054
     16  O11       26.3090   -1.9030  -16.9100 O.3   160  CA2160     -0.4755
     17  C12       26.8090   -1.2160  -17.9780 C.ar  160  CA2160      0.1386
     18  C17       26.6560   -1.7980  -19.2080 C.ar  160  CA2160      0.0369
     19  C16       27.1720   -1.1630  -20.3180 C.ar  160  CA2160      0.0031
     20  C15       27.8160    0.0570  -20.1510 C.ar  160  CA2160      0.0002
     21  C14       27.9680    0.6600  -18.9090 C.ar  160  CA2160      0.0031
     22  C13       27.4700   -0.0020  -17.8020 C.ar  160  CA2160      0.0369
@<TRIPOS>BOND
     1    19    20   ar
     2    19    18   ar
     3    20    21   ar
     4    18    17   ar
     5    21    22   ar
     6    17    22   ar
     7    17    16    1
     8    15    16    1
     9    15    14    1
    10    14    13    1
    11    13     7    1
    12     7     8    1
    13     7     6    1
    14     9     8    1
    15     8    10    1
    16     6     4    1
    17    10    11    1
    18    10    12    1
    19     4     2    1
    20     4    12    1
    21     4     5    1
    22     2     3   ar
    23     2     1   ar
