@<TRIPOS>MOLECULE
2bt6_RUA_A_1.pdb
 39 47 0 0 0
SMALL
GASTEIGER

@<TRIPOS>ATOM
      1  C38       14.4960    1.2080   10.2920 C.3   1110  RUA1110     0.0000
      2  C17       15.7520    2.0420   10.3190 C.2   1110  RUA1110     0.0000
      3  C18       15.7260    3.3630    9.8930 C.2   1110  RUA1110     0.0000
      4  C19       16.9070    4.0920    9.9340 C.3   1110  RUA1110     0.0000
      5  C16       16.9500    1.4920   10.7670 C.2   1110  RUA1110     0.0000
      6  C15       18.1350    2.2410   10.8050 C.2   1110  RUA1110     0.0000
      7  N14       18.1180    3.5310   10.3960 N.pl3 1110  RUA1110     0.0000
      8 RU         19.6360    4.6190   10.3900 Ru    1110  RUA1110     0.0000
      9  N25       18.4190    5.9010    9.7040 N.pl3 1110  RUA1110     0.0000
     10  C24       18.7320    7.1740    9.3830 C.3   1110  RUA1110     0.0000
     11  C23       17.7430    8.0570    8.8930 C.2   1110  RUA1110     0.0000
     12  C20       17.0700    5.5030    9.5260 C.2   1110  RUA1110     0.0000
     13  C21       16.1110    6.3200    9.0450 C.2   1110  RUA1110     0.0000
     14  C22       16.4260    7.6350    8.7060 C.2   1110  RUA1110     0.0000
     15  C39       15.3650    8.5700    8.1620 C.3   1110  RUA1110     0.0000
     16  N2        20.0830    4.4120    8.5870 N.pl3 1110  RUA1110     0.0000
     17  C3        19.3790    3.6590    7.7110 C.3   1110  RUA1110     0.0000
     18  C4        19.8130    3.5860    6.3840 C.2   1110  RUA1110     0.0000
     19  C5        20.9530    4.2520    5.9390 C.2   1110  RUA1110     0.0000
     20  C7        21.2310    5.0980    8.1470 C.2   1110  RUA1110     0.0000
     21  C6        21.6810    5.0240    6.8330 C.2   1110  RUA1110     0.0000
     22  C8        21.8780    5.8540    9.2350 C.3   1110  RUA1110     0.0000
     23  C9        23.0370    6.6230    9.1150 C.2   1110  RUA1110     0.0000
     24  C10       23.5090    7.2790   10.2350 C.2   1110  RUA1110     0.0000
     25  C11       22.8300    7.1340   11.4380 C.2   1110  RUA1110     0.0000
     26  C12       21.6720    6.3570   11.5340 C.2   1110  RUA1110     0.0000
     27  N13       21.1800    5.7100   10.4540 N.pl3 1110  RUA1110     0.0000
     28  N26       20.8630    3.3460   11.0410 N.pl3 1110  RUA1110     0.0000
     29  C27       21.5820    2.5470   10.2280 C.3   1110  RUA1110     0.0000
     30  C28       22.4730    1.6210   10.7910 C.2   1110  RUA1110     0.0000
     31  C29       22.6300    1.5140   12.1770 C.2   1110  RUA1110     0.0000
     32  C31       21.0140    3.2410   12.4440 C.2   1110  RUA1110     0.0000
     33  C30       21.8940    2.3330   13.0290 C.2   1110  RUA1110     0.0000
     34  C32       20.1250    4.1940   13.1390 C.3   1110  RUA1110     0.0000
     35  C33       20.0180    4.3800   14.5170 C.2   1110  RUA1110     0.0000
     36  C34       19.1370    5.3370   14.9970 C.2   1110  RUA1110     0.0000
     37  C35       18.4000    6.0860   14.0830 C.2   1110  RUA1110     0.0000
     38  C36       18.5240    5.8820   12.7060 C.2   1110  RUA1110     0.0000
     39  N37       19.3790    4.9580   12.2130 N.pl3 1110  RUA1110     0.0000
@<TRIPOS>BOND
     1    19    18    2
     2    19    21    1
     3    18    17    1
     4    21    20    2
     5    17    16    1
     6    20    16    1
     7    20    22    1
     8    15    14    1
     9    16     8    1
    10    14    11    2
    11    14    13    1
    12    11    10    1
    13    13    12    2
    14    23    22    1
    15    23    24    2
    16    22    27    1
    17    10     9    1
    18    12     9    1
    19    12     4    1
    20     9     8    1
    21     3     4    1
    22     3     2    2
    23     4     7    1
    24    29    30    1
    25    29    28    1
    26    24    25    1
    27     1     2    1
    28     2     5    1
    29     8     7    1
    30     8    27    1
    31     8    28    1
    32     8    39    1
    33     7     6    1
    34    27    26    1
    35     5     6    2
    36    30    31    2
    37    28    32    1
    38    25    26    2
    39    31    33    1
    40    39    38    1
    41    39    34    1
    42    32    33    2
    43    32    34    1
    44    38    37    2
    45    34    35    1
    46    37    36    1
    47    35    36    2
