@<TRIPOS>MOLECULE
2bt9_MFU_A_1.pdb
 12 12 0 0 0
SMALL
GASTEIGER

@<TRIPOS>ATOM
      1  C1        -2.4350   36.7850   -2.3510 C.3   1091  MFU1091     0.2695
      2  C2        -2.9190   36.6330   -0.9040 C.3   1091  MFU1091     0.2406
      3  C3        -4.3520   37.0810   -0.7790 C.3   1091  MFU1091     0.2197
      4  C4        -5.2100   36.3010   -1.7940 C.3   1091  MFU1091     0.2118
      5  C5        -4.6550   36.5190   -3.1780 C.3   1091  MFU1091     0.1508
      6  C6        -5.3950   35.7690   -4.2550 C.3   1091  MFU1091     0.0350
      7  O1        -2.4050   38.1720   -2.6310 O.3   1091  MFU1091    -0.3259
      8  O2        -2.0960   37.4080    0.0330 O.3   1091  MFU1091    -0.2149
      9  O3        -4.8330   36.9990    0.5560 O.3   1091  MFU1091    -0.2174
     10  O4        -5.1700   34.9080   -1.5320 O.3   1091  MFU1091    -0.2177
     11  O5        -3.2760   36.0670   -3.2040 O.3   1091  MFU1091    -0.3284
     12  CM        -1.8430   38.4460   -3.8450 C.3   1091  MFU1091     0.1769
@<TRIPOS>BOND
     1     6     5    1
     2    12     7    1
     3    11     5    1
     4    11     1    1
     5     5     4    1
     6     7     1    1
     7     1     2    1
     8     4    10    1
     9     4     3    1
    10     2     3    1
    11     2     8    1
    12     3     9    1
