@<TRIPOS>MOLECULE
2btd_ADP_A_1.pdb
 27 29 0 0 0
SMALL
GASTEIGER

@<TRIPOS>ATOM
      1  PB        -9.1670   10.3800   36.4360 P.3   1211  ADP1211     0.5373
      2  O1B       -7.7010   10.4310   36.8940 O.3   1211  ADP1211    -0.1143
      3  O2B      -10.1460   10.0880   37.5890 O.3   1211  ADP1211    -0.1143
      4  O3B       -9.5130   11.6440   35.7550 O.2   1211  ADP1211    -0.2221
      5  PA        -8.6140    9.0610   34.0890 P.3   1211  ADP1211     0.2231
      6  O1A       -7.5700   10.0730   33.9290 O.2   1211  ADP1211    -0.5169
      7  O2A       -8.0320    7.6440   33.9510 O.3   1211  ADP1211    -0.4370
      8  O3A       -9.3940    9.1360   35.4670 O.3   1211  ADP1211    -0.2261
      9  O5'       -9.8030    9.3260   33.0420 O.3   1211  ADP1211    -0.3111
     10  C5'      -10.0980   10.6250   32.5910 C.3   1211  ADP1211     0.1813
     11  C4'      -11.0730   10.5280   31.4300 C.3   1211  ADP1211     0.1821
     12  O4'      -12.3680   10.1180   31.8060 O.3   1211  ADP1211    -0.3135
     13  C3'      -11.3200   11.8630   30.7620 C.3   1211  ADP1211     0.2184
     14  O3'      -10.3290   12.1450   29.8240 O.3   1211  ADP1211    -0.2174
     15  C2'      -12.6200   11.6350   30.0170 C.3   1211  ADP1211     0.2570
     16  O2'      -12.3990   11.2320   28.6880 O.3   1211  ADP1211    -0.2130
     17  C1'      -13.1630   10.3840   30.6650 C.3   1211  ADP1211     0.3186
     18  N9       -14.6180   10.4810   30.8900 N.pl3 1211  ADP1211    -0.1439
     19  C8       -15.6660   10.1140   30.0490 C.3   1211  ADP1211     0.3377
     20  N7       -16.8420   10.3740   30.6710 N.2   1211  ADP1211    -0.2095
     21  C5       -16.5300   10.8960   31.8950 C.2   1211  ADP1211     0.2526
     22  C6       -17.2940   11.3450   32.9540 C.2   1211  ADP1211     0.4393
     23  N6       -18.6120   11.4050   32.8700 N.pl3 1211  ADP1211     0.2180
     24  N1       -16.6540   11.8320   34.0860 N.2   1211  ADP1211     0.0021
     25  C2       -15.2670   11.8780   34.1670 C.3   1211  ADP1211     0.5254
     26  N3       -14.5130   11.4310   33.1030 N.2   1211  ADP1211    -0.0055
     27  C4       -15.1510   10.9650   32.0310 C.2   1211  ADP1211     0.3518
@<TRIPOS>BOND
     1    16    15    1
     2    14    13    1
     3    15    17    1
     4    15    13    1
     5    19    20    1
     6    19    18    1
     7    17    18    1
     8    17    12    1
     9    20    21    2
    10    13    11    1
    11    18    27    1
    12    11    12    1
    13    11    10    1
    14    21    27    1
    15    21    22    1
    16    27    26    2
    17    10     9    1
    18    23    22    1
    19    22    24    2
    20     9     5    1
    21    26    25    1
    22     6     5    2
    23     7     5    1
    24    24    25    1
    25     5     8    1
    26     8     1    1
    27     4     1    2
    28     1     2    1
    29     1     3    1
