@<TRIPOS>MOLECULE
2bte_2AD_A_1.pdb
 19 21 0 0 0
SMALL
GASTEIGER

@<TRIPOS>ATOM
      1  O5'       35.2650  -23.9420   19.6260 O.3   1893  2AD1893    -0.2176
      2  C5'       35.7770  -25.0930   20.3010 C.3   1893  2AD1893     0.2142
      3  C4'       34.7880  -25.5820   21.3310 C.3   1893  2AD1893     0.1839
      4  O4'       33.4760  -25.7160   20.7290 O.3   1893  2AD1893    -0.3143
      5  C3'       35.1240  -26.9590   21.8620 C.3   1893  2AD1893     0.2057
      6  O3'       36.0150  -26.8650   22.9610 O.3   1893  2AD1893    -0.2186
      7  C2'       33.7620  -27.5330   22.2400 C.3   1893  2AD1893     0.1972
      8  C1'       32.8160  -26.8560   21.2530 C.3   1893  2AD1893     0.3053
      9  N9        32.4300  -27.7320   20.1440 N.pl3 1893  2AD1893    -0.1448
     10  C8        33.2520  -28.4630   19.3130 C.3   1893  2AD1893     0.3377
     11  N7        32.6050  -29.1570   18.4100 N.2   1893  2AD1893    -0.2095
     12  C5        31.2710  -28.8620   18.6580 C.2   1893  2AD1893     0.2526
     13  C6        30.0890  -29.2830   18.0400 C.2   1893  2AD1893     0.4393
     14  N6        30.0650  -30.1300   17.0090 N.pl3 1893  2AD1893     0.2180
     15  N1        28.9230  -28.8090   18.5210 N.2   1893  2AD1893     0.0021
     16  C2        28.9580  -27.9700   19.5600 C.3   1893  2AD1893     0.5254
     17  N3        30.0100  -27.5000   20.2320 N.2   1893  2AD1893    -0.0055
     18  C4        31.1490  -27.9910   19.7240 C.2   1893  2AD1893     0.3518
     19  N         33.3000  -27.4620   23.6380 N.3   1893  2AD1893    -0.1230
@<TRIPOS>BOND
     1    14    13    1
     2    13    15    2
     3    13    12    1
     4    11    12    2
     5    11    10    1
     6    15    16    1
     7    12    18    1
     8    10     9    1
     9    16    17    1
    10     1     2    1
    11    18     9    1
    12    18    17    2
    13     9     8    1
    14     2     3    1
    15     4     8    1
    16     4     3    1
    17     8     7    1
    18     3     5    1
    19     5     7    1
    20     5     6    1
    21     7    19    1
