@<TRIPOS>MOLECULE
2btf_ATP_A_1.pdb
 31 33 0 0 0
SMALL
GASTEIGER

@<TRIPOS>ATOM
      1  PG        30.6050   55.6200   60.3650 P.3   377  ATP377      0.5373
      2  O1G       31.8110   54.8770   60.4170 O.3   377  ATP377     -0.1143
      3  O2G       30.3400   56.2050   61.6890 O.3   377  ATP377     -0.1143
      4  O3G       30.7010   56.8060   59.5020 O.2   377  ATP377     -0.2221
      5  PB        27.8410   54.7460   59.3870 P.3   377  ATP377      0.2277
      6  O1B       27.5660   54.4460   57.9890 O.2   377  ATP377     -0.5168
      7  O2B       27.2910   56.0860   59.6210 O.3   377  ATP377     -0.4368
      8  O3B       29.4180   54.7850   59.7180 O.3   377  ATP377     -0.2258
      9  PA        25.7710   53.6850   61.0720 P.3   377  ATP377      0.2189
     10  O1A       24.6620   54.2300   60.3030 O.2   377  ATP377     -0.5170
     11  O2A       25.8420   54.2770   62.4430 O.3   377  ATP377     -0.4371
     12  O3A       27.1590   53.8170   60.4150 O.3   377  ATP377     -0.2700
     13  O5'       25.5210   52.2060   61.4650 O.3   377  ATP377     -0.3112
     14  C5'       25.5680   51.2140   60.3970 C.3   377  ATP377      0.1813
     15  C4'       26.2140   49.9480   60.9580 C.3   377  ATP377      0.1821
     16  O4'       25.4240   49.4990   62.0700 O.3   377  ATP377     -0.3135
     17  C3'       26.2440   48.8160   59.9470 C.3   377  ATP377      0.2184
     18  O3'       27.4910   48.1550   60.0670 O.3   377  ATP377     -0.2174
     19  C2'       25.1030   47.9030   60.4500 C.3   377  ATP377      0.2570
     20  O2'       25.4320   46.5250   60.2360 O.3   377  ATP377     -0.2130
     21  C1'       25.0890   48.1470   61.9310 C.3   377  ATP377      0.3186
     22  N9        23.7640   47.9150   62.4960 N.pl3 377  ATP377     -0.1439
     23  C8        22.5510   48.4620   62.1680 C.3   377  ATP377      0.3377
     24  N7        21.5670   47.9100   62.9380 N.2   377  ATP377     -0.2095
     25  C5        22.2020   47.0080   63.7490 C.2   377  ATP377      0.2526
     26  C6        21.8730   46.1130   64.7340 C.2   377  ATP377      0.4393
     27  N6        20.5950   45.9160   65.1420 N.pl3 377  ATP377      0.2180
     28  N1        22.8680   45.3870   65.2840 N.2   377  ATP377      0.0021
     29  C2        24.1080   45.5190   64.9130 C.3   377  ATP377      0.5254
     30  N3        24.5450   46.3300   64.0000 N.2   377  ATP377     -0.0055
     31  C4        23.5540   47.0340   63.4540 C.2   377  ATP377      0.3518
@<TRIPOS>BOND
     1     6     5    2
     2     5     7    1
     3     5     8    1
     4     5    12    1
     5     4     1    2
     6     8     1    1
     7    17    18    1
     8    17    19    1
     9    17    15    1
    10    20    19    1
    11    10     9    2
    12     1     2    1
    13     1     3    1
    14    14    15    1
    15    14    13    1
    16    12     9    1
    17    19    21    1
    18    15    16    1
    19     9    13    1
    20     9    11    1
    21    21    16    1
    22    21    22    1
    23    23    22    1
    24    23    24    1
    25    22    31    1
    26    24    25    2
    27    31    25    1
    28    31    30    2
    29    25    26    1
    30    30    29    1
    31    26    27    1
    32    26    28    2
    33    29    28    1
