@<TRIPOS>MOLECULE
2btj_IEY_A_1.pdb
 24 26 0 0 0
SMALL
GASTEIGER

@<TRIPOS>ATOM
      1  CA1      -21.4200    0.3620   -6.9230 C.2   1223  IEY1223     0.0493
      2  CB1      -20.7880   -0.5270   -7.7330 C.2   1223  IEY1223     0.0208
      3  CG1      -20.1890   -1.7290   -7.1470 C.2   1223  IEY1223     0.0855
      4  C1       -21.9890    1.6230   -7.4360 C.2   1223  IEY1223     0.1895
      5  N2       -21.9430    2.0150   -8.6890 N.2   1223  IEY1223    -0.3860
      6  N3       -22.6260    2.5720   -6.6460 N.am  1223  IEY1223    -0.2208
      7  C2       -22.9630    3.6210   -7.4440 C.2   1223  IEY1223     0.2808
      8  O2       -23.5300    4.6510   -7.1240 O.2   1223  IEY1223    -0.2670
      9  CA2      -22.5440    3.2320   -8.8000 C.2   1223  IEY1223     0.1685
     10  CA3      -22.8780    2.4300   -5.1860 C.3   1223  IEY1223     0.1730
     11  CB2      -22.8080    3.9490   -9.9570 C.3   1223  IEY1223     0.0901
     12  CG2      -22.5570    3.6880  -11.3820 C.ar  1223  IEY1223    -0.0148
     13  CD1      -23.0570    4.6230  -12.3410 C.ar  1223  IEY1223    -0.0006
     14  CD2      -21.8590    2.5090  -11.8310 C.ar  1223  IEY1223    -0.0006
     15  CE1      -22.8710    4.3960  -13.6990 C.ar  1223  IEY1223     0.0417
     16  CE2      -21.6800    2.2940  -13.2090 C.ar  1223  IEY1223     0.0417
     17  CZ       -22.1910    3.2380  -14.1440 C.ar  1223  IEY1223     0.1957
     18  OH       -22.0260    3.0390  -15.4780 O.3   1223  IEY1223    -0.2866
     19  C        -22.2420    3.4050   -4.2600 C.2   1223  IEY1223     0.2295
     20  O        -22.8410    3.7970   -3.2530 O.2   1223  IEY1223    -0.2864
     21  CD3      -19.3470   -2.5940   -7.7890 C.3   1223  IEY1223     0.1726
     22  NE1      -19.0130   -3.5680   -6.8900 N.2   1223  IEY1223    -0.2436
     23  N21      -20.3560   -2.1620   -5.9060 N.2   1223  IEY1223    -0.2267
     24  C22      -19.6490   -3.2800   -5.7310 C.2   1223  IEY1223     0.1943
@<TRIPOS>BOND
     1    18    17    1
     2    17    15   ar
     3    17    16   ar
     4    15    13   ar
     5    16    14   ar
     6    13    12   ar
     7    14    12   ar
     8    12    11    1
     9    11     9    1
    10     9     5    2
    11     9     7    1
    12     5     4    2
    13    21     3    1
    14    21    22    1
    15     2     3    1
    16     2     1    2
    17     7     8    2
    18     7     6   am
    19     4     1    1
    20     4     6    1
    21     3    23    2
    22    22    24    2
    23     6    10    1
    24    23    24    1
    25    10    19    1
    26    19    20    2
