@<TRIPOS>MOLECULE
2bto_GTP_A_1.pdb
 32 34 0 0 0
SMALL
GASTEIGER

@<TRIPOS>ATOM
      1  PG        84.2840  -13.9430   -3.3320 P.3   1433  GTP1433     0.5373
      2  O1G       84.2320  -12.7840   -2.3630 O.3   1433  GTP1433    -0.1143
      3  O2G       83.6650  -15.1050   -2.5940 O.3   1433  GTP1433    -0.1143
      4  O3G       83.4330  -13.7270   -4.5300 O.2   1433  GTP1433    -0.2221
      5  O3B       85.8400  -14.2450   -3.7080 O.3   1433  GTP1433    -0.2258
      6  PB        86.3370  -15.3930   -4.7100 P.3   1433  GTP1433     0.2277
      7  O1B       87.6880  -15.2160   -5.3040 O.3   1433  GTP1433    -0.4368
      8  O2B       85.4500  -15.3180   -5.8950 O.2   1433  GTP1433    -0.5168
      9  O3A       86.1230  -16.8010   -4.0030 O.3   1433  GTP1433    -0.2700
     10  PA        87.0330  -18.0970   -4.3580 P.3   1433  GTP1433     0.2189
     11  O1A       87.1900  -18.9000   -3.0850 O.3   1433  GTP1433    -0.4371
     12  O2A       88.3990  -17.7110   -4.9120 O.2   1433  GTP1433    -0.5170
     13  O5'       86.1270  -18.9530   -5.3980 O.3   1433  GTP1433    -0.3112
     14  C5'       85.2650  -20.0110   -4.9950 C.3   1433  GTP1433     0.1813
     15  C4'       85.5340  -21.3040   -5.7830 C.3   1433  GTP1433     0.1799
     16  O4'       86.8880  -21.7290   -5.7010 O.3   1433  GTP1433    -0.3326
     17  C3'       84.7190  -22.4640   -5.2270 C.3   1433  GTP1433     0.2158
     18  O3'       84.2980  -23.2720   -6.3020 O.3   1433  GTP1433    -0.2175
     19  C2'       85.6690  -23.2400   -4.3270 C.3   1433  GTP1433     0.2310
     20  O2'       85.4630  -24.6210   -4.4560 O.3   1433  GTP1433    -0.2158
     21  C1'       87.0280  -22.9130   -4.9090 C.3   1433  GTP1433     0.2293
     22  N9        88.1100  -22.6270   -3.9550 N.pl3 1433  GTP1433    -0.2354
     23  C8        88.1200  -21.7640   -2.8800 C.3   1433  GTP1433     0.2246
     24  N7        89.3670  -21.7760   -2.3370 N.2   1433  GTP1433    -0.2322
     25  C5        90.1420  -22.6150   -3.0710 C.2   1433  GTP1433     0.2182
     26  C6        91.4830  -22.9910   -2.9840 C.1   1433  GTP1433     0.2372
     27  O6        92.2090  -22.5320   -2.0920 O.2   1433  GTP1433    -0.2069
     28  N1        91.9880  -23.9030   -3.9010 N.2   1433  GTP1433    -0.2485
     29  C2        91.1920  -24.4210   -4.8980 C.1   1433  GTP1433     0.2531
     30  N2        91.7090  -25.2820   -5.7570 N.pl3 1433  GTP1433    -0.0226
     31  N3        89.8740  -24.0330   -4.9930 N.2   1433  GTP1433    -0.3074
     32  C4        89.3650  -23.1520   -4.0970 C.2   1433  GTP1433     0.2300
@<TRIPOS>BOND
     1    18    17    1
     2     8     6    2
     3    15    16    1
     4    15    17    1
     5    15    14    1
     6    30    29    1
     7    16    21    1
     8    13    14    1
     9    13    10    1
    10     7     6    1
    11    17    19    1
    12    31    29    2
    13    31    32    2
    14    12    10    2
    15    21    19    1
    16    21    22    1
    17    29    28    2
    18     6     9    1
    19     6     5    1
    20     4     1    2
    21    20    19    1
    22    10     9    1
    23    10    11    1
    24    32    22    1
    25    32    25    1
    26    22    23    1
    27    28    26    2
    28     5     1    1
    29     1     3    1
    30     1     2    1
    31    25    26    1
    32    25    24    2
    33    26    27    2
    34    23    24    1
