@<TRIPOS>MOLECULE
2btp_III_P_1.pdb
 48 48 0 0 0
SMALL
GASTEIGER

@<TRIPOS>ATOM
      1  N         33.8450  -25.8480   25.1490 N.3     2  ARG2       -0.1231
      2  CA        32.9070  -25.1240   26.0710 C.3     2  ARG2        0.1694
      3  C         33.1000  -25.5600   27.5650 C.2     2  ARG2        0.2592
      4  O         32.9040  -26.7560   27.9330 O.2     2  ARG2       -0.2718
      5  CB        31.4180  -25.2470   25.5940 C.3     2  ARG2        0.0304
      6  N         33.5290  -24.5860   28.3910 N.am    3  GLN3       -0.1966
      7  CA        33.1430  -24.5310   29.8300 C.3     3  GLN3        0.1733
      8  C         31.6800  -24.1380   29.8170 C.2     3  GLN3        0.2616
      9  O         31.1940  -23.5850   28.8260 O.2     3  GLN3       -0.2715
     10  CB        33.8550  -23.4210   30.6170 C.3     3  GLN3        0.0408
     11  CG        35.3580  -23.5300   30.7390 C.3     3  GLN3        0.0908
     12  CD        36.0010  -22.1630   30.9240 C.2     3  GLN3        0.2608
     13  OE1       35.3140  -21.1560   31.1950 O.2     3  GLN3       -0.2717
     14  NE2       37.3230  -22.1160   30.7840 N.am    3  GLN3       -0.0878
     15  N         30.9570  -24.3570   30.8900 N.am    4  ARG4       -0.1963
     16  CA        29.5780  -23.9610   30.8410 C.3     4  ARG4        0.1729
     17  C         29.1650  -23.4080   32.1620 C.2     4  ARG4        0.2617
     18  O         29.6980  -23.7810   33.1920 O.2     4  ARG4       -0.2715
     19  CB        28.7160  -25.1280   30.3730 C.3     4  ARG4        0.0348
     20  CG        29.0780  -25.5070   28.9370 C.3     4  ARG4        0.0492
     21  CD        28.0150  -26.2790   28.2700 C.3     4  ARG4        0.2205
     22  NE        26.7770  -25.5090   28.1960 N.pl3   4  ARG4       -0.0865
     23  CZ        25.5720  -26.0560   28.0460 C.cat   4  ARG4        0.5346
     24  NH1       25.4450  -27.3840   27.9560 N.pl3   4  ARG4        0.1354
     25  NH2       24.4890  -25.2840   27.9890 N.pl3   4  ARG4        0.1354
     26  N         28.2430  -22.4670   32.1170 N.am    5  SER5       -0.1937
     27  CA        27.8130  -21.8130   33.3170 C.3     5  SER5        0.2027
     28  CB        28.1990  -20.3390   33.2800 C.3     5  SER5        0.1847
     29  OG        28.1520  -19.8480   31.9650 O.3     5  SER5       -0.2679
     30  C         26.3300  -21.9980   33.4540 C.2     5  SER5        0.2642
     31  O         25.6690  -22.4560   32.5280 O.2     5  SER5       -0.2714
     32  P         28.1120  -18.2440   31.9590 P.3     5  SER5        0.5327
     33  O1P       29.5830  -17.7020   32.0380 O.3     5  SER5       -0.1145
     34  O2P       27.0980  -17.7110   33.0860 O.3     5  SER5       -0.1145
     35  O3P       27.6320  -17.7720   30.5460 O.2     5  SER5       -0.2224
     36  N         25.8180  -21.6490   34.6230 N.am    6  ALA6       -0.1963
     37  CA        24.4090  -21.7920   34.9010 C.3     6  ALA6        0.1713
     38  C         23.5820  -21.2770   33.7260 C.2     6  ALA6        0.2459
     39  O         23.9060  -20.2220   33.1570 O.2     6  ALA6       -0.2730
     40  CB        24.0560  -21.0350   36.1730 C.3     6  ALA6        0.0333
     41  N         22.5170  -22.0120   33.3450 N.am    7  PRO7       -0.2699
     42  CA        21.5170  -21.4170   32.4350 C.3     7  PRO7        0.1791
     43  C         20.9430  -20.1080   33.0390 C.2     7  PRO7        0.3825
     44  O         20.7210  -19.1040   32.3480 O.co2   7  PRO7       -0.2438
     45  CB        20.4230  -22.4860   32.3690 C.3     7  PRO7        0.0332
     46  CG        20.6070  -23.2900   33.6190 C.3     7  PRO7        0.0238
     47  CD        22.1090  -23.3630   33.7570 C.3     7  PRO7        0.0940
     48  OXT       20.7010  -19.9920   34.2520 O.co2   7  PRO7       -0.2438
@<TRIPOS>BOND
     1     1     2    1
     2     5     2    1
     3     2     3    1
     4     3     4    2
     5     3     6   am
     6    24    23    1
     7    25    23    1
     8    23    22    2
     9    22    21    1
    10    21    20    1
    11     6     7    1
    12     9     8    2
    13    20    19    1
    14     8     7    1
    15     8    15   am
    16     7    10    1
    17    19    16    1
    18    35    32    2
    19    10    11    1
    20    11    12    1
    21    14    12   am
    22    16    15    1
    23    16    17    1
    24    12    13    2
    25    32    29    1
    26    32    33    1
    27    32    34    1
    28    29    28    1
    29    26    17   am
    30    26    27    1
    31    17    18    2
    32    44    43   ar
    33    45    42    1
    34    45    46    1
    35    42    43    1
    36    42    41    1
    37    31    30    2
    38    43    48   ar
    39    39    38    2
    40    28    27    1
    41    27    30    1
    42    41    38   am
    43    41    47    1
    44    30    36   am
    45    46    47    1
    46    38    37    1
    47    36    37    1
    48    37    40    1
