@<TRIPOS>MOLECULE
2btq_GDP_A_1.pdb
 28 30 0 0 0
SMALL
GASTEIGER

@<TRIPOS>ATOM
      1  PB        59.8210  -14.2070  -22.4060 P.3   1443  GDP1443     0.5373
      2  O1B       59.6640  -12.7630  -22.5670 O.3   1443  GDP1443    -0.1143
      3  O2B       59.9300  -15.0410  -23.5940 O.2   1443  GDP1443    -0.2221
      4  O3B       58.7090  -14.7460  -21.4840 O.3   1443  GDP1443    -0.1143
      5  O3A       61.1010  -14.4510  -21.5020 O.3   1443  GDP1443    -0.2261
      6  PA        62.3240  -15.4270  -21.7960 P.3   1443  GDP1443     0.2231
      7  O1A       62.9270  -15.0410  -23.0910 O.2   1443  GDP1443    -0.5169
      8  O2A       61.8790  -16.8190  -21.5600 O.3   1443  GDP1443    -0.4370
      9  O5'       63.3410  -14.9480  -20.5850 O.3   1443  GDP1443    -0.3111
     10  C5'       62.8820  -14.7600  -19.2210 C.3   1443  GDP1443     0.1813
     11  C4'       64.0510  -14.7180  -18.1990 C.3   1443  GDP1443     0.1799
     12  O4'       64.5240  -16.0520  -18.0440 O.3   1443  GDP1443    -0.3326
     13  C3'       65.2550  -13.8750  -18.6260 C.3   1443  GDP1443     0.2158
     14  O3'       65.2410  -12.6060  -17.9610 O.3   1443  GDP1443    -0.2175
     15  C2'       66.5030  -14.7420  -18.3660 C.3   1443  GDP1443     0.2310
     16  O2'       67.2390  -14.4320  -17.1750 O.3   1443  GDP1443    -0.2158
     17  C1'       65.9270  -16.1480  -18.3320 C.3   1443  GDP1443     0.2293
     18  N9        66.0910  -16.8960  -19.6150 N.pl3 1443  GDP1443    -0.2354
     19  C8        65.9240  -16.5150  -20.9320 C.3   1443  GDP1443     0.2246
     20  N7        66.1450  -17.4220  -21.8250 N.2   1443  GDP1443    -0.2322
     21  C5        66.4980  -18.5240  -21.0500 C.2   1443  GDP1443     0.2182
     22  C6        66.8620  -19.8690  -21.4500 C.1   1443  GDP1443     0.2372
     23  O6        66.9370  -20.3290  -22.5870 O.2   1443  GDP1443    -0.2069
     24  N1        67.1520  -20.6980  -20.3330 N.2   1443  GDP1443    -0.2485
     25  C2        67.1010  -20.3040  -18.9950 C.1   1443  GDP1443     0.2531
     26  N2        67.4070  -21.2240  -18.0860 N.pl3 1443  GDP1443    -0.0226
     27  N3        66.7590  -19.0520  -18.6130 N.2   1443  GDP1443    -0.3074
     28  C4        66.4700  -18.2160  -19.6880 C.2   1443  GDP1443     0.2300
@<TRIPOS>BOND
     1     3     1    2
     2     7     6    2
     3    23    22    2
     4     2     1    1
     5     1     5    1
     6     1     4    1
     7    20    21    2
     8    20    19    1
     9     6     8    1
    10     6     5    1
    11     6     9    1
    12    22    21    1
    13    22    24    2
    14    21    28    1
    15    19    18    1
    16     9    10    1
    17    24    25    2
    18    28    18    1
    19    28    27    2
    20    18    17    1
    21    10    11    1
    22    25    27    2
    23    25    26    1
    24    13    15    1
    25    13    11    1
    26    13    14    1
    27    15    17    1
    28    15    16    1
    29    17    12    1
    30    11    12    1
