@<TRIPOS>MOLECULE
2btr_U73_A_1.pdb
 18 19 0 0 0
SMALL
GASTEIGER

@<TRIPOS>ATOM
      1  O11       10.8800   45.7130   25.9630 O.2   300  U73300     -0.2726
      2  C10       10.0890   46.3610   25.2810 C.2   300  U73300      0.2518
      3  N9        10.3410   46.6840   24.0190 N.am  300  U73300     -0.1540
      4  C3        11.6360   46.4270   23.2990 C.ar  300  U73300      0.1855
      5  N4        11.8530   46.7380   21.9730 N.ar  300  U73300     -0.2213
      6  C5        13.0420   46.3410   21.6950 C.ar  300  U73300      0.1031
      7  S2        12.8870   45.4920   24.0880 S.2   300  U73300     -0.0540
      8  C1        13.7230   45.6730   22.6400 C.ar  300  U73300      0.0287
      9  C6        15.1040   45.0970   22.3950 C.3   300  U73300      0.0301
     10  C8        14.9650   43.6330   21.9270 C.3   300  U73300      0.0053
     11  C7        16.0560   45.2310   23.5780 C.3   300  U73300      0.0053
     12  C12        8.7240   46.7220   25.8230 C.3   300  U73300      0.1150
     13  C13        8.7100   47.8760   26.7700 C.ar  300  U73300      0.0062
     14  C14        8.9150   47.6790   28.1240 C.ar  300  U73300     -0.0007
     15  C15        8.9160   48.7900   28.9670 C.ar  300  U73300      0.0204
     16  C16        8.7150   50.0330   28.4280 C.ar  300  U73300      0.0989
     17  N17        8.5000   50.1830   27.1160 N.ar  300  U73300     -0.2426
     18  C18        8.4910   49.1420   26.2830 C.ar  300  U73300      0.0951
@<TRIPOS>BOND
     1     6     5   ar
     2     6     8   ar
     3    10     9    1
     4     5     4   ar
     5     9     8    1
     6     9    11    1
     7     8     7   ar
     8     4     3    1
     9     4     7   ar
    10     3     2   am
    11     2    12    1
    12     2     1    2
    13    12    13    1
    14    18    13   ar
    15    18    17   ar
    16    13    14   ar
    17    17    16   ar
    18    14    15   ar
    19    16    15   ar
