@<TRIPOS>MOLECULE
2bts_U32_A_1.pdb
 19 20 0 0 0
SMALL
GASTEIGER

@<TRIPOS>ATOM
      1  O1         6.5100   11.9080   30.1620 O.2   1299  U321299    -0.1503
      2  O2         7.3070   10.6340   28.1420 O.2   1299  U321299    -0.1503
      3  C2         0.3210    4.1030   29.4100 C.ar  1299  U321299     0.1031
      4  C3        -0.3050    5.0280   28.6610 C.ar  1299  U321299     0.0287
      5  C4        -1.6110    4.6700   27.9470 C.3   1299  U321299     0.0301
      6  C5        -2.6180    5.7970   28.1370 C.3   1299  U321299     0.0053
      7  C6        -1.5320    4.2670   26.4850 C.3   1299  U321299     0.0053
      8  S7         0.3970    6.5600   28.6870 S.2   1299  U321299    -0.0541
      9  C8         1.6150    5.8850   29.8150 C.ar  1299  U321299     0.1832
     10  N9         1.3730    4.4750   30.0180 N.ar  1299  U321299    -0.2214
     11  N11        5.2210   12.1840   27.9270 N.3   1299  U321299     0.0392
     12  C13        3.9780    9.5890   28.5170 C.ar  1299  U321299     0.0213
     13  C14        5.1310    9.9070   29.2370 C.ar  1299  U321299     0.1251
     14  N90        2.8450    6.5290   30.3300 N.pl3 1299  U321299    -0.1886
     15  C16        5.4840    9.0940   30.3140 C.ar  1299  U321299     0.0213
     16  C17        4.7120    7.9690   30.6220 C.ar  1299  U321299     0.0179
     17  C18        3.5420    7.6390   29.9030 C.ar  1299  U321299     0.0727
     18  C19        3.1910    8.4640   28.8330 C.ar  1299  U321299     0.0179
     19  S16        6.0360   11.2020   28.8570 S.O2  1299  U321299     0.0935
@<TRIPOS>BOND
     1     7     5    1
     2    11    19    1
     3     5     6    1
     4     5     4    1
     5     2    19    2
     6    12    18   ar
     7    12    13   ar
     8     4     8   ar
     9     4     3   ar
    10     8     9   ar
    11    18    17   ar
    12    19    13    1
    13    19     1    2
    14    13    15   ar
    15     3    10   ar
    16     9    10   ar
    17     9    14    1
    18    17    14    1
    19    17    16   ar
    20    15    16   ar
