@<TRIPOS>MOLECULE
2bty_NLG_A_1.pdb
 13 12 0 0 0
SMALL
GASTEIGER

@<TRIPOS>ATOM
      1  CA        20.4630   58.4960   67.4990 C.3   1284  NLG1284     0.1983
      2  C         20.5460   59.8270   67.3680 C.2   1284  NLG1284     0.3842
      3  OXT       19.6130   60.7390   66.8690 O.co2 1284  NLG1284    -0.2437
      4  O         21.4600   60.5960   67.8440 O.co2 1284  NLG1284    -0.2437
      5  CB        21.0700   57.8570   66.2740 C.3   1284  NLG1284     0.0451
      6  CG        22.6060   58.2300   66.1050 C.3   1284  NLG1284     0.1164
      7  CD        23.4520   57.0500   66.5620 C.2   1284  NLG1284     0.3649
      8  OE1       23.1720   55.8530   66.7480 O.co2 1284  NLG1284    -0.2457
      9  OE2       24.5850   57.5380   66.8450 O.co2 1284  NLG1284    -0.2457
     10  C7        18.2740   58.1320   68.6260 C.2   1284  NLG1284     0.2423
     11  C8        18.7660   58.6500   69.6670 C.3   1284  NLG1284     0.0964
     12  O7        16.9800   57.9100   68.5560 O.2   1284  NLG1284    -0.2733
     13  N2        18.9980   58.1380   67.7780 N.am  1284  NLG1284    -0.1956
@<TRIPOS>BOND
     1     6     5    1
     2     6     7    1
     3     5     1    1
     4     7     8   ar
     5     7     9   ar
     6     3     2   ar
     7     2     1    1
     8     2     4   ar
     9     1    13    1
    10    13    10   am
    11    12    10    2
    12    10    11    1
