@<TRIPOS>MOLECULE
2bty_ARG_A_1.pdb
 12 11 0 0 0
SMALL
GASTEIGER

@<TRIPOS>ATOM
      1  N         13.7420   35.0130   59.7370 N.3   1283  ARG1283    -0.1208
      2  CA        12.3270   35.3020   60.0150 C.3   1283  ARG1283     0.1944
      3  C         12.0490   36.7590   59.7140 C.2   1283  ARG1283     0.3819
      4  O         12.9630   37.4910   59.3290 O.co2 1283  ARG1283    -0.2441
      5  CB        12.0600   35.0410   61.5160 C.3   1283  ARG1283     0.0343
      6  CG        13.1280   35.6460   62.4400 C.3   1283  ARG1283     0.0490
      7  CD        12.8640   35.3950   63.9030 C.3   1283  ARG1283     0.2205
      8  NE        13.4760   36.4430   64.7200 N.pl3 1283  ARG1283    -0.0865
      9  CZ        13.5480   36.4620   66.0500 C.cat 1283  ARG1283     0.5346
     10  NH1       13.0440   35.4820   66.7920 N.pl3 1283  ARG1283     0.1354
     11  NH2       14.1360   37.4730   66.6460 N.pl3 1283  ARG1283     0.1354
     12  OXT       10.8840   37.1180   59.8840 O.co2 1283  ARG1283    -0.2441
@<TRIPOS>BOND
     1     4     3   ar
     2     3    12   ar
     3     3     2    1
     4     1     2    1
     5     2     5    1
     6     5     6    1
     7     6     7    1
     8     7     8    1
     9     8     9    2
    10     9    11    1
    11     9    10    1
