@<TRIPOS>MOLECULE
2bu2_TF1_A_1.pdb
 27 28 0 0 0
SMALL
GASTEIGER

@<TRIPOS>ATOM
      1  N1        57.4550   60.2220   76.8060 N.am  1387  TF11387    -0.2756
      2  C1        58.0480   59.2830   75.9170 C.2   1387  TF11387     0.2617
      3  C2        56.6490   61.2600   76.0870 C.3   1387  TF11387     0.0953
      4  C3        57.3230   60.1870   78.2940 C.3   1387  TF11387     0.1132
      5  C4        58.9160   58.0680   76.4570 C.3   1387  TF11387     0.2801
      6  O1        57.8740   59.3850   74.6990 O.2   1387  TF11387    -0.2719
      7  C5        56.9200   62.6370   76.7310 C.3   1387  TF11387     0.1134
      8  C6        55.1420   60.8700   76.0920 C.3   1387  TF11387     0.0233
      9  C7        57.6420   61.5520   78.9360 C.3   1387  TF11387     0.0955
     10  C8        58.0060   56.8520   76.9160 C.3   1387  TF11387     0.4307
     11  C9        59.8190   57.5840   75.2810 C.3   1387  TF11387     0.0515
     12  O2        59.7520   58.4630   77.4230 O.3   1387  TF11387    -0.2074
     13  N2        56.7960   62.5730   78.2300 N.am  1387  TF11387    -0.2743
     14  C10       59.1410   61.9350   78.8450 C.3   1387  TF11387     0.0233
     15  F1        57.2270   56.4350   75.9310 F     1387  TF11387    -0.1670
     16  F2        58.7210   55.8280   77.3430 F     1387  TF11387    -0.1670
     17  F3        57.2180   57.1870   77.9210 F     1387  TF11387    -0.1670
     18  C11       55.9220   63.4930   78.8630 C.2   1387  TF11387     0.2491
     19  C12       55.7360   63.5730   80.3430 C.ar  1387  TF11387     0.0536
     20  O3        55.2980   64.2770   78.1560 O.2   1387  TF11387    -0.2699
     21  C13       56.8660   63.9660   81.1440 C.ar  1387  TF11387     0.0052
     22  C14       54.4360   63.3640   80.9470 C.ar  1387  TF11387     0.0052
     23  C15       56.7150   64.1820   82.5420 C.ar  1387  TF11387     0.0104
     24  C16       54.2810   63.5870   82.3700 C.ar  1387  TF11387     0.0104
     25  C17       55.4360   64.0010   83.1470 C.ar  1387  TF11387     0.0685
     26  C18       55.3390   64.2120   84.5680 C.1   1387  TF11387     0.1004
     27  N3        55.2940   64.3810   85.7170 N.1   1387  TF11387    -0.1908
@<TRIPOS>BOND
     1     6     2    2
     2    11     5    1
     3     2     5    1
     4     2     1   am
     5    15    10    1
     6     3     8    1
     7     3     7    1
     8     3     1    1
     9     5    10    1
    10     5    12    1
    11     7    13    1
    12     1     4    1
    13    10    16    1
    14    10    17    1
    15    20    18    2
    16    13    18   am
    17    13     9    1
    18     4     9    1
    19    14     9    1
    20    18    19    1
    21    19    22   ar
    22    19    21   ar
    23    22    24   ar
    24    21    23   ar
    25    24    25   ar
    26    23    25   ar
    27    25    26    1
    28    26    27    3
