@<TRIPOS>MOLECULE
2bu2_ATP_A_1.pdb
 31 33 0 0 0
SMALL
GASTEIGER

@<TRIPOS>ATOM
      1  PG        42.2970   33.0060   67.2790 P.3   1386  ATP1386     0.5373
      2  O1G       42.8680   33.1350   68.5390 O.3   1386  ATP1386    -0.1143
      3  O2G       41.7130   34.2380   66.9320 O.3   1386  ATP1386    -0.1143
      4  O3G       43.3170   32.7190   66.3340 O.2   1386  ATP1386    -0.2221
      5  PB        39.7880   32.2950   66.9480 P.3   1386  ATP1386     0.2277
      6  O1B       38.8980   31.1350   67.1760 O.3   1386  ATP1386    -0.4368
      7  O2B       39.6950   32.7800   65.5530 O.2   1386  ATP1386    -0.5168
      8  O3B       41.3340   31.8950   67.3080 O.3   1386  ATP1386    -0.2258
      9  PA        38.8100   34.9410   67.9610 P.3   1386  ATP1386     0.2189
     10  O1A       39.2440   35.5950   66.7530 O.2   1386  ATP1386    -0.5170
     11  O2A       38.9610   35.6210   69.2630 O.3   1386  ATP1386    -0.4371
     12  O3A       39.4170   33.4490   67.9860 O.3   1386  ATP1386    -0.2700
     13  O5'       37.2250   34.8060   67.9700 O.3   1386  ATP1386    -0.3112
     14  C5'       36.7690   33.7140   67.2470 C.3   1386  ATP1386     0.1813
     15  C4'       35.4500   33.1190   67.2760 C.3   1386  ATP1386     0.1821
     16  O4'       34.3230   33.9170   66.8200 O.3   1386  ATP1386    -0.3135
     17  C3'       35.7140   32.0850   66.1660 C.3   1386  ATP1386     0.2184
     18  O3'       36.2590   30.8830   66.7520 O.3   1386  ATP1386    -0.2174
     19  C2'       34.4360   31.9900   65.3490 C.3   1386  ATP1386     0.2570
     20  O2'       33.6370   30.9640   65.8890 O.3   1386  ATP1386    -0.2130
     21  C1'       33.8130   33.3920   65.6030 C.3   1386  ATP1386     0.3186
     22  N9        34.0590   34.4690   64.5920 N.pl3 1386  ATP1386    -0.1439
     23  C8        34.9540   35.5330   64.5830 C.3   1386  ATP1386     0.3377
     24  N7        34.9270   36.2910   63.5420 N.2   1386  ATP1386    -0.2095
     25  C5        33.9350   35.7190   62.7770 C.2   1386  ATP1386     0.2526
     26  C6        33.3610   36.0060   61.4710 C.2   1386  ATP1386     0.4393
     27  N6        33.7730   37.0500   60.7580 N.pl3 1386  ATP1386     0.2180
     28  N1        32.3370   35.1910   60.9660 N.2   1386  ATP1386     0.0021
     29  C2        31.9000   34.1110   61.6850 C.3   1386  ATP1386     0.5254
     30  N3        32.3850   33.7660   62.9130 N.2   1386  ATP1386    -0.0055
     31  C4        33.3910   34.5720   63.3940 C.2   1386  ATP1386     0.3518
@<TRIPOS>BOND
     1    27    26    1
     2    28    26    2
     3    28    29    1
     4    26    25    1
     5    29    30    1
     6    25    31    1
     7    25    24    2
     8    30    31    2
     9    31    22    1
    10    24    23    1
    11    23    22    1
    12    22    21    1
    13    19    21    1
    14    19    20    1
    15    19    17    1
    16     7     5    2
    17    21    16    1
    18    17    18    1
    19    17    15    1
    20     4     1    2
    21    10     9    2
    22    16    15    1
    23     3     1    1
    24     5     6    1
    25     5     8    1
    26     5    12    1
    27    14    15    1
    28    14    13    1
    29     1     8    1
    30     1     2    1
    31     9    13    1
    32     9    12    1
    33     9    11    1
