@<TRIPOS>MOLECULE
2bu3_3GC_A_1.pdb
 15 14 0 0 0
SMALL
GASTEIGER

@<TRIPOS>ATOM
      1  N1         9.7580   -5.5320   40.9770 N.3   1240  3GC1240    -0.1208
      2  CA1        8.8110   -5.1830   39.9140 C.3   1240  3GC1240     0.1948
      3  C1         8.3200   -6.4310   39.2390 C.2   1240  3GC1240     0.3819
      4  O11        7.1580   -6.4590   38.7700 O.co2 1240  3GC1240    -0.2441
      5  O12        9.0940   -7.4080   39.1700 O.co2 1240  3GC1240    -0.2441
      6  CB1        9.5020   -4.2730   38.9000 C.3   1240  3GC1240     0.0402
      7  CG1        8.5660   -3.6640   37.8380 C.3   1240  3GC1240     0.0889
      8  CD1        9.4440   -2.6750   37.1090 C.2   1240  3GC1240     0.2418
      9  OE1        9.6600   -1.4870   37.6480 O.2   1240  3GC1240    -0.2733
     10  N2         9.9530   -3.0250   35.9980 N.am  1240  3GC1240    -0.1982
     11  CA2       10.9060   -2.1670   35.2810 C.3   1240  3GC1240     0.1711
     12  C2        10.4820   -1.5050   34.0020 C.2   1240  3GC1240     0.2296
     13  O2        11.2460   -0.7630   33.3940 O.2   1240  3GC1240    -0.2864
     14  CB2       12.0010   -3.1390   34.8700 C.3   1240  3GC1240     0.0983
     15  SG2       12.7750   -3.9420   36.2890 S.3   1240  3GC1240    -0.0798
@<TRIPOS>BOND
     1    13    12    2
     2    12    11    1
     3    14    11    1
     4    14    15    1
     5    11    10    1
     6    10     8   am
     7     8     9    2
     8     8     7    1
     9     7     6    1
    10     4     3   ar
    11     6     2    1
    12     5     3   ar
    13     3     2    1
    14     2     1    1
