@<TRIPOS>MOLECULE
2bu4_2GP_A_1.pdb
 24 26 0 0 0
SMALL
GASTEIGER

@<TRIPOS>ATOM
      1  P         19.1780    3.4920   14.2870 P.3   106  2GP106      0.5327
      2  O1P       18.0210    2.6730   14.7060 O.3   106  2GP106     -0.1145
      3  O2P       18.9910    4.9520   14.3170 O.3   106  2GP106     -0.1145
      4  O3P       19.8430    2.9880   13.0570 O.2   106  2GP106     -0.2224
      5  O5'       24.1590    5.3190   15.4850 O.3   106  2GP106     -0.2176
      6  C5'       24.5630    4.3420   16.4280 C.3   106  2GP106      0.2142
      7  C4'       23.4080    3.5960   17.1400 C.3   106  2GP106      0.1827
      8  O4'       22.5910    4.5070   17.9080 O.3   106  2GP106     -0.3326
      9  C3'       22.4470    2.9680   16.1750 C.3   106  2GP106      0.2132
     10  O3'       21.9840    1.7700   16.8280 O.3   106  2GP106     -0.2176
     11  C2'       21.3170    4.0200   15.9730 C.3   106  2GP106      0.2054
     12  O2'       20.1770    3.2620   15.5100 O.3   106  2GP106     -0.2657
     13  C1'       21.2110    4.5330   17.3880 C.3   106  2GP106      0.2266
     14  N9        20.9020    5.9700   17.6640 N.pl3 106  2GP106     -0.2354
     15  C8        20.1940    6.4580   18.7420 C.3   106  2GP106      0.2246
     16  N7        20.2030    7.7470   18.8660 N.2   106  2GP106     -0.2322
     17  C5        20.9690    8.1530   17.7900 C.2   106  2GP106      0.2182
     18  C6        21.3500    9.4490   17.3940 C.1   106  2GP106      0.2372
     19  O6        21.0530   10.4710   17.9770 O.2   106  2GP106     -0.2069
     20  N1        22.1350    9.4840   16.2530 N.2   106  2GP106     -0.2485
     21  C2        22.5220    8.3650   15.5570 C.1   106  2GP106      0.2531
     22  N2        23.3170    8.5660   14.5080 N.pl3 106  2GP106     -0.0226
     23  N3        22.1610    7.1330   15.9280 N.2   106  2GP106     -0.3074
     24  C4        21.3940    7.0930   17.0420 C.2   106  2GP106      0.2300
@<TRIPOS>BOND
     1     4     1    2
     2     1     3    1
     3     1     2    1
     4     1    12    1
     5    22    21    1
     6     5     6    1
     7    12    11    1
     8    21    23    2
     9    21    20    2
    10    23    24    2
    11    11     9    1
    12    11    13    1
    13     9    10    1
    14     9     7    1
    15    20    18    2
    16     6     7    1
    17    24    14    1
    18    24    17    1
    19     7     8    1
    20    13    14    1
    21    13     8    1
    22    18    17    1
    23    18    19    2
    24    14    15    1
    25    17    16    2
    26    15    16    1
