@<TRIPOS>MOLECULE
2bu5_TF1_A_1.pdb
 27 28 0 0 0
SMALL
GASTEIGER

@<TRIPOS>ATOM
      1  N1        57.0590   60.1930   76.8260 N.am  1386  TF11386    -0.2756
      2  C1        57.6740   59.2960   75.9190 C.2   1386  TF11386     0.2617
      3  C2        56.3930   61.3420   76.1390 C.3   1386  TF11386     0.0953
      4  C3        56.9480   60.1200   78.3280 C.3   1386  TF11386     0.1132
      5  C4        58.4190   57.9970   76.4570 C.3   1386  TF11386     0.2801
      6  O1        57.6330   59.5100   74.7010 O.2   1386  TF11386    -0.2719
      7  C5        56.8310   62.6470   76.8420 C.3   1386  TF11386     0.1134
      8  C6        54.8590   61.1180   76.1290 C.3   1386  TF11386     0.0233
      9  C7        57.2820   61.4430   79.0410 C.3   1386  TF11386     0.0955
     10  C8        57.4480   56.8390   76.9710 C.3   1386  TF11386     0.4307
     11  C9        59.1690   57.4210   75.2140 C.3   1386  TF11386     0.0515
     12  O2        59.3740   58.2940   77.3420 O.3   1386  TF11386    -0.2074
     13  N2        56.5630   62.5260   78.3040 N.am  1386  TF11386    -0.2743
     14  C10       58.8030   61.7500   79.1120 C.3   1386  TF11386     0.0233
     15  F1        56.7270   56.3510   75.9690 F     1386  TF11386    -0.1670
     16  F2        58.1330   55.8150   77.4430 F     1386  TF11386    -0.1670
     17  F3        56.5910   57.2290   77.9000 F     1386  TF11386    -0.1670
     18  C11       55.6790   63.4330   78.8960 C.2   1386  TF11386     0.2491
     19  C12       55.3720   63.3970   80.3360 C.ar  1386  TF11386     0.0536
     20  O3        55.1450   64.2860   78.1960 O.2   1386  TF11386    -0.2699
     21  C13       56.3360   63.8990   81.2960 C.ar  1386  TF11386     0.0052
     22  C14       54.1010   62.9060   80.7450 C.ar  1386  TF11386     0.0052
     23  C15       55.9980   63.9090   82.6870 C.ar  1386  TF11386     0.0104
     24  C16       53.7610   62.9150   82.1340 C.ar  1386  TF11386     0.0104
     25  C17       54.7090   63.4140   83.0880 C.ar  1386  TF11386     0.0685
     26  C18       54.3570   63.3930   84.4720 C.1   1386  TF11386     0.1004
     27  N3        54.0620   63.3670   85.5920 N.1   1386  TF11386    -0.1908
@<TRIPOS>BOND
     1     6     2    2
     2    11     5    1
     3     2     5    1
     4     2     1   am
     5    15    10    1
     6     8     3    1
     7     3     1    1
     8     3     7    1
     9     5    10    1
    10     5    12    1
    11     1     4    1
    12     7    13    1
    13    10    16    1
    14    10    17    1
    15    20    18    2
    16    13    18   am
    17    13     9    1
    18     4     9    1
    19    18    19    1
    20     9    14    1
    21    19    22   ar
    22    19    21   ar
    23    22    24   ar
    24    21    23   ar
    25    24    25   ar
    26    23    25   ar
    27    25    26    1
    28    26    27    3
