@<TRIPOS>MOLECULE
2bu6_TF2_A_1.pdb
 29 30 0 0 0
SMALL
GASTEIGER

@<TRIPOS>ATOM
      1  C1        56.2450   63.8410   78.0130 C.ar  1386  TF21386     0.1252
      2  S1        55.4860   65.4160   78.3480 S.O2  1386  TF21386     0.0766
      3  C2        57.2910   63.3520   78.8370 C.ar  1386  TF21386     0.0172
      4  C3        55.7940   63.0990   76.9070 C.ar  1386  TF21386     0.0215
      5  N1        54.3600   65.2500   79.7160 N.pl3 1386  TF21386    -0.1906
      6  O1        56.4950   66.3420   78.7840 O.2   1386  TF21386    -0.1497
      7  O2        54.6550   65.7680   77.2190 O.2   1386  TF21386    -0.1497
      8  C4        57.9010   62.0970   78.5530 C.ar  1386  TF21386    -0.0052
      9  C5        56.3780   61.8600   76.6140 C.ar  1386  TF21386     0.0177
     10  C6        53.4430   66.3250   80.0270 C.ar  1386  TF21386     0.0688
     11  C7        54.7030   64.4160   80.9120 C.3   1386  TF21386     0.1159
     12  C8        57.4350   61.3340   77.4230 C.ar  1386  TF21386     0.0695
     13  C9        59.0370   61.6250   79.4320 C.3   1386  TF21386     0.0324
     14  C10       53.9330   67.6550   80.1990 C.ar  1386  TF21386     0.0161
     15  C11       52.0360   66.0840   80.1090 C.ar  1386  TF21386     0.0161
     16  C12       53.8220   63.1520   81.0780 C.3   1386  TF21386     0.0252
     17  N2        58.0380   60.1240   77.1740 N.am  1386  TF21386    -0.1772
     18  C13       53.0400   68.7250   80.4500 C.ar  1386  TF21386     0.0013
     19  C14       51.1460   67.1610   80.3620 C.ar  1386  TF21386     0.0013
     20  C15       58.0600   59.3850   76.0290 C.2   1386  TF21386     0.2815
     21  C16       51.6470   68.4810   80.5290 C.ar  1386  TF21386     0.0001
     22  C17       58.6530   57.9640   76.2760 C.3   1386  TF21386     0.2819
     23  O3        57.6680   59.7450   74.9120 O.2   1386  TF21386    -0.2700
     24  C18       57.6270   57.0480   77.0280 C.3   1386  TF21386     0.4308
     25  C19       59.0970   57.3920   74.9150 C.3   1386  TF21386     0.0515
     26  O4        59.7780   58.0480   77.1430 O.3   1386  TF21386    -0.2073
     27  F1        58.1520   55.8420   77.2370 F     1386  TF21386    -0.1670
     28  F2        57.2810   57.5770   78.1960 F     1386  TF21386    -0.1670
     29  F3        56.5370   56.9040   76.3020 F     1386  TF21386    -0.1670
@<TRIPOS>BOND
     1    23    20    2
     2    25    22    1
     3    20    22    1
     4    20    17   am
     5    22    24    1
     6    22    26    1
     7    29    24    1
     8     9     4   ar
     9     9    12   ar
    10     4     1   ar
    11    24    27    1
    12    24    28    1
    13    17    12    1
    14     7     2    2
    15    12     8   ar
    16     1     2    1
    17     1     3   ar
    18     2     6    2
    19     2     5    1
    20     8     3   ar
    21     8    13    1
    22     5    10    1
    23     5    11    1
    24    10    15   ar
    25    10    14   ar
    26    15    19   ar
    27    14    18   ar
    28    19    21   ar
    29    18    21   ar
    30    11    16    1
