@<TRIPOS>MOLECULE
2bu7_TF3_A_1.pdb
 25 26 0 0 0
SMALL
GASTEIGER

@<TRIPOS>ATOM
      1  C1        36.9890   35.5030   90.1440 C.ar  1386  TF31386     0.1495
      2  C2        36.8190   36.6820   90.9330 C.ar  1386  TF31386     0.0912
      3  C3        35.9560   34.5010   90.2120 C.ar  1386  TF31386     0.0375
      4  O1        38.1580   35.4070   89.3540 O.3   1386  TF31386    -0.4698
      5  C4        35.6820   36.8680   91.7530 C.ar  1386  TF31386     0.0107
      6 CL1        38.0230   37.9450   90.9060 Cl    1386  TF31386    -0.0791
      7  C5        34.8150   34.6840   91.0320 C.ar  1386  TF31386    -0.0006
      8  C6        38.3550   34.2430   88.5600 C.3   1386  TF31386     0.2320
      9  C7        34.6650   35.8670   91.8130 C.ar  1386  TF31386    -0.0120
     10  C8        39.6450   34.3240   87.7830 C.ar  1386  TF31386     0.0211
     11  C9        33.4420   36.0690   92.6930 C.3   1386  TF31386     0.1131
     12  C10       40.1420   33.1800   87.0950 C.ar  1386  TF31386    -0.0010
     13  C11       40.3820   35.5320   87.7200 C.ar  1386  TF31386    -0.0010
     14  C12       33.7040   35.6660   94.1430 C.2   1386  TF31386     0.2458
     15  C13       41.3460   33.2470   86.3620 C.ar  1386  TF31386    -0.0045
     16  C14       41.5820   35.6000   86.9910 C.ar  1386  TF31386    -0.0045
     17  N1        34.5470   36.5120   94.7890 N.am  1386  TF31386    -0.2035
     18  O2        33.1780   34.6670   94.6250 O.2   1386  TF31386    -0.2730
     19  C15       42.0880   34.4630   86.2990 C.ar  1386  TF31386    -0.0225
     20  C16       34.9460   36.3240   96.1920 C.3   1386  TF31386     0.1356
     21  C17       43.3850   34.5750   85.5170 C.3   1386  TF31386     0.0224
     22  C18       36.2530   35.5170   96.2720 C.3   1386  TF31386     0.1327
     23  C19       44.1360   33.2400   85.4650 C.3   1386  TF31386     0.0047
     24  C20       43.0860   35.0980   84.1100 C.3   1386  TF31386     0.0047
     25  N2        36.8620   35.5470   97.6070 N.3   1386  TF31386    -0.1294
@<TRIPOS>BOND
     1    24    21    1
     2    23    21    1
     3    21    19    1
     4    19    15   ar
     5    19    16   ar
     6    15    12   ar
     7    16    13   ar
     8    12    10   ar
     9    13    10   ar
    10    10     8    1
    11     8     4    1
    12     4     1    1
    13     1     3   ar
    14     1     2   ar
    15     3     7   ar
    16     6     2    1
    17     2     5   ar
    18     7     9   ar
    19     5     9   ar
    20     9    11    1
    21    11    14    1
    22    14    18    2
    23    14    17   am
    24    17    20    1
    25    20    22    1
    26    22    25    1
