@<TRIPOS>MOLECULE
2bu8_ADP_A_1.pdb
 27 29 0 0 0
SMALL
GASTEIGER

@<TRIPOS>ATOM
      1  PB        40.5640   32.9160   66.8210 P.3   1377  ADP1377     0.5373
      2  O1B       39.7270   31.7220   67.1160 O.3   1377  ADP1377    -0.1143
      3  O2B       40.3220   33.4470   65.4570 O.2   1377  ADP1377    -0.2221
      4  O3B       42.1200   32.5140   66.9550 O.3   1377  ADP1377    -0.1143
      5  PA        39.6490   35.5670   67.9710 P.3   1377  ADP1377     0.2231
      6  O1A       40.0680   36.3050   66.7890 O.2   1377  ADP1377    -0.5169
      7  O2A       39.8020   36.1890   69.3140 O.3   1377  ADP1377    -0.4370
      8  O3A       40.2990   34.0720   67.9140 O.3   1377  ADP1377    -0.2261
      9  O5'       38.0580   35.4320   67.9850 O.3   1377  ADP1377    -0.3111
     10  C5'       37.5310   34.5740   67.0010 C.3   1377  ADP1377     0.1813
     11  C4'       36.1950   33.9670   67.0190 C.3   1377  ADP1377     0.1821
     12  O4'       35.0720   34.7710   66.5700 O.3   1377  ADP1377    -0.3135
     13  C3'       36.4250   32.8910   65.9450 C.3   1377  ADP1377     0.2184
     14  O3'       36.8730   31.6730   66.5780 O.3   1377  ADP1377    -0.2174
     15  C2'       35.1470   32.8220   65.1090 C.3   1377  ADP1377     0.2570
     16  O2'       34.3610   31.7480   65.5870 O.3   1377  ADP1377    -0.2130
     17  C1'       34.5030   34.2190   65.3930 C.3   1377  ADP1377     0.3186
     18  N9        34.6650   35.3110   64.3670 N.pl3 1377  ADP1377    -0.1439
     19  C8        35.5210   36.4010   64.3350 C.3   1377  ADP1377     0.3377
     20  N7        35.4290   37.1670   63.3050 N.2   1377  ADP1377    -0.2095
     21  C5        34.4530   36.5610   62.5520 C.2   1377  ADP1377     0.2526
     22  C6        33.8250   36.8550   61.2680 C.2   1377  ADP1377     0.4393
     23  N6        34.2120   37.9040   60.5440 N.pl3 1377  ADP1377     0.2180
     24  N1        32.8170   36.0140   60.7740 N.2   1377  ADP1377     0.0021
     25  C2        32.4090   34.9190   61.5050 C.3   1377  ADP1377     0.5254
     26  N3        32.9420   34.5660   62.7190 N.2   1377  ADP1377    -0.0055
     27  C4        33.9410   35.4100   63.1870 C.2   1377  ADP1377     0.3518
@<TRIPOS>BOND
     1    23    22    1
     2    24    22    2
     3    24    25    1
     4    22    21    1
     5    25    26    1
     6    21    27    1
     7    21    20    2
     8    26    27    2
     9    27    18    1
    10    20    19    1
    11    19    18    1
    12    18    17    1
    13    15    17    1
    14    15    16    1
    15    15    13    1
    16    17    12    1
    17     3     1    2
    18    13    14    1
    19    13    11    1
    20    12    11    1
    21     6     5    2
    22     1     4    1
    23     1     2    1
    24     1     8    1
    25    10    11    1
    26    10     9    1
    27     8     5    1
    28     5     9    1
    29     5     7    1
