@<TRIPOS>MOLECULE
2bu9_HFV_A_1.pdb
 30 29 0 0 0
SMALL
GASTEIGER

@<TRIPOS>ATOM
      1  O20       17.4430   35.8560    4.3580 O.co2 1333  HFV1333    -0.2441
      2  C1        17.2980   36.1100    5.5730 C.2   1333  HFV1333     0.3819
      3  O19       18.2460   36.2290    6.3960 O.co2 1333  HFV1333    -0.2441
      4  C2        15.8870   36.3420    6.0840 C.3   1333  HFV1333     0.1943
      5  N14       15.9460   36.4990    7.5770 N.3   1333  HFV1333    -0.1208
      6  C3        15.3300   37.6050    5.4490 C.3   1333  HFV1333     0.0311
      7  C4        13.9150   37.9540    5.9000 C.3   1333  HFV1333     0.0117
      8  C7        13.5530   39.3180    5.2710 C.3   1333  HFV1333     0.0869
      9  C10       12.1860   39.6810    5.7280 C.2   1333  HFV1333     0.2418
     10  O15       11.9170   39.9410    6.8980 O.2   1333  HFV1333    -0.2733
     11  N11       11.2280   39.7500    4.7870 N.am  1333  HFV1333    -0.1968
     12  C12        9.8640   40.0420    5.1470 C.3   1333  HFV1333     0.1843
     13  C16        9.1820   40.6330    3.9230 C.3   1333  HFV1333     0.0997
     14  S17        9.2810   39.5370    2.4500 S.3   1333  HFV1333    -0.0797
     15  C13        9.1310   38.8120    5.6610 C.2   1333  HFV1333     0.2626
     16  O18        9.6940   37.7060    5.7520 O.2   1333  HFV1333    -0.2714
     17  N29        7.8870   38.9920    6.0350 N.am  1333  HFV1333    -0.1935
     18  C30        7.0200   37.9150    6.4820 C.3   1333  HFV1333     0.2144
     19  C31        5.8040   37.8390    5.5340 C.2   1333  HFV1333     0.3848
     20  O42        4.9000   37.0720    5.8250 O.co2 1333  HFV1333    -0.2437
     21  O43        5.8490   38.5600    4.5130 O.co2 1333  HFV1333    -0.2437
     22  C32        6.5410   37.9500    7.9270 C.3   1333  HFV1333     0.2203
     23  C37        6.0440   39.3390    8.3380 C.3   1333  HFV1333     0.4077
     24  F24        5.3200   39.1550    9.4670 F     1333  HFV1333    -0.1696
     25  F25        5.2690   39.7850    7.4120 F     1333  HFV1333    -0.1696
     26  F26        6.9790   40.1750    8.6510 F     1333  HFV1333    -0.1696
     27  C33        7.7120   37.5550    8.8430 C.3   1333  HFV1333     0.4077
     28  F21        8.0590   36.2540    8.6040 F     1333  HFV1333    -0.1696
     29  F23        8.8240   38.1870    8.7040 F     1333  HFV1333    -0.1696
     30  F22        7.3750   37.6120   10.1490 F     1333  HFV1333    -0.1696
@<TRIPOS>BOND
     1    14    13    1
     2    13    12    1
     3     1     2   ar
     4    21    19   ar
     5    11    12    1
     6    11     9   am
     7    12    15    1
     8     8     9    1
     9     8     7    1
    10     6     7    1
    11     6     4    1
    12    19    20   ar
    13    19    18    1
    14     2     4    1
    15     2     3   ar
    16    15    16    2
    17    15    17   am
    18     9    10    2
    19    17    18    1
    20     4     5    1
    21    18    22    1
    22    25    23    1
    23    22    23    1
    24    22    27    1
    25    23    26    1
    26    23    24    1
    27    28    27    1
    28    29    27    1
    29    27    30    1
