@<TRIPOS>MOLECULE
2bua_007_A_1.pdb
 13 14 0 0 0
SMALL
GASTEIGER

@<TRIPOS>ATOM
      1  C1        -5.9900   21.2360    4.0370 C.3   1767  0071767     0.0055
      2  C2        -6.0320   22.7600    4.0340 C.3   1767  0071767     0.0004
      3  C3        -7.2930   20.7280    4.6940 C.3   1767  0071767     0.0366
      4  C4        -7.4930   23.1630    4.1870 C.3   1767  0071767     0.0004
      5  C5        -8.2910   21.8740    4.4110 C.3   1767  0071767     0.0055
      6  C6        -7.8350   19.3700    4.0770 C.ar  1767  0071767    -0.0214
      7  C7        -6.9200   18.4100    3.5380 C.ar  1767  0071767    -0.0042
      8  C8        -9.2290   19.0520    4.0350 C.ar  1767  0071767    -0.0042
      9  C9        -7.3840   17.2000    2.9890 C.ar  1767  0071767    -0.0003
     10  C10       -9.6880   17.8370    3.4810 C.ar  1767  0071767    -0.0003
     11  C11       -8.7680   16.9150    2.9600 C.ar  1767  0071767    -0.0000
     12  C12       -7.0280   20.5710    6.2270 C.3   1767  0071767     0.1132
     13  N13       -7.0990   19.1890    6.7340 N.3   1767  0071767    -0.1310
@<TRIPOS>BOND
     1    11     9   ar
     2    11    10   ar
     3     9     7   ar
     4    10     8   ar
     5     7     6   ar
     6     2     1    1
     7     2     4    1
     8     8     6   ar
     9     1     3    1
    10     6     3    1
    11     4     5    1
    12     5     3    1
    13     3    12    1
    14    12    13    1
