@<TRIPOS>MOLECULE
2bub_FPB_A_1.pdb
 28 30 0 0 0
SMALL
GASTEIGER

@<TRIPOS>ATOM
      1  O16       47.0820   49.7140   34.2890 O.2   1771  FPB1771    -0.2748
      2  C12       46.5600   50.7110   33.8310 C.2   1771  FPB1771     0.2271
      3  C11       46.4940   51.9720   34.6730 C.3   1771  FPB1771     0.1046
      4  C10       46.7510   51.6010   36.1220 C.3   1771  FPB1771     0.1053
      5  N18       46.3760   52.7420   36.9540 N.3   1771  FPB1771    -0.1320
      6  C9        48.2490   51.3790   36.2440 C.3   1771  FPB1771     0.0481
      7  C3        48.5210   50.7430   37.5870 C.ar  1771  FPB1771     0.0067
      8  C5        49.1780   51.4490   38.5850 C.ar  1771  FPB1771     0.1362
      9  F8        49.5850   52.6730   38.3580 F     1771  FPB1771    -0.2045
     10  C7        49.4280   50.8710   39.8190 C.ar  1771  FPB1771     0.0293
     11  C6        49.0020   49.5810   40.0650 C.ar  1771  FPB1771     0.0023
     12  C4        48.3410   48.8840   39.0740 C.ar  1771  FPB1771    -0.0002
     13  C2        48.0950   49.4570   37.8390 C.ar  1771  FPB1771    -0.0020
     14  N13       46.0090   50.7130   32.5610 N.am  1771  FPB1771    -0.2794
     15  C14       46.0040   49.5940   31.6120 C.3   1771  FPB1771     0.0970
     16  C21       44.7400   49.8670   30.8000 C.3   1771  FPB1771     0.0234
     17  C20       44.7500   51.3840   30.6220 C.3   1771  FPB1771     0.0233
     18  C19       45.3620   51.8870   31.9370 C.3   1771  FPB1771     0.0935
     19  C15       47.2930   49.7230   30.7590 C.3   1771  FPB1771     0.1351
     20  N17       48.4600   49.4140   31.6200 N.am  1771  FPB1771    -0.1999
     21  C22       49.3460   50.3780   32.1230 C.2   1771  FPB1771     0.2648
     22  O1        49.1780   51.5570   31.8490 O.2   1771  FPB1771    -0.2684
     23  C25       50.4830   49.9870   33.0100 C.ar  1771  FPB1771     0.0550
     24  C27       51.1060   48.7380   32.8840 C.ar  1771  FPB1771     0.0046
     25  C28       52.1570   48.4090   33.7450 C.ar  1771  FPB1771     0.0001
     26  C26       52.5940   49.2990   34.7340 C.ar  1771  FPB1771     0.0000
     27  C24       51.9780   50.5350   34.8650 C.ar  1771  FPB1771     0.0001
     28  C23       50.9300   50.8680   34.0080 C.ar  1771  FPB1771     0.0046
@<TRIPOS>BOND
     1    17    16    1
     2    17    18    1
     3    19    15    1
     4    19    20    1
     5    16    15    1
     6    15    14    1
     7    20    21   am
     8    22    21    2
     9    18    14    1
    10    21    23    1
    11    14     2   am
    12    24    23   ar
    13    24    25   ar
    14    23    28   ar
    15    25    26   ar
    16     2     1    2
    17     2     3    1
    18    28    27   ar
    19     3     4    1
    20    26    27   ar
    21     4     6    1
    22     4     5    1
    23     6     7    1
    24     7    13   ar
    25     7     8   ar
    26    13    12   ar
    27     9     8    1
    28     8    10   ar
    29    12    11   ar
    30    10    11   ar
