@<TRIPOS>MOLECULE
2buc_008_A_1.pdb
 26 28 0 0 0
SMALL
GASTEIGER

@<TRIPOS>ATOM
      1  F7        -5.7220   17.7240    4.1630 F     1767  0081767    -0.2045
      2  C1        -7.0390   17.9280    4.0130 C.ar  1767  0081767     0.1362
      3  C2        -7.8220   16.9170    3.4580 C.ar  1767  0081767     0.0293
      4  C3        -9.1930   17.1080    3.2950 C.ar  1767  0081767     0.0023
      5  C4        -9.7750   18.3100    3.6910 C.ar  1767  0081767    -0.0002
      6  C5        -8.9910   19.3190    4.2500 C.ar  1767  0081767    -0.0020
      7  C6        -7.6180   19.1290    4.4140 C.ar  1767  0081767     0.0067
      8  C8        -6.7670   20.2270    5.0190 C.3   1767  0081767     0.0481
      9  C9        -7.1360   20.4440    6.4910 C.3   1767  0081767     0.1053
     10  N10       -6.7370   19.2730    7.2430 N.3   1767  0081767    -0.1320
     11  C11       -6.4380   21.6700    7.0810 C.3   1767  0081767     0.1046
     12  C12       -6.9540   23.0040    6.5600 C.2   1767  0081767     0.2277
     13  O13       -7.8810   23.0490    5.7640 O.2   1767  0081767    -0.2748
     14  N14       -6.3070   24.1030    6.9740 N.am  1767  0081767    -0.2684
     15  C19       -5.2060   24.1090    7.9400 C.3   1767  0081767     0.1202
     16  C18       -5.5520   25.0590    9.0600 C.ar  1767  0081767    -0.0062
     17  C20       -5.4210   24.7070   10.4030 C.ar  1767  0081767    -0.0029
     18  C21       -5.7580   25.6400   11.3870 C.ar  1767  0081767    -0.0003
     19  C22       -6.2250   26.9050   11.0200 C.ar  1767  0081767    -0.0003
     20  C17       -6.0160   26.3110    8.6970 C.ar  1767  0081767    -0.0224
     21  C23       -6.3500   27.2500    9.6720 C.ar  1767  0081767    -0.0045
     22  C16       -6.1350   26.6250    7.2210 C.3   1767  0081767     0.0554
     23  C15       -6.6770   25.4280    6.4170 C.3   1767  0081767     0.1597
     24  C24       -6.2100   25.5660    4.9930 C.2   1767  0081767     0.2791
     25  O25       -6.9920   25.9950    4.1640 O.2   1767  0081767    -0.2698
     26  N26       -4.9670   25.2160    4.6620 N.am  1767  0081767    -0.0863
@<TRIPOS>BOND
     1     4     3   ar
     2     4     5   ar
     3     3     2   ar
     4     5     6   ar
     5     2     1    1
     6     2     7   ar
     7    25    24    2
     8     6     7   ar
     9     7     8    1
    10    26    24   am
    11    24    23    1
    12     8     9    1
    13    13    12    2
    14    23    14    1
    15    23    22    1
    16     9    11    1
    17     9    10    1
    18    12    14   am
    19    12    11    1
    20    14    15    1
    21    22    20    1
    22    15    16    1
    23    20    16   ar
    24    20    21   ar
    25    16    17   ar
    26    21    19   ar
    27    17    18   ar
    28    19    18   ar
