@<TRIPOS>MOLECULE
2bue_COA_A_1.pdb
 48 50 0 0 0
SMALL
GASTEIGER

@<TRIPOS>ATOM
      1  N1A       -0.3930    1.6510   21.5520 N.2   1200  COA1200     0.0021
      2  C2A       -0.1940    2.2910   22.7030 C.3   1200  COA1200     0.5254
      3  N3A        0.5790    1.7790   23.6500 N.2   1200  COA1200    -0.0055
      4  C4A        1.1740    0.5890   23.4540 C.2   1200  COA1200     0.3518
      5  C5A        0.9890   -0.1070   22.2720 C.2   1200  COA1200     0.2526
      6  C6A        0.1780    0.4540   21.2980 C.2   1200  COA1200     0.4393
      7  N6A       -0.0160   -0.1960   20.1450 N.pl3 1200  COA1200     0.2180
      8  N7A        1.6830   -1.2420   22.3400 N.2   1200  COA1200    -0.2095
      9  C8A        2.2850   -1.2690   23.5260 C.3   1200  COA1200     0.3377
     10  N9A        1.9670   -0.1590   24.2020 N.pl3 1200  COA1200    -0.1439
     11  C1B        2.4420    0.2100   25.5300 C.3   1200  COA1200     0.3185
     12  C2B        2.8690   -1.0810   26.1980 C.3   1200  COA1200     0.2543
     13  O2B        1.7640   -1.5790   26.9590 O.3   1200  COA1200    -0.2131
     14  C3B        4.0380   -0.6100   27.0580 C.3   1200  COA1200     0.1928
     15  O3B        3.5340    0.1060   28.1900 O.3   1200  COA1200    -0.2673
     16  P3B        3.2300   -0.6440   29.5710 P.3   1200  COA1200     0.5327
     17  O7A        2.9490    0.5620   30.6150 O.3   1200  COA1200    -0.1145
     18  O8A        4.6010   -1.3500   30.0260 O.3   1200  COA1200    -0.1145
     19  O9A        2.0880   -1.5930   29.4490 O.2   1200  COA1200    -0.2224
     20  C4B        4.7230    0.4170   26.1430 C.3   1200  COA1200     0.1795
     21  O4B        3.6890    0.9260   25.2570 O.3   1200  COA1200    -0.3136
     22  C5B        5.9480    0.0130   25.3190 C.3   1200  COA1200     0.1812
     23  O5B        7.0810   -0.2960   26.1410 O.3   1200  COA1200    -0.3112
     24  P1A        8.1050   -1.4520   25.6210 P.3   1200  COA1200     0.2189
     25  O1A        9.4410   -1.3000   26.3050 O.3   1200  COA1200    -0.4371
     26  O2A        7.4910   -2.8040   25.6100 O.2   1200  COA1200    -0.5170
     27  O3A        8.2770   -0.9730   24.1110 O.3   1200  COA1200    -0.2703
     28  P2A        9.0160   -1.8630   22.9610 P.3   1200  COA1200     0.2188
     29  O4A        9.9070   -2.8450   23.6080 O.3   1200  COA1200    -0.4371
     30  O5A        8.0350   -2.3010   21.9240 O.2   1200  COA1200    -0.5170
     31  O6A        9.9340   -0.6990   22.3050 O.3   1200  COA1200    -0.3138
     32  CBP        9.9180    0.7070   20.3210 C.3   1200  COA1200     0.0645
     33  CCP        9.3570    0.5120   21.7450 C.3   1200  COA1200     0.1519
     34  CDP        9.2620    1.9730   19.7220 C.3   1200  COA1200     0.0056
     35  CEP       11.4550    0.8910   20.4180 C.3   1200  COA1200     0.0056
     36  CAP        9.5750   -0.5510   19.4530 C.3   1200  COA1200     0.2312
     37  OAP        8.1830   -0.9020   19.6010 O.3   1200  COA1200    -0.2131
     38  C9P        9.9520   -0.3800   17.9650 C.2   1200  COA1200     0.2719
     39  O9P       11.1370   -0.4020   17.6250 O.2   1200  COA1200    -0.2706
     40  N8P        8.9170   -0.2170   17.1100 N.am  1200  COA1200    -0.2028
     41  C7P        9.0950   -0.0400   15.6510 C.3   1200  COA1200     0.1248
     42  C6P        9.9930    1.1860   15.3390 C.3   1200  COA1200     0.1102
     43  C5P        9.6040    2.4720   16.1090 C.2   1200  COA1200     0.2432
     44  O5P        8.4250    2.7680   16.3230 O.2   1200  COA1200    -0.2733
     45  N4P       10.6320    3.2400   16.5060 N.am  1200  COA1200    -0.2044
     46  C3P       10.3990    4.4790   17.2790 C.3   1200  COA1200     0.1276
     47  C2P       10.1650    5.7040   16.3980 C.3   1200  COA1200     0.0920
     48  S1P       10.0370    7.2630   17.3850 S.3   1200  COA1200    -0.0802
@<TRIPOS>BOND
     1    42    41    1
     2    42    43    1
     3    41    40    1
     4    43    44    2
     5    43    45   am
     6    47    46    1
     7    47    48    1
     8    45    46    1
     9    40    38   am
    10    39    38    2
    11    38    36    1
    12    36    37    1
    13    36    32    1
    14    34    32    1
    15     7     6    1
    16    32    35    1
    17    32    33    1
    18     6     1    2
    19     6     5    1
    20     1     2    1
    21    33    31    1
    22    30    28    2
    23     5     8    2
    24     5     4    1
    25    31    28    1
    26     8     9    1
    27     2     3    1
    28    28    29    1
    29    28    27    1
    30     4     3    2
    31     4    10    1
    32     9    10    1
    33    27    24    1
    34    10    11    1
    35    21    11    1
    36    21    20    1
    37    22    23    1
    38    22    20    1
    39    11    12    1
    40    26    24    2
    41    24    23    1
    42    24    25    1
    43    20    14    1
    44    12    13    1
    45    12    14    1
    46    14    15    1
    47    15    16    1
    48    19    16    2
    49    16    18    1
    50    16    17    1
