@<TRIPOS>MOLECULE
2bue_RIO_A_1.pdb
 31 33 0 0 0
SMALL
GASTEIGER

@<TRIPOS>ATOM
      1  O1        17.7480    8.0640   10.2930 O.3   1201  RIO1201    -0.2176
      2  C1        19.0450    8.5550    9.9240 C.3   1201  RIO1201     0.2142
      3  C2        18.8600    9.7600    8.9930 C.3   1201  RIO1201     0.1836
      4  O2        17.6370   10.4710    9.2740 O.3   1201  RIO1201    -0.3256
      5  C3        17.9020   11.5310   10.2070 C.3   1201  RIO1201     0.2695
      6  O3        17.3790   11.2040   11.5110 O.3   1201  RIO1201    -0.3258
      7  C4        16.4650   12.2330   12.0610 C.3   1201  RIO1201     0.1779
      8  C5        17.2390   13.3490   12.8200 C.3   1201  RIO1201     0.1989
      9  O4        18.1040   14.0410   11.9360 O.3   1201  RIO1201    -0.2189
     10  C6        16.3310   14.3570   13.5470 C.3   1201  RIO1201     0.1261
     11  N1        17.1810   15.2590   14.3770 N.3   1201  RIO1201    -0.1301
     12  C7        15.3290   13.6100   14.4690 C.3   1201  RIO1201     0.0433
     13  C8        14.5060   12.5920   13.6520 C.3   1201  RIO1201     0.1230
     14  N2        13.5050   11.9580   14.5560 N.3   1201  RIO1201    -0.1302
     15  C9        15.4420   11.5200   12.9930 C.3   1201  RIO1201     0.1649
     16  O5        14.5650   10.7210   12.1470 O.3   1201  RIO1201    -0.3278
     17  C10       14.8570    9.3230   12.1770 C.3   1201  RIO1201     0.2561
     18  O6        14.2070    8.6930   13.2540 O.3   1201  RIO1201    -0.3276
     19  C11       12.7400    8.6090   13.1640 C.3   1201  RIO1201     0.1696
     20  C12       12.2880    7.7400   14.3620 C.3   1201  RIO1201     0.1415
     21  N3        12.3130    8.5250   15.6060 N.3   1201  RIO1201    -0.1286
     22  C13       12.2940    7.9670   11.8150 C.3   1201  RIO1201     0.2122
     23  O7        10.8530    8.0740   11.7280 O.3   1201  RIO1201    -0.2177
     24  C14       12.9630    8.7040   10.6290 C.3   1201  RIO1201     0.2070
     25  O8        12.5590    8.1640    9.3380 O.3   1201  RIO1201    -0.2186
     26  C15       14.4920    8.7170   10.7890 C.3   1201  RIO1201     0.1807
     27  N4        15.1560    9.4600    9.7180 N.3   1201  RIO1201    -0.1248
     28  C16       19.4390   11.7370   10.1850 C.3   1201  RIO1201     0.2404
     29  O9        19.6660   13.0590    9.7230 O.3   1201  RIO1201    -0.2149
     30  C17       19.9430   10.8130    9.0620 C.3   1201  RIO1201     0.2168
     31  O10       19.9060   11.5680    7.8190 O.3   1201  RIO1201    -0.2175
@<TRIPOS>BOND
     1    31    30    1
     2     3    30    1
     3     3     4    1
     4     3     2    1
     5    30    28    1
     6     4     5    1
     7    25    24    1
     8    27    26    1
     9    29    28    1
    10     2     1    1
    11    28     5    1
    12     5     6    1
    13    24    26    1
    14    24    22    1
    15    26    17    1
    16     6     7    1
    17    23    22    1
    18    22    19    1
    19     9     8    1
    20     7     8    1
    21     7    15    1
    22    16    17    1
    23    16    15    1
    24    17    18    1
    25     8    10    1
    26    15    13    1
    27    19    18    1
    28    19    20    1
    29    10    11    1
    30    10    12    1
    31    13    12    1
    32    13    14    1
    33    20    21    1
