@<TRIPOS>MOLECULE
2buf_ADP_B_1.pdb
 27 29 0 0 0
SMALL
GASTEIGER

@<TRIPOS>ATOM
      1  PB        -8.9030   86.7560  -30.0980 P.3   1300  ADP1300     0.5373
      2  O1B       -7.7370   86.4900  -29.1460 O.3   1300  ADP1300    -0.1143
      3  O2B       -9.4380   85.5660  -30.8050 O.2   1300  ADP1300    -0.2221
      4  O3B       -9.9790   87.5700  -29.3240 O.3   1300  ADP1300    -0.1143
      5  PA        -7.0060   88.4300  -31.6910 P.3   1300  ADP1300     0.2231
      6  O1A       -7.2650   89.5800  -32.6140 O.2   1300  ADP1300    -0.5169
      7  O2A       -6.1370   88.6140  -30.5420 O.3   1300  ADP1300    -0.4370
      8  O3A       -8.4320   87.8760  -31.1350 O.3   1300  ADP1300    -0.2261
      9  O5'       -6.2950   87.3280  -32.5840 O.3   1300  ADP1300    -0.3111
     10  C5'       -6.7720   86.9110  -33.8820 C.3   1300  ADP1300     0.1813
     11  C4'       -5.9880   87.7150  -34.9220 C.3   1300  ADP1300     0.1821
     12  O4'       -4.5490   87.4470  -34.8570 O.3   1300  ADP1300    -0.3135
     13  C3'       -6.2960   87.4620  -36.4390 C.3   1300  ADP1300     0.2184
     14  O3'       -7.5840   88.1500  -36.6980 O.3   1300  ADP1300    -0.2174
     15  C2'       -5.0280   88.1260  -37.0740 C.3   1300  ADP1300     0.2570
     16  O2'       -5.3230   89.4930  -37.4750 O.3   1300  ADP1300    -0.2130
     17  C1'       -3.9480   88.0890  -35.9820 C.3   1300  ADP1300     0.3186
     18  N9        -2.7880   87.3120  -36.4090 N.pl3 1300  ADP1300    -0.1439
     19  C8        -1.4940   87.8040  -36.3380 C.3   1300  ADP1300     0.3377
     20  N7        -0.5290   87.0570  -36.7450 N.2   1300  ADP1300    -0.2095
     21  C5        -1.2070   85.9770  -37.1700 C.2   1300  ADP1300     0.2526
     22  C6        -0.7150   84.7830  -37.7150 C.2   1300  ADP1300     0.4393
     23  N6         0.5550   84.4190  -38.0160 N.pl3 1300  ADP1300     0.2180
     24  N1        -1.6680   83.7980  -38.0670 N.2   1300  ADP1300     0.0021
     25  C2        -3.0370   84.0260  -37.8320 C.3   1300  ADP1300     0.5254
     26  N3        -3.6120   85.1140  -37.2980 N.2   1300  ADP1300    -0.0055
     27  C4        -2.6070   86.0920  -36.9860 C.2   1300  ADP1300     0.3518
@<TRIPOS>BOND
     1    24    25    1
     2    24    22    2
     3    23    22    1
     4    25    26    1
     5    22    21    1
     6    16    15    1
     7    26    27    2
     8    21    27    1
     9    21    20    2
    10    15    13    1
    11    15    17    1
    12    27    18    1
    13    20    19    1
    14    14    13    1
    15    13    11    1
    16    18    19    1
    17    18    17    1
    18    17    12    1
    19    11    12    1
    20    11    10    1
    21    10     9    1
    22     6     5    2
    23     9     5    1
    24     5     8    1
    25     5     7    1
    26     8     1    1
    27     3     1    2
    28     1     4    1
    29     1     2    1
