@<TRIPOS>MOLECULE
2buf_NLG_A_1.pdb
 13 12 0 0 0
SMALL
GASTEIGER

@<TRIPOS>ATOM
      1  CA       -32.1170   98.7340   -6.8060 C.3   1302  NLG1302     0.1983
      2  C        -31.5230   99.6580   -7.6270 C.2   1302  NLG1302     0.3842
      3  OXT      -30.7870  100.7870   -7.2950 O.co2 1302  NLG1302    -0.2437
      4  O        -31.5080   99.7330   -8.9070 O.co2 1302  NLG1302    -0.2437
      5  CB       -31.1020   97.6640   -6.4160 C.3   1302  NLG1302     0.0451
      6  CG       -29.8290   98.2290   -5.6340 C.3   1302  NLG1302     0.1164
      7  CD       -30.2550   98.5730   -4.2060 C.2   1302  NLG1302     0.3649
      8  OE1      -31.1750   98.1750   -3.4590 O.co2 1302  NLG1302    -0.2457
      9  OE2      -29.4100   99.4450   -3.8590 O.co2 1302  NLG1302    -0.2457
     10  C7       -34.4550   98.4150   -7.6260 C.2   1302  NLG1302     0.2423
     11  C8       -35.3420   97.7540   -8.3210 C.3   1302  NLG1302     0.0964
     12  O7       -34.7990   99.4320   -6.9780 O.2   1302  NLG1302    -0.2733
     13  N2       -33.3600   98.1840   -7.5190 N.am  1302  NLG1302    -0.1956
@<TRIPOS>BOND
     1     4     2   ar
     2    11    10    1
     3     2     3   ar
     4     2     1    1
     5    10    13   am
     6    10    12    2
     7    13     1    1
     8     1     5    1
     9     5     6    1
    10     6     7    1
    11     7     9   ar
    12     7     8   ar
