@<TRIPOS>MOLECULE
2buj_STU_A_1.pdb
 35 42 0 0 0
SMALL
GASTEIGER

@<TRIPOS>ATOM
      1  O4       -16.0560  -20.0030   -5.7780 O.3   1301  STU1301    -0.3186
      2  C25      -17.3770  -20.1510   -5.3060 C.3   1301  STU1301     0.2078
      3  C24      -17.5570  -20.2000   -3.7730 C.3   1301  STU1301     0.0739
      4  C23      -16.1580  -20.2830   -3.1200 C.3   1301  STU1301     0.1086
      5  C22      -15.4720  -21.4270   -3.8810 C.3   1301  STU1301     0.1761
      6  C21      -15.1740  -20.9900   -5.3190 C.3   1301  STU1301     0.1915
      7  C26      -13.8280  -20.2740   -5.2890 C.3   1301  STU1301     0.0566
      8  N2       -15.1140  -22.1510   -6.2200 N.ar  1301  STU1301    -0.3054
      9  C18      -16.2500  -22.6380   -6.8550 C.ar  1301  STU1301     0.0774
     10  C19      -17.5680  -22.1750   -6.8300 C.ar  1301  STU1301     0.0783
     11  C6       -18.5610  -22.8380   -7.5800 C.ar  1301  STU1301     0.0293
     12  C7       -18.2230  -23.9730   -8.3600 C.ar  1301  STU1301     0.0822
     13  C10      -16.9030  -24.4180   -8.3720 C.ar  1301  STU1301     0.0154
     14  C11      -15.9390  -23.7700   -7.6240 C.ar  1301  STU1301     0.0173
     15  C12      -14.5420  -23.9990   -7.4310 C.ar  1301  STU1301     0.0171
     16  C17      -14.0710  -22.9880   -6.5460 C.ar  1301  STU1301     0.0617
     17  C16      -12.7250  -22.9900   -6.1870 C.ar  1301  STU1301     0.0172
     18  C15      -11.9300  -23.9910   -6.7330 C.ar  1301  STU1301     0.0015
     19  C14      -12.4120  -24.9710   -7.5940 C.ar  1301  STU1301     0.0001
     20  C13      -13.7410  -25.0040   -7.9650 C.ar  1301  STU1301     0.0015
     21  C9       -16.8240  -25.6310   -9.2680 C.3   1301  STU1301     0.1650
     22  N1       -18.1850  -25.8330   -9.7540 N.2   1301  STU1301    -0.1976
     23  C8       -18.9870  -24.8810   -9.2290 C.1   1301  STU1301     0.1501
     24  O5       -20.1710  -24.7970   -9.4670 O.2   1301  STU1301    -0.2222
     25  C5       -19.7910  -22.1060   -7.3150 C.ar  1301  STU1301     0.0180
     26  C20      -19.4480  -21.0360   -6.4310 C.ar  1301  STU1301     0.0618
     27  C1       -20.4140  -20.1200   -5.9740 C.ar  1301  STU1301     0.0172
     28  C2       -21.7090  -20.3030   -6.4460 C.ar  1301  STU1301     0.0015
     29  C3       -22.0370  -21.3450   -7.3140 C.ar  1301  STU1301     0.0001
     30  C4       -21.0980  -22.2720   -7.7750 C.ar  1301  STU1301     0.0015
     31  N3       -18.0880  -21.1390   -6.1450 N.ar  1301  STU1301    -0.3039
     32  O6       -16.4050  -22.5090   -3.9480 O.3   1301  STU1301    -0.3478
     33  C27      -15.6920  -23.7210   -3.6410 C.3   1301  STU1301     0.1743
     34  N4       -16.2150  -20.4820   -1.6400 N.3   1301  STU1301    -0.2152
     35  C28      -15.9910  -21.7890   -0.9600 C.3   1301  STU1301     0.1075
@<TRIPOS>BOND
     1    22    21    1
     2    22    23    2
     3    24    23    2
     4    21    13    1
     5    23    12    1
     6    13    12   ar
     7    13    14   ar
     8    12    11   ar
     9    20    19   ar
    10    20    15   ar
    11    30    25   ar
    12    30    29   ar
    13    14    15   ar
    14    14     9   ar
    15    19    18   ar
    16    11    25   ar
    17    11    10   ar
    18    15    16   ar
    19    25    26   ar
    20    29    28   ar
    21     9    10   ar
    22     9     8   ar
    23    10    31   ar
    24    18    17   ar
    25    16     8   ar
    26    16    17   ar
    27    28    27   ar
    28    26    31   ar
    29    26    27   ar
    30     8     6    1
    31    31     2    1
    32     1     6    1
    33     1     2    1
    34     6     7    1
    35     6     5    1
    36     2     3    1
    37    32     5    1
    38    32    33    1
    39     5     4    1
    40     3     4    1
    41     4    34    1
    42    34    35    1
