@<TRIPOS>MOLECULE
2bup_ATP_A_1.pdb
 31 33 0 0 0
SMALL
GASTEIGER

@<TRIPOS>ATOM
      1  PG        16.9070   28.4950   19.3320 P.3   489  ATP489      0.5373
      2  O1G       15.7910   29.2540   19.9950 O.3   489  ATP489     -0.1143
      3  O2G       18.1990   28.3690   20.1080 O.3   489  ATP489     -0.1143
      4  O3G       16.5030   27.3110   18.4890 O.2   489  ATP489     -0.2221
      5  PB        17.5520   29.3890   16.6060 P.3   489  ATP489      0.2277
      6  O1B       16.1730   29.2910   15.9890 O.2   489  ATP489     -0.5168
      7  O2B       18.5580   28.3260   16.3410 O.3   489  ATP489     -0.4368
      8  O3B       17.3680   29.5380   18.1940 O.3   489  ATP489     -0.2258
      9  PA        19.3740   31.4560   15.4160 P.3   489  ATP489      0.2189
     10  O1A       20.5860   30.5520   15.3940 O.3   489  ATP489     -0.4371
     11  O2A       18.7980   31.9700   14.1360 O.2   489  ATP489     -0.5170
     12  O3A       18.1900   30.8300   16.2970 O.3   489  ATP489     -0.2700
     13  O5'       19.6860   32.6920   16.3760 O.3   489  ATP489     -0.3112
     14  C5'       18.7520   33.7480   16.5410 C.3   489  ATP489      0.1813
     15  C4'       19.2380   34.6900   17.6140 C.3   489  ATP489      0.1821
     16  O4'       20.5140   35.2640   17.2040 O.3   489  ATP489     -0.3135
     17  C3'       18.3240   35.8720   17.9340 C.3   489  ATP489      0.2184
     18  O3'       18.3050   36.0710   19.3420 O.3   489  ATP489     -0.2174
     19  C2'       19.0250   37.0420   17.2500 C.3   489  ATP489      0.2570
     20  O2'       18.7640   38.2990   17.8440 O.3   489  ATP489     -0.2130
     21  C1'       20.4880   36.6550   17.4440 C.3   489  ATP489      0.3186
     22  N9        21.3950   37.3180   16.5080 N.pl3 489  ATP489     -0.1439
     23  C8        21.3650   37.2970   15.1350 C.3   489  ATP489      0.3377
     24  N7        22.2980   38.0280   14.5740 N.2   489  ATP489     -0.2095
     25  C5        22.9920   38.5650   15.6530 C.2   489  ATP489      0.2526
     26  C6        24.0890   39.4410   15.7290 C.2   489  ATP489      0.4393
     27  N6        24.6910   39.9700   14.6590 N.pl3 489  ATP489      0.2180
     28  N1        24.5450   39.7700   16.9620 N.2   489  ATP489      0.0021
     29  C2        23.9260   39.2540   18.0330 C.3   489  ATP489      0.5254
     30  N3        22.8790   38.4330   18.0870 N.2   489  ATP489     -0.0055
     31  C4        22.4540   38.1240   16.8480 C.2   489  ATP489      0.3518
@<TRIPOS>BOND
     1    11     9    2
     2    24    23    1
     3    24    25    2
     4    27    26    1
     5    23    22    1
     6    10     9    1
     7     9    12    1
     8     9    13    1
     9    25    26    1
    10    25    31    1
    11    26    28    2
    12     6     5    2
    13    12     5    1
    14     7     5    1
    15    13    14    1
    16    22    31    1
    17    22    21    1
    18    14    15    1
    19     5     8    1
    20    31    30    2
    21    28    29    1
    22    16    21    1
    23    16    15    1
    24    19    21    1
    25    19    20    1
    26    19    17    1
    27    15    17    1
    28    17    18    1
    29    29    30    1
    30     8     1    1
    31     4     1    2
    32     1     2    1
    33     1     3    1
