@<TRIPOS>MOLECULE
2bup_ADP_A_1.pdb
 27 29 0 0 0
SMALL
GASTEIGER

@<TRIPOS>ATOM
      1  PB        17.3990   29.7370   16.6790 P.3   486  ADP486      0.5373
      2  O1B       17.2030   30.2470   18.0590 O.3   486  ADP486     -0.1143
      3  O2B       18.5310   28.6110   16.5940 O.3   486  ADP486     -0.1143
      4  O3B       16.1220   29.1760   16.1470 O.2   486  ADP486     -0.2221
      5  PA        19.3990   31.4360   15.4900 P.3   486  ADP486      0.2231
      6  O1A       20.1760   31.7730   16.6780 O.3   486  ADP486     -0.4370
      7  O2A       19.6530   31.9150   14.1480 O.2   486  ADP486     -0.5169
      8  O3A       17.9400   30.9170   15.8060 O.3   486  ADP486     -0.2261
      9  O5'       18.7500   32.9470   15.6030 O.3   486  ADP486     -0.3111
     10  C5'       18.0960   33.5370   16.7600 C.3   486  ADP486      0.1813
     11  C4'       19.0150   34.4450   17.6300 C.3   486  ADP486      0.1821
     12  O4'       20.2960   34.9100   17.0780 O.3   486  ADP486     -0.3135
     13  C3'       18.3060   35.7090   18.1350 C.3   486  ADP486      0.2184
     14  O3'       18.4460   35.8800   19.5470 O.3   486  ADP486     -0.2174
     15  C2'       18.9610   36.8330   17.3540 C.3   486  ADP486      0.2570
     16  O2'       18.7310   38.1410   17.9140 O.3   486  ADP486     -0.2130
     17  C1'       20.3870   36.3370   17.3570 C.3   486  ADP486      0.3186
     18  N9        21.2810   37.0830   16.3870 N.pl3 486  ADP486     -0.1439
     19  C8        21.2060   37.0350   15.0430 C.3   486  ADP486      0.3377
     20  N7        22.1520   37.8230   14.5220 N.2   486  ADP486     -0.2095
     21  C5        22.8280   38.3740   15.5080 C.2   486  ADP486      0.2526
     22  C6        23.9010   39.2620   15.6070 C.2   486  ADP486      0.4393
     23  N6        24.4650   39.7510   14.4850 N.pl3 486  ADP486      0.2180
     24  N1        24.3790   39.6460   16.8520 N.2   486  ADP486      0.0021
     25  C2        23.8290   39.1720   18.0000 C.3   486  ADP486      0.5254
     26  N3        22.7910   38.3140   17.9130 N.2   486  ADP486     -0.0055
     27  C4        22.2680   37.8940   16.7170 C.2   486  ADP486      0.3518
@<TRIPOS>BOND
     1     7     5    2
     2    23    22    1
     3    20    19    1
     4    20    21    2
     5    19    18    1
     6     5     9    1
     7     5     8    1
     8     5     6    1
     9    21    22    1
    10    21    27    1
    11     9    10    1
    12    22    24    2
    13     8     1    1
    14     4     1    2
    15    18    27    1
    16    18    17    1
    17     3     1    1
    18     1     2    1
    19    27    26    2
    20    10    11    1
    21    24    25    1
    22    12    17    1
    23    12    11    1
    24    15    17    1
    25    15    16    1
    26    15    13    1
    27    11    13    1
    28    26    25    1
    29    13    14    1
