@<TRIPOS>MOLECULE
2buu_4NC_B_1.pdb
 11 11 0 0 0
SMALL
GASTEIGER

@<TRIPOS>ATOM
      1  C1         9.7000  -12.9780   41.0400 C.ar  1542  4NC1542     0.2344
      2  C2         9.7310  -13.4650   42.3310 C.ar  1542  4NC1542     0.2359
      3  C3        10.9270  -13.5790   43.0090 C.ar  1542  4NC1542     0.0694
      4  C4        12.0980  -13.2040   42.3870 C.ar  1542  4NC1542     0.1463
      5  C5        12.0790  -12.7160   41.0920 C.ar  1542  4NC1542     0.0276
      6  C6        10.8780  -12.6060   40.4150 C.ar  1542  4NC1542     0.0471
      7  O7         8.4980  -12.8580   40.3730 O.3   1542  4NC1542    -0.2831
      8  O8         8.5530  -13.8310   42.9510 O.3   1542  4NC1542    -0.2831
      9  N9        13.3640  -13.3150   43.0980 N.pl3 1542  4NC1542     0.0578
     10  O10       13.3850  -13.2780   44.3420 O.2   1542  4NC1542    -0.1261
     11  O11       14.4280  -13.4210   42.4420 O.2   1542  4NC1542    -0.1261
@<TRIPOS>BOND
     1     7     1    1
     2     6     1   ar
     3     6     5   ar
     4     1     2   ar
     5     5     4   ar
     6     2     8    1
     7     2     3   ar
     8     4     3   ar
     9     4     9    1
    10    11     9    2
    11     9    10    2
