@<TRIPOS>MOLECULE
2buv_DHB_B_1.pdb
 11 11 0 0 0
SMALL
GASTEIGER

@<TRIPOS>ATOM
      1  C1        12.1990  -13.9010   41.4500 C.ar  1542  DHB1542     0.0832
      2  C2        11.0860  -14.0810   42.2540 C.ar  1542  DHB1542     0.0520
      3  C3         9.8260  -13.7250   41.7910 C.ar  1542  DHB1542     0.2345
      4  O3         8.7140  -13.9070   42.6010 O.3   1542  DHB1542    -0.2831
      5  C4         9.6810  -13.1840   40.5280 C.ar  1542  DHB1542     0.2343
      6  O4         8.4270  -12.8270   40.0750 O.3   1542  DHB1542    -0.2831
      7  C5        10.7930  -12.9990   39.7170 C.ar  1542  DHB1542     0.0456
      8  C6        12.0530  -13.3620   40.1760 C.ar  1542  DHB1542     0.0101
      9  C         13.5210  -14.2720   41.9400 C.2   1542  DHB1542     0.3879
     10  O1        13.9950  -13.6890   42.9500 O.co2 1542  DHB1542    -0.2406
     11  O2        14.1970  -15.1670   41.3600 O.co2 1542  DHB1542    -0.2406
@<TRIPOS>BOND
     1     7     8   ar
     2     7     5   ar
     3     6     5    1
     4     8     1   ar
     5     5     3   ar
     6    11     9   ar
     7     1     9    1
     8     1     2   ar
     9     3     2   ar
    10     3     4    1
    11     9    10   ar
