@<TRIPOS>MOLECULE
2buz_4NC_B_1.pdb
 11 11 0 0 0
SMALL
GASTEIGER

@<TRIPOS>ATOM
      1  C1         9.8500  -13.9380   41.1110 C.ar  1542  4NC1542     0.2344
      2  C2         9.8840  -13.8120   42.4970 C.ar  1542  4NC1542     0.2359
      3  C3        11.0880  -13.5830   43.1330 C.ar  1542  4NC1542     0.0694
      4  C4        12.2500  -13.4740   42.4010 C.ar  1542  4NC1542     0.1463
      5  C5        12.2360  -13.6030   41.0270 C.ar  1542  4NC1542     0.0276
      6  C6        11.0240  -13.8360   40.3830 C.ar  1542  4NC1542     0.0471
      7  O7         8.6570  -14.1640   40.4710 O.3   1542  4NC1542    -0.2831
      8  O8         8.7190  -13.9170   43.2230 O.3   1542  4NC1542    -0.2831
      9  N9        13.5060  -13.2310   43.0880 N.pl3 1542  4NC1542     0.0578
     10  O10       13.4940  -12.8940   44.2820 O.2   1542  4NC1542    -0.1261
     11  O11       14.5870  -13.3480   42.4750 O.2   1542  4NC1542    -0.1261
@<TRIPOS>BOND
     1     6     5   ar
     2     6     1   ar
     3     7     1    1
     4     5     4   ar
     5     1     2   ar
     6     4     9    1
     7     4     3   ar
     8    11     9    2
     9     2     3   ar
    10     2     8    1
    11     9    10    2
