@<TRIPOS>MOLECULE
2bv3_GNP_A_1.pdb
 32 34 0 0 0
SMALL
GASTEIGER

@<TRIPOS>ATOM
      1  PG         0.3570   31.3050   37.3480 P.3   1689  GNP1689     0.4884
      2  O1G        0.3670   31.0030   35.8680 O.2   1689  GNP1689    -0.2331
      3  O2G        1.7890   31.0770   37.7680 O.3   1689  GNP1689    -0.1240
      4  O3G       -0.2160   32.6540   37.7390 O.3   1689  GNP1689    -0.1240
      5  N3B       -0.5310   30.1580   38.0140 N.3   1689  GNP1689    -0.0163
      6  PB        -2.0780   30.3210   38.3430 P.3   1689  GNP1689     0.4669
      7  O1B       -2.2690   31.3610   39.3850 O.3   1689  GNP1689    -0.1253
      8  O2B       -2.7150   30.5310   37.0260 O.2   1689  GNP1689    -0.2351
      9  O3A       -2.6200   29.0000   38.8870 O.3   1689  GNP1689    -0.2360
     10  PA        -2.8970   27.8300   37.9510 P.3   1689  GNP1689     0.2220
     11  O1A       -1.7610   27.6680   37.0190 O.2   1689  GNP1689    -0.5170
     12  O2A       -4.2290   28.0130   37.3460 O.3   1689  GNP1689    -0.4370
     13  O5'       -2.8910   26.5200   38.8220 O.3   1689  GNP1689    -0.3111
     14  C5'       -1.9970   26.3860   39.9370 C.3   1689  GNP1689     0.1813
     15  C4'       -2.0400   24.9750   40.5260 C.3   1689  GNP1689     0.1799
     16  O4'       -3.1340   24.8280   41.4840 O.3   1689  GNP1689    -0.3326
     17  C3'       -2.2620   23.8590   39.5140 C.3   1689  GNP1689     0.2158
     18  O3'       -1.6360   22.6550   39.9600 O.3   1689  GNP1689    -0.2175
     19  C2'       -3.7850   23.7700   39.5350 C.3   1689  GNP1689     0.2310
     20  O2'       -4.3050   22.6120   38.9110 O.3   1689  GNP1689    -0.2158
     21  C1'       -4.0250   23.8140   41.0450 C.3   1689  GNP1689     0.2293
     22  N9        -5.3990   24.1910   41.3630 N.pl3 1689  GNP1689    -0.2354
     23  C8        -6.1190   25.1900   40.7310 C.3   1689  GNP1689     0.2246
     24  N7        -7.3280   25.3390   41.1830 N.2   1689  GNP1689    -0.2322
     25  C5        -7.4270   24.3700   42.1790 C.2   1689  GNP1689     0.2182
     26  C6        -8.5230   24.0450   43.0140 C.1   1689  GNP1689     0.2372
     27  O6        -9.6290   24.5920   43.0240 O.2   1689  GNP1689    -0.2069
     28  N1        -8.2400   23.0040   43.9050 N.2   1689  GNP1689    -0.2485
     29  C2        -7.0270   22.3480   43.9660 C.1   1689  GNP1689     0.2531
     30  N2        -6.9140   21.3730   44.8800 N.pl3 1689  GNP1689    -0.0226
     31  N3        -5.9930   22.6440   43.1810 N.2   1689  GNP1689    -0.3074
     32  C4        -6.2500   23.6570   42.3120 C.2   1689  GNP1689     0.2300
@<TRIPOS>BOND
     1     2     1    2
     2    11    10    2
     3     8     6    2
     4    12    10    1
     5     1     4    1
     6     1     3    1
     7     1     5    1
     8    10    13    1
     9    10     9    1
    10     5     6    1
    11     6     9    1
    12     6     7    1
    13    13    14    1
    14    20    19    1
    15    17    19    1
    16    17    18    1
    17    17    15    1
    18    19    21    1
    19    14    15    1
    20    15    16    1
    21    23    24    1
    22    23    22    1
    23    21    22    1
    24    21    16    1
    25    24    25    2
    26    22    32    1
    27    25    32    1
    28    25    26    1
    29    32    31    2
    30    26    27    2
    31    26    28    2
    32    31    29    2
    33    28    29    2
    34    29    30    1
