@<TRIPOS>MOLECULE
2bv4_MMA_A_1.pdb
 13 13 0 0 0
SMALL
GASTEIGER

@<TRIPOS>ATOM
      1  C1         4.9120   10.5980   -3.1590 C.3   400  MMA400      0.2695
      2  C2         6.1880    9.8340   -2.9310 C.3   400  MMA400      0.2406
      3  C3         5.8520    8.4860   -2.2890 C.3   400  MMA400      0.2198
      4  C4         4.9470    8.6860   -1.0610 C.3   400  MMA400      0.2144
      5  C5         3.6830    9.4300   -1.5330 C.3   400  MMA400      0.1835
      6  C6         2.6650    9.7520   -0.4460 C.3   400  MMA400      0.2142
      7  C7         3.1480   10.8250   -4.7080 C.3   400  MMA400      0.1769
      8  O1         4.2840   10.0750   -4.2600 O.3   400  MMA400     -0.3259
      9  O2         7.0630   10.5050   -2.0260 O.3   400  MMA400     -0.2149
     10  O3         7.0450    7.7960   -1.9030 O.3   400  MMA400     -0.2174
     11  O4         4.6840    7.3890   -0.5330 O.3   400  MMA400     -0.2176
     12  O5         4.1210   10.7250   -2.0210 O.3   400  MMA400     -0.3256
     13  O6         1.4550   10.1800   -1.1350 O.3   400  MMA400     -0.2176
@<TRIPOS>BOND
     1     7     8    1
     2     8     1    1
     3     1     2    1
     4     1    12    1
     5     2     3    1
     6     2     9    1
     7     3    10    1
     8     3     4    1
     9    12     5    1
    10     5     4    1
    11     5     6    1
    12    13     6    1
    13     4    11    1
