@<TRIPOS>MOLECULE
2bv7_GM3_A_1.pdb
 44 44 0 0 0
SMALL
GASTEIGER

@<TRIPOS>ATOM
      1  OBB        2.2930  -13.3220   16.4060 O.3   1212  GM31212    -0.2212
      2  CBA        2.8580  -12.1060   15.9030 C.3   1212  GM31212     0.1743
      3  CBC        4.3710  -12.2310   15.8690 C.3   1212  GM31212     0.0348
      4  CBD        4.7980  -12.5480   14.4510 C.3   1212  GM31212     0.0027
      5  CBE        5.7300  -13.7540   14.4190 C.3   1212  GM31212     0.0001
      6  CBF        4.9690  -15.0700   14.5110 C.3   1212  GM31212     0.0000
      7  CBG        5.3120  -15.9260   13.3130 C.3   1212  GM31212     0.0000
      8  CAY        2.4170  -10.9230   16.7580 C.3   1212  GM31212     0.1550
      9  CAX        0.8880  -10.8030   16.8480 C.3   1212  GM31212     0.1690
     10  OAD        0.3220  -10.0660   15.7540 O.3   1212  GM31212    -0.3266
     11  CAB       -1.0310  -10.4090   15.3950 C.3   1212  GM31212     0.2695
     12  CAO       -1.3670   -9.6870   14.0880 C.3   1212  GM31212     0.2406
     13  OAP       -0.2910   -8.7860   13.8160 O.3   1212  GM31212    -0.2149
     14  CAQ       -2.7660   -9.0670   14.0790 C.3   1212  GM31212     0.2198
     15  OAR       -3.1310   -8.8470   12.7140 O.3   1212  GM31212    -0.2174
     16  CAS       -3.7670  -10.0190   14.7390 C.3   1212  GM31212     0.2144
     17  O1        -5.1040   -9.4910   14.7390 O.3   1212  GM31212    -0.2176
     18  CAT       -3.3900  -10.2910   16.1900 C.3   1212  GM31212     0.1835
     19  CAV       -3.9400  -11.6310   16.6820 C.3   1212  GM31212     0.2142
     20  OAW       -4.3180  -11.4900   18.0550 O.3   1212  GM31212    -0.2176
     21  OAU       -1.9770  -10.1770   16.4500 O.3   1212  GM31212    -0.3256
     22  NAZ        2.9460   -9.7790   16.0210 N.am  1212  GM31212    -0.2020
     23  CBR        3.7350   -8.9510   16.5560 C.2   1212  GM31212     0.2415
     24  OBT        4.0570   -9.0880   17.8230 O.2   1212  GM31212    -0.2733
     25  CBS        4.2750   -7.7890   15.7360 C.3   1212  GM31212     0.0868
     26  CBU        5.5400   -8.2070   14.9880 C.3   1212  GM31212     0.0096
     27  CBV        6.3010   -7.0060   14.4310 C.3   1212  GM31212     0.0005
     28  CBW        7.8230   -7.1800   14.5470 C.3   1212  GM31212     0.0000
     29  CBX        8.6050   -6.0190   13.9140 C.3   1212  GM31212     0.0000
     30  CBY       10.1110   -6.2800   13.8240 C.3   1212  GM31212     0.0000
     31  CBZ       10.8050   -5.2920   12.8840 C.3   1212  GM31212     0.0000
     32  CCA       12.2340   -5.6960   12.4910 C.3   1212  GM31212     0.0000
     33  CCB       13.1190   -4.4760   12.2110 C.3   1212  GM31212     0.0000
     34  CCC       14.0700   -4.6700   11.0260 C.3   1212  GM31212     0.0000
     35  CCD       14.5970   -3.3410   10.4840 C.3   1212  GM31212     0.0000
     36  CCE       13.8870   -2.9180    9.1980 C.3   1212  GM31212     0.0000
     37  CCF       14.5120   -1.6700    8.5860 C.3   1212  GM31212     0.0000
     38  CCG       13.6610   -0.4280    8.8270 C.3   1212  GM31212     0.0000
     39  CCH       13.6100    0.5290    7.6410 C.3   1212  GM31212     0.0000
     40  CCI       14.6750    1.6170    7.7150 C.3   1212  GM31212     0.0000
     41  CCJ       14.2210    2.8750    6.9760 C.3   1212  GM31212     0.0000
     42  CCK       15.4000    3.7410    6.5570 C.3   1212  GM31212     0.0000
     43  CCL       14.9420    5.1090    6.0610 C.3   1212  GM31212     0.0000
     44  CCM       16.1310    5.9850    5.7320 C.3   1212  GM31212     0.0000
@<TRIPOS>BOND
     1    44    43    1
     2    43    42    1
     3    42    41    1
     4    41    40    1
     5    39    40    1
     6    39    38    1
     7    37    38    1
     8    37    36    1
     9    36    35    1
    10    35    34    1
    11    34    33    1
    12    33    32    1
    13    32    31    1
    14    15    14    1
    15    31    30    1
    16     7     6    1
    17    13    12    1
    18    30    29    1
    19    29    28    1
    20    14    12    1
    21    14    16    1
    22    12    11    1
    23     5     4    1
    24     5     6    1
    25    27    28    1
    26    27    26    1
    27     4     3    1
    28    17    16    1
    29    16    18    1
    30    26    25    1
    31    11    10    1
    32    11    21    1
    33    25    23    1
    34    10     9    1
    35     3     2    1
    36     2     1    1
    37     2     8    1
    38    22    23   am
    39    22     8    1
    40    18    21    1
    41    18    19    1
    42    23    24    2
    43    19    20    1
    44     8     9    1
