@<TRIPOS>MOLECULE
2bv8_PEB_B_1.pdb
 43 46 0 0 0
SMALL
GASTEIGER

@<TRIPOS>ATOM
      1  CHC       -8.1070   37.4980   62.8410 C.3   1175  PEB1175     0.1138
      2  NC        -8.6960   35.4880   61.8800 N.2   1175  PEB1175    -0.4104
      3  C1C       -9.7380   34.6940   61.5020 C.2   1175  PEB1175     0.1114
      4  C2C      -10.8560   35.2350   62.1100 C.2   1175  PEB1175     0.0024
      5  C3C      -10.5090   36.3230   62.7560 C.2   1175  PEB1175     0.0021
      6  C4C       -9.1440   36.5310   62.5190 C.2   1175  PEB1175     0.1111
      7  CMC      -11.5500   37.2320   63.6780 C.3   1175  PEB1175     0.0331
      8  CAC      -12.3290   34.7200   61.9660 C.3   1175  PEB1175     0.0402
      9  CBC      -12.4010   33.7890   63.1740 C.3   1175  PEB1175     0.1188
     10  CGC      -13.4490   32.7610   62.9380 C.2   1175  PEB1175     0.3652
     11  O1C      -13.5270   32.2510   61.7570 O.co2 1175  PEB1175    -0.2456
     12  O2C      -14.0470   32.4000   63.9670 O.co2 1175  PEB1175    -0.2456
     13  ND        -9.6290   39.4960   62.6160 N.2   1175  PEB1175    -0.3448
     14  C1D       -8.4450   38.8930   62.8850 C.2   1175  PEB1175     0.1070
     15  C2D       -7.6410   39.9410   63.4570 C.3   1175  PEB1175     0.0660
     16  C3D       -8.3870   41.0580   63.7090 C.3   1175  PEB1175     0.1246
     17  C4D       -9.6700   40.8200   63.1720 C.1   1175  PEB1175     0.1788
     18  CMD       -6.1650   39.8280   63.6460 C.3   1175  PEB1175     0.0083
     19  CAD       -7.9100   42.0530   64.8890 C.3   1175  PEB1175     0.0180
     20  CBD       -8.8430   43.1190   65.2040 C.3   1175  PEB1175     0.0012
     21  OD       -10.7690   41.4150   63.5560 O.2   1175  PEB1175    -0.2142
     22  NA        -4.5420   30.1690   58.9280 N.2   1175  PEB1175    -0.3448
     23  C1A       -3.5090   29.4510   58.5870 C.1   1175  PEB1175     0.1788
     24  C2A       -2.3590   30.3220   58.1100 C.3   1175  PEB1175     0.1246
     25  C3A       -2.8970   31.7530   58.5760 C.3   1175  PEB1175     0.0660
     26  C4A       -4.3280   31.4940   58.7360 C.2   1175  PEB1175     0.1070
     27  CMA       -1.0540   29.9740   58.7390 C.3   1175  PEB1175     0.0192
     28  CBA       -2.7630   34.0430   57.3920 C.3   1175  PEB1175     0.0005
     29  OA        -3.3800   28.2750   58.8420 O.2   1175  PEB1175    -0.2142
     30  CHA       -5.1730   32.4650   59.0580 C.3   1175  PEB1175     0.1138
     31  CAA       -2.5460   32.5480   57.3470 C.3   1175  PEB1175     0.0078
     32  NB        -7.3770   33.2820   59.8980 N.2   1175  PEB1175    -0.4104
     33  C1B       -6.6340   32.4720   59.0660 C.2   1175  PEB1175     0.1111
     34  C2B       -7.5980   31.5710   58.6320 C.2   1175  PEB1175     0.0021
     35  C3B       -8.8040   31.8560   59.1610 C.2   1175  PEB1175     0.0024
     36  C4B       -8.6610   32.9460   59.9820 C.2   1175  PEB1175     0.1114
     37  CHB       -9.6880   33.5440   60.6810 C.3   1175  PEB1175     0.1170
     38  CMB       -7.1650   30.4580   57.6110 C.3   1175  PEB1175     0.0331
     39  CAB      -10.2860   31.1160   59.0090 C.3   1175  PEB1175     0.0402
     40  CBB      -10.9130   31.3190   57.6250 C.3   1175  PEB1175     0.1188
     41  CGB      -11.3060   32.7340   57.3830 C.2   1175  PEB1175     0.3652
     42  O1B      -10.8610   33.1860   56.2690 O.co2 1175  PEB1175    -0.2456
     43  O2B      -11.9550   33.3880   58.2970 O.co2 1175  PEB1175    -0.2456
@<TRIPOS>BOND
     1    42    41   ar
     2    31    28    1
     3    31    25    1
     4    41    40    1
     5    41    43   ar
     6    38    34    1
     7    40    39    1
     8    24    25    1
     9    24    23    1
    10    24    27    1
    11    25    26    1
    12    23    29    2
    13    23    22    2
    14    34    33    1
    15    34    35    2
    16    26    22    2
    17    26    30    1
    18    39    35    1
    19    30    33    1
    20    33    32    2
    21    35    36    1
    22    32    36    2
    23    36    37    1
    24    37     3    1
    25     3     2    2
    26     3     4    1
    27    11    10   ar
    28     2     6    2
    29     8     4    1
    30     8     9    1
    31     4     5    2
    32     6     5    1
    33     6     1    1
    34    13    14    2
    35    13    17    2
    36     5     7    1
    37     1    14    1
    38    14    15    1
    39    10     9    1
    40    10    12   ar
    41    17    21    2
    42    17    16    1
    43    15    18    1
    44    15    16    1
    45    16    19    1
    46    19    20    1
