@<TRIPOS>MOLECULE
2bvc_P3S_A_1.pdb
 15 14 0 0 0
SMALL
GASTEIGER

@<TRIPOS>ATOM
      1  O3A      -22.5380   84.1620   22.0620 O.3   500  P3S500     -0.1237
      2  PA       -23.4500   82.9670   21.9820 P.3   500  P3S500      0.4896
      3  O1A      -22.9310   81.8260   21.1490 O.2   500  P3S500     -0.2328
      4  O2A      -24.8810   83.3480   21.6580 O.3   500  P3S500     -0.1237
      5  NE       -23.5070   82.2620   23.5100 N.3   500  P3S500     -0.0523
      6  SD       -23.2510   83.0150   24.8280 S.3   500  P3S500      0.0022
      7  OE       -23.9890   84.2390   25.1210 O.3   500  P3S500     -0.1552
      8  CE       -21.5220   83.3580   24.8960 C.3   500  P3S500      0.0974
      9  CG       -23.5290   81.8890   26.1960 C.3   500  P3S500      0.0859
     10  CB       -24.9770   81.4160   26.3090 C.3   500  P3S500      0.0443
     11  CA       -25.2060   80.5410   27.5400 C.3   500  P3S500      0.1953
     12  N        -24.3280   79.3830   27.4840 N.3   500  P3S500     -0.1208
     13  C        -26.6310   80.0520   27.5980 C.2   500  P3S500      0.3819
     14  OT       -27.4790   80.4810   26.7840 O.co2 500  P3S500     -0.2441
     15  O        -26.9200   79.2110   28.4720 O.co2 500  P3S500     -0.2441
@<TRIPOS>BOND
     1     3     2    2
     2     4     2    1
     3     2     1    1
     4     2     5    1
     5     5     6    1
     6     6     8    1
     7     6     7    1
     8     6     9    1
     9     9    10    1
    10    10    11    1
    11    14    13   ar
    12    12    11    1
    13    11    13    1
    14    13    15   ar
