@<TRIPOS>MOLECULE
2bvc_ADP_A_1.pdb
 27 29 0 0 0
SMALL
GASTEIGER

@<TRIPOS>ATOM
      1  PB       -24.3980   84.1660   18.1350 P.3   501  ADP501      0.5373
      2  O1B      -23.9930   85.5790   17.8260 O.2   501  ADP501     -0.2221
      3  O2B      -25.8100   84.0410   18.6550 O.3   501  ADP501     -0.1143
      4  O3B      -23.3550   83.4190   18.9380 O.3   501  ADP501     -0.1143
      5  PA       -23.6590   82.1930   16.0870 P.3   501  ADP501      0.2231
      6  O1A      -23.1860   81.2470   17.1580 O.3   501  ADP501     -0.4370
      7  O2A      -22.6870   82.6630   15.0410 O.2   501  ADP501     -0.5169
      8  O3A      -24.4450   83.4930   16.6640 O.3   501  ADP501     -0.2261
      9  O5'      -24.8620   81.4300   15.3210 O.3   501  ADP501     -0.3111
     10  C5'      -25.7340   82.1080   14.4100 C.3   501  ADP501      0.1813
     11  C4'      -26.5950   81.0900   13.6530 C.3   501  ADP501      0.1821
     12  O4'      -27.6800   81.7240   12.9570 O.3   501  ADP501     -0.3135
     13  C3'      -25.7910   80.3470   12.5950 C.3   501  ADP501      0.2184
     14  O3'      -26.1820   78.9660   12.6050 O.3   501  ADP501     -0.2174
     15  C2'      -26.2180   80.9880   11.2930 C.3   501  ADP501      0.2570
     16  O2'      -26.0700   80.1050   10.1850 O.3   501  ADP501     -0.2130
     17  C1'      -27.6750   81.2920   11.5890 C.3   501  ADP501      0.3186
     18  N9       -28.2720   82.2930   10.6710 N.pl3 501  ADP501     -0.1439
     19  C8       -27.6190   83.2290    9.9450 C.3   501  ADP501      0.3377
     20  N7       -28.4990   83.9670    9.2250 N.2   501  ADP501     -0.2095
     21  C5       -29.7360   83.4960    9.4860 C.2   501  ADP501      0.2526
     22  C6       -31.1110   83.8250    9.0540 C.2   501  ADP501      0.4393
     23  N6       -31.3160   84.8330    8.1770 N.pl3 501  ADP501      0.2180
     24  N1       -32.1320   83.0920    9.5680 N.2   501  ADP501      0.0021
     25  C2       -31.9280   82.0870   10.4540 C.3   501  ADP501      0.5254
     26  N3       -30.7010   81.7300   10.8810 N.2   501  ADP501     -0.0055
     27  C4       -29.5890   82.3930   10.4420 C.2   501  ADP501      0.3518
@<TRIPOS>BOND
     1    23    22    1
     2    22    21    1
     3    22    24    2
     4    20    21    2
     5    20    19    1
     6    21    27    1
     7    24    25    1
     8    19    18    1
     9    16    15    1
    10    27    18    1
    11    27    26    2
    12    25    26    1
    13    18    17    1
    14    15    17    1
    15    15    13    1
    16    17    12    1
    17    13    14    1
    18    13    11    1
    19    12    11    1
    20    11    10    1
    21    10     9    1
    22     7     5    2
    23     9     5    1
    24     5     8    1
    25     5     6    1
    26     8     1    1
    27     2     1    2
    28     1     3    1
    29     1     4    1
