@<TRIPOS>MOLECULE
2bvd_ISX_A_1.pdb
 21 22 0 0 0
SMALL
GASTEIGER

@<TRIPOS>ATOM
      1  O6        15.1490   34.6620   17.1450 O.3   1284  ISX1284    -0.2203
      2  C5        19.2110   34.2660   14.6220 C.3   1284  ISX1284     0.1208
      3  N5        17.9550   33.9880   13.9340 N.3   1284  ISX1284    -0.2152
      4  C4        19.2900   33.6050   16.0020 C.3   1284  ISX1284     0.1654
      5  O4        20.3500   34.2280   16.7430 O.3   1284  ISX1284    -0.3269
      6  C3        18.0160   33.7770   16.8180 C.3   1284  ISX1284     0.1843
      7  O3        18.1490   33.0370   18.0430 O.3   1284  ISX1284    -0.2204
      8  C2        16.8190   33.3150   15.9790 C.3   1284  ISX1284     0.0833
      9  C1        16.7150   34.1390   14.6970 C.3   1284  ISX1284     0.0940
     10  C1A       21.5980   33.5810   16.5500 C.3   1284  ISX1284     0.2695
     11  C2A       22.6950   34.5650   16.9460 C.3   1284  ISX1284     0.2406
     12  O2A       22.7420   35.6760   16.0370 O.3   1284  ISX1284    -0.2149
     13  C3A       24.0590   33.8810   17.0400 C.3   1284  ISX1284     0.2198
     14  O3A       25.0090   34.8100   17.5730 O.3   1284  ISX1284    -0.2174
     15  C4A       23.9870   32.6220   17.9080 C.3   1284  ISX1284     0.2144
     16  O4A       25.2500   31.9450   17.9170 O.3   1284  ISX1284    -0.2176
     17  C5A       22.8810   31.7170   17.3480 C.3   1284  ISX1284     0.1835
     18  C6        15.4840   33.3330   16.7320 C.3   1284  ISX1284     0.1861
     19  C6A       22.7020   30.4370   18.1490 C.3   1284  ISX1284     0.2142
     20  O6A       22.1780   30.7760   19.4390 O.3   1284  ISX1284    -0.2176
     21  O5A       21.6580   32.4420   17.4130 O.3   1284  ISX1284    -0.3256
@<TRIPOS>BOND
     1     3     2    1
     2     3     9    1
     3     2     4    1
     4     9     8    1
     5     8    18    1
     6     8     6    1
     7     4     5    1
     8     4     6    1
     9    12    11    1
    10    10     5    1
    11    10    11    1
    12    10    21    1
    13    18     1    1
    14     6     7    1
    15    11    13    1
    16    13    14    1
    17    13    15    1
    18    17    21    1
    19    17    15    1
    20    17    19    1
    21    15    16    1
    22    19    20    1
