@<TRIPOS>MOLECULE
2bve_PH5_A_1.pdb
 29 30 0 0 0
SMALL
GASTEIGER

@<TRIPOS>ATOM
      1  C1        17.8590   37.1130   32.5300 C.2   1120  PH51120     0.4152
      2  O1A       17.1840   36.3220   33.2010 O.co2 1120  PH51120    -0.2402
      3  O1B       17.3780   37.7710   31.5780 O.co2 1120  PH51120    -0.2402
      4  C2        19.3200   37.3530   32.9260 C.3   1120  PH51120     0.2865
      5  O2        19.3510   38.2810   33.9730 O.3   1120  PH51120    -0.3211
      6  C3        19.9580   36.0470   33.4070 C.3   1120  PH51120     0.1028
      7  C4        20.1770   35.0480   32.2650 C.3   1120  PH51120     0.1797
      8  O4        20.9260   33.9270   32.7230 O.3   1120  PH51120    -0.2210
      9  C5        20.8920   35.6910   31.0670 C.3   1120  PH51120     0.1554
     10  N5        20.9190   34.7010   29.9990 N.am  1120  PH51120    -0.2020
     11  C10       22.0150   34.4880   29.2770 C.2   1120  PH51120     0.2415
     12  O10       23.0560   35.1240   29.4070 O.2   1120  PH51120    -0.2733
     13  C11       21.9150   33.3980   28.2480 C.3   1120  PH51120     0.0868
     14  C12       22.6490   32.1830   28.7540 C.3   1120  PH51120     0.0101
     15  C6        20.1050   36.9410   30.6540 C.3   1120  PH51120     0.1733
     16  O6        20.0020   37.8480   31.7750 O.3   1120  PH51120    -0.3239
     17  C7        20.7380   37.6900   29.4630 C.3   1120  PH51120     0.2135
     18  O7        22.0820   38.0230   29.7610 O.3   1120  PH51120    -0.2176
     19  C8        19.9620   38.9890   29.1780 C.3   1120  PH51120     0.2173
     20  O8        18.5670   38.7400   29.2430 O.3   1120  PH51120    -0.2175
     21  C9        20.3340   39.5340   27.7920 C.3   1120  PH51120     0.2175
     22  O9        19.7820   40.8290   27.6030 O.3   1120  PH51120    -0.2175
     23  CB        19.1610   39.6180   33.5930 C.3   1120  PH51120     0.1716
     24  CG        19.6840   40.6000   34.5920 C.ar  1120  PH51120     0.0074
     25  CD1       18.8780   41.0380   35.6440 C.ar  1120  PH51120    -0.0019
     26  CD2       20.9740   41.0830   34.4870 C.ar  1120  PH51120    -0.0019
     27  CE1       19.3510   41.9490   36.5730 C.ar  1120  PH51120    -0.0002
     28  CE2       21.4660   41.9960   35.4080 C.ar  1120  PH51120    -0.0002
     29  CZ        20.6560   42.4350   36.4580 C.ar  1120  PH51120    -0.0000
@<TRIPOS>BOND
     1    22    21    1
     2    21    19    1
     3    13    14    1
     4    13    11    1
     5    19    20    1
     6    19    17    1
     7    11    12    2
     8    11    10   am
     9    17    18    1
    10    17    15    1
    11    10     9    1
    12    15     9    1
    13    15    16    1
    14     9     7    1
    15     3     1   ar
    16    16     4    1
    17     7     8    1
    18     7     6    1
    19     1     4    1
    20     1     2   ar
    21     4     6    1
    22     4     5    1
    23    23     5    1
    24    23    24    1
    25    26    24   ar
    26    26    28   ar
    27    24    25   ar
    28    28    29   ar
    29    25    27   ar
    30    29    27   ar
