@<TRIPOS>MOLECULE
2bvj_HEM_A_1.pdb
 43 50 0 0 0
SMALL
GASTEIGER

@<TRIPOS>ATOM
      1 FE         19.7190    2.3060   44.4520 Fe    1408  HEM1408     0.0000
      2  CHA       22.9690    1.3080   44.8580 C.2   1408  HEM1408     0.0000
      3  CHB       19.8290    1.4470   41.1720 C.2   1408  HEM1408     0.0000
      4  CHC       16.3700    3.0550   44.1480 C.2   1408  HEM1408     0.0000
      5  CHD       19.6490    3.3410   47.6990 C.2   1408  HEM1408     0.0000
      6  NA        21.1230    1.5730   43.2710 N.ar  1408  HEM1408     0.0000
      7  C1A       22.4000    1.1780   43.5840 C.ar  1408  HEM1408     0.0000
      8  C2A       23.0720    0.6090   42.4330 C.ar  1408  HEM1408     0.0000
      9  C3A       22.1840    0.6520   41.4100 C.ar  1408  HEM1408     0.0000
     10  C4A       20.9930    1.2550   41.9230 C.ar  1408  HEM1408     0.0000
     11  CMA       22.3920    0.1700   39.9690 C.3   1408  HEM1408     0.0000
     12  CAA       24.5160    0.0870   42.3900 C.3   1408  HEM1408     0.0000
     13  CBA       25.3840    0.8750   41.4210 C.3   1408  HEM1408     0.0000
     14  CGA       26.8250    0.4060   41.4010 C.2   1408  HEM1408     0.0000
     15  O1A       27.0700   -0.8000   41.6470 O.co2 1408  HEM1408     0.0000
     16  O2A       27.7140    1.2450   41.1200 O.co2 1408  HEM1408     0.0000
     17  NB        18.3940    2.3120   42.9520 N.2   1408  HEM1408     0.0000
     18  C1B       18.6210    1.9430   41.6500 C.2   1408  HEM1408     0.0000
     19  C2B       17.4100    2.0210   40.8600 C.2   1408  HEM1408     0.0000
     20  C3B       16.4280    2.5120   41.6800 C.2   1408  HEM1408     0.0000
     21  C4B       17.0440    2.6220   43.0010 C.2   1408  HEM1408     0.0000
     22  CMB       17.2560    1.5070   39.4290 C.3   1408  HEM1408     0.0000
     23  CAB       15.2230    3.1150   41.3170 C.3   1408  HEM1408     0.0000
     24  CBB       14.0720    2.4470   40.7980 C.3   1408  HEM1408     0.0000
     25  NC        18.3170    2.9920   45.6710 N.ar  1408  HEM1408     0.0000
     26  C1C       16.9670    3.2250   45.3960 C.ar  1408  HEM1408     0.0000
     27  C2C       16.2540    3.6720   46.5910 C.ar  1408  HEM1408     0.0000
     28  C3C       17.1650    3.7530   47.5890 C.ar  1408  HEM1408     0.0000
     29  C4C       18.4570    3.3620   47.0110 C.ar  1408  HEM1408     0.0000
     30  CMC       14.7600    3.9100   46.7710 C.3   1408  HEM1408     0.0000
     31  CAC       16.8430    4.1100   48.8930 C.3   1408  HEM1408     0.0000
     32  CBC       17.1910    3.3260   50.0680 C.3   1408  HEM1408     0.0000
     33  ND        21.0550    2.3780   45.9440 N.2   1408  HEM1408     0.0000
     34  C1D       20.8660    2.8980   47.2030 C.2   1408  HEM1408     0.0000
     35  C2D       22.0500    2.7500   48.0160 C.2   1408  HEM1408     0.0000
     36  C3D       22.9420    2.0920   47.2580 C.2   1408  HEM1408     0.0000
     37  C4D       22.3360    1.8920   45.9610 C.2   1408  HEM1408     0.0000
     38  CMD       22.2220    3.2520   49.4460 C.3   1408  HEM1408     0.0000
     39  CAD       24.2930    1.5900   47.6990 C.3   1408  HEM1408     0.0000
     40  CBD       24.2720    0.0760   47.8790 C.3   1408  HEM1408     0.0000
     41  CGD       25.5940   -0.4590   48.3570 C.2   1408  HEM1408     0.0000
     42  O1D       25.6040   -1.4830   49.0780 O.co2 1408  HEM1408     0.0000
     43  O2D       26.6300    0.1450   47.9970 O.co2 1408  HEM1408     0.0000
@<TRIPOS>BOND
     1    22    19    1
     2    11     9    1
     3    24    23    1
     4    19    18    1
     5    19    20    2
     6    16    14   ar
     7     3    18    1
     8     3    10    2
     9    23    20    1
    10    14    13    1
    11    14    15   ar
    12     9    10   ar
    13     9     8   ar
    14    13    12    1
    15    18    17    2
    16    20    21    1
    17    10     6   ar
    18    12     8    1
    19     8     7   ar
    20    17    21    1
    21    17     1    1
    22    21     4    2
    23     6     7   ar
    24     6     1    1
    25     7     2    2
    26     4    26    1
    27     1    25    1
    28     1    33    1
    29     2    37    1
    30    26    25   ar
    31    26    27   ar
    32    25    29   ar
    33    33    37    2
    34    33    34    1
    35    37    36    1
    36    27    30    1
    37    27    28   ar
    38    29    28   ar
    39    29     5    1
    40    34     5    2
    41    34    35    1
    42    36    39    1
    43    36    35    2
    44    28    31    1
    45    39    40    1
    46    40    41    1
    47    43    41   ar
    48    35    38    1
    49    41    42   ar
    50    31    32    1
