@<TRIPOS>MOLECULE
2bvl_GLC_A_1.pdb
 12 12 0 0 0
SMALL
GASTEIGER

@<TRIPOS>ATOM
      1  C1        14.9730   51.5110   -8.8500 C.3   1546  GLC1546     0.3024
      2  C2        13.6730   50.7570   -8.5030 C.3   1546  GLC1546     0.2434
      3  C3        13.2690   50.8320   -7.0320 C.3   1546  GLC1546     0.2199
      4  C4        14.4800   50.6310   -6.1450 C.3   1546  GLC1546     0.2144
      5  C5        15.4800   51.7250   -6.5050 C.3   1546  GLC1546     0.1836
      6  C6        16.6740   51.7820   -5.5740 C.3   1546  GLC1546     0.2142
      7  O1        14.6500   52.8480   -9.1130 O.3   1546  GLC1546    -0.1869
      8  O2        12.6260   51.3720   -9.1940 O.3   1546  GLC1546    -0.2148
      9  O3        12.2430   49.9170   -6.6970 O.3   1546  GLC1546    -0.2174
     10  O4        14.0090   50.7510   -4.8220 O.3   1546  GLC1546    -0.2176
     11  O5        15.9590   51.5150   -7.8220 O.3   1546  GLC1546    -0.3236
     12  O6        17.3660   50.5830   -5.7140 O.3   1546  GLC1546    -0.2176
@<TRIPOS>BOND
     1     8     2    1
     2     7     1    1
     3     1     2    1
     4     1    11    1
     5     2     3    1
     6    11     5    1
     7     3     9    1
     8     3     4    1
     9     5     4    1
    10     5     6    1
    11     4    10    1
    12    12     6    1
