@<TRIPOS>MOLECULE
2bvl_TBR_A_1.pdb
 18 19 0 0 0
SMALL
GASTEIGER

@<TRIPOS>ATOM
      1 TA1        35.2250    6.6510  -16.6670 Ta    1548  TBR1548     0.0000
      2 TA5        33.8190    8.1700  -18.6700 Ta    1548  TBR1548     0.0000
      3 TA6        36.2480    6.8240  -19.3550 Ta    1548  TBR1548     0.0000
      4 BR1        34.4200    7.8650  -14.4620 Br    1548  TBR1548     0.0000
      5 BR2        37.4430    6.2290  -15.2900 Br    1548  TBR1548     0.0000
      6 BR3        32.6620    6.2540  -17.2770 Br    1548  TBR1548     0.0000
      7 BR4        35.7220    4.5030  -18.1780 Br    1548  TBR1548     0.0000
      8 BR5        37.4450    9.9710  -15.1470 Br    1548  TBR1548     0.0000
      9 BR6        32.5960    9.8510  -17.0090 Br    1548  TBR1548     0.0000
     10 BR7        33.9650   10.1110  -20.4680 Br    1548  TBR1548     0.0000
     11 BR8        37.0200    8.4820  -21.2910 Br    1548  TBR1548     0.0000
     12 BR9        38.7580   10.0600  -18.4940 Br    1548  TBR1548     0.0000
     13 BRA        35.5850   11.8390  -17.5850 Br    1548  TBR1548     0.0000
     14 BRB        33.9680    6.4430  -20.6800 Br    1548  TBR1548     0.0000
     15 BRC        38.8040    6.5040  -18.7520 Br    1548  TBR1548     0.0000
     16 TA2        35.1720    9.4780  -16.4400 Ta    1548  TBR1548     0.0000
     17 TA3        37.5330    8.1610  -17.0960 Ta    1548  TBR1548     0.0000
     18 TA4        36.1930    9.7440  -19.0970 Ta    1548  TBR1548     0.0000
@<TRIPOS>BOND
     1    11    18    1
     2    14     2    1
     3    10    18    1
     4     3    15    1
     5     3     2    1
     6     3     7    1
     7     3    17    1
     8    18     2    1
     9    18    12    1
    10    18    13    1
    11    18    16    1
    12     2     6    1
    13     2     9    1
    14    17     1    1
    15    17    16    1
    16     1    16    1
    17     1     5    1
    18     1     4    1
    19    16     8    1
