@<TRIPOS>MOLECULE
2bvl_UDP_A_1.pdb
 25 26 0 0 0
SMALL
GASTEIGER

@<TRIPOS>ATOM
      1  N1         8.5530   52.0800   -0.3500 N.am  1545  UDP1545    -0.1766
      2  C2         7.9290   51.7080    0.8530 C.1   1545  UDP1545     0.2845
      3  N3         7.5150   52.7120    1.7690 N.2   1545  UDP1545    -0.2452
      4  C4         7.7390   54.0660    1.4570 C.1   1545  UDP1545     0.2182
      5  C5         8.3610   54.4300    0.2570 C.2   1545  UDP1545     0.1242
      6  C6         8.7780   53.4510   -0.6400 C.2   1545  UDP1545     0.0929
      7  O2         7.7600   50.5080    1.0850 O.2   1545  UDP1545    -0.1918
      8  O4         7.3820   54.9440    2.2430 O.2   1545  UDP1545    -0.2085
      9  C1'        8.9940   50.9970   -1.2680 C.3   1545  UDP1545     0.2401
     10  C2'        7.8670   50.4460   -2.1230 C.3   1545  UDP1545     0.2319
     11  O2'        8.0730   49.0190   -2.2630 O.3   1545  UDP1545    -0.2157
     12  C3'        8.1370   51.1710   -3.4210 C.3   1545  UDP1545     0.2158
     13  C4'        9.6700   51.0560   -3.5040 C.3   1545  UDP1545     0.1799
     14  O4'       10.0490   51.4770   -2.1820 O.3   1545  UDP1545    -0.3320
     15  O3'        7.5250   50.4690   -4.4760 O.3   1545  UDP1545    -0.2175
     16  C5'       10.3510   51.9700   -4.5380 C.3   1545  UDP1545     0.1813
     17  O5'        9.7430   53.2980   -4.5470 O.3   1545  UDP1545    -0.3111
     18  PA         9.7700   54.2130   -5.8230 P.3   1545  UDP1545     0.2231
     19  O1A        9.1500   53.5560   -6.9760 O.2   1545  UDP1545    -0.5169
     20  O2A        9.3600   55.5460   -5.4030 O.3   1545  UDP1545    -0.4370
     21  O3A       11.4040   54.2130   -6.1230 O.3   1545  UDP1545    -0.2261
     22  PB        11.9940   54.5930   -7.5930 P.3   1545  UDP1545     0.5373
     23  O1B       13.6370   54.3760   -7.4130 O.3   1545  UDP1545    -0.1143
     24  O2B       11.7480   56.0960   -7.8450 O.3   1545  UDP1545    -0.1143
     25  O3B       11.4630   53.7930   -8.7530 O.2   1545  UDP1545    -0.2221
@<TRIPOS>BOND
     1    25    22    2
     2    24    22    1
     3    22    23    1
     4    22    21    1
     5    19    18    2
     6    21    18    1
     7    18    20    1
     8    18    17    1
     9    17    16    1
    10    16    13    1
    11    15    12    1
    12    13    12    1
    13    13    14    1
    14    12    10    1
    15    11    10    1
    16    14     9    1
    17    10     9    1
    18     9     1    1
    19     6     1    1
    20     6     5    2
    21     1     2   am
    22     5     4    1
    23     2     7    2
    24     2     3    2
    25     4     3    2
    26     4     8    2
