@<TRIPOS>MOLECULE
2bvm_GLC_A_1.pdb
 12 12 0 0 0
SMALL
GASTEIGER

@<TRIPOS>ATOM
      1  C1        17.2440   -3.4110   48.1640 C.3   1544  GLC1544     0.3024
      2  C2        18.5950   -2.6840   48.4490 C.3   1544  GLC1544     0.2434
      3  C3        18.9840   -2.5250   49.9300 C.3   1544  GLC1544     0.2199
      4  C4        17.7920   -2.5220   50.8940 C.3   1544  GLC1544     0.2144
      5  C5        16.8060   -3.6460   50.5600 C.3   1544  GLC1544     0.1836
      6  C6        15.5580   -3.6420   51.4310 C.3   1544  GLC1544     0.2142
      7  O1        17.4140   -4.6980   47.5900 O.3   1544  GLC1544    -0.1869
      8  O2        19.6680   -3.2970   47.7570 O.3   1544  GLC1544    -0.2148
      9  O3        19.7210   -1.3220   50.0630 O.3   1544  GLC1544    -0.2174
     10  O4        18.2650   -2.6260   52.2190 O.3   1544  GLC1544    -0.2176
     11  O5        16.3110   -3.4980   49.2500 O.3   1544  GLC1544    -0.3236
     12  O6        14.8770   -2.4360   51.2200 O.3   1544  GLC1544    -0.2176
@<TRIPOS>BOND
     1     7     1    1
     2     8     2    1
     3     1     2    1
     4     1    11    1
     5     2     3    1
     6    11     5    1
     7     3     9    1
     8     3     4    1
     9     5     4    1
    10     5     6    1
    11     4    10    1
    12    12     6    1
