@<TRIPOS>MOLECULE
2bvm_UDP_A_1.pdb
 25 26 0 0 0
SMALL
GASTEIGER

@<TRIPOS>ATOM
      1  N1        23.9020   -3.5640   56.2780 N.am  1543  UDP1543    -0.1766
      2  C2        24.5950   -3.1520   57.4360 C.1   1543  UDP1543     0.2845
      3  N3        25.0970   -4.1150   58.3090 N.2   1543  UDP1543    -0.2452
      4  C4        24.9130   -5.4790   58.0290 C.1   1543  UDP1543     0.2182
      5  C5        24.2320   -5.8940   56.8900 C.2   1543  UDP1543     0.1242
      6  C6        23.7230   -4.9340   56.0200 C.2   1543  UDP1543     0.0929
      7  O2        24.7620   -1.9550   57.6890 O.2   1543  UDP1543    -0.1918
      8  O4        25.3680   -6.3140   58.8140 O.2   1543  UDP1543    -0.2085
      9  C1'       23.3510   -2.5350   55.3550 C.3   1543  UDP1543     0.2401
     10  C2'       24.4550   -2.0010   54.4410 C.3   1543  UDP1543     0.2319
     11  O2'       24.2430   -0.5870   54.2980 O.3   1543  UDP1543    -0.2157
     12  C3'       24.1320   -2.7050   53.1420 C.3   1543  UDP1543     0.2158
     13  C4'       22.6080   -2.5890   53.1550 C.3   1543  UDP1543     0.1799
     14  O4'       22.2950   -3.0510   54.4880 O.3   1543  UDP1543    -0.3320
     15  O3'       24.6560   -1.9820   52.0480 O.3   1543  UDP1543    -0.2175
     16  C5'       22.0010   -3.5130   52.1160 C.3   1543  UDP1543     0.1813
     17  O5'       22.6380   -4.7700   52.1660 O.3   1543  UDP1543    -0.3111
     18  PA        22.5870   -5.7670   50.9050 P.3   1543  UDP1543     0.2231
     19  O1A       23.2240   -5.1650   49.7230 O.2   1543  UDP1543    -0.5169
     20  O2A       23.0430   -7.0900   51.3590 O.3   1543  UDP1543    -0.4370
     21  O3A       20.9890   -5.8280   50.6650 O.3   1543  UDP1543    -0.2261
     22  PB        20.4370   -6.3130   49.1960 P.3   1543  UDP1543     0.5373
     23  O1B       18.8460   -6.1790   49.2950 O.3   1543  UDP1543    -0.1143
     24  O2B       20.7410   -7.8780   48.9980 O.3   1543  UDP1543    -0.1143
     25  O3B       20.9830   -5.5160   48.0630 O.2   1543  UDP1543    -0.2221
@<TRIPOS>BOND
     1    25    22    2
     2    24    22    1
     3    22    23    1
     4    22    21    1
     5    19    18    2
     6    21    18    1
     7    18    20    1
     8    18    17    1
     9    15    12    1
    10    16    17    1
    11    16    13    1
    12    12    13    1
    13    12    10    1
    14    13    14    1
    15    11    10    1
    16    10     9    1
    17    14     9    1
    18     9     1    1
    19     6     1    1
    20     6     5    2
    21     1     2   am
    22     5     4    1
    23     2     7    2
    24     2     3    2
    25     4     3    2
    26     4     8    2
