@<TRIPOS>MOLECULE
2bvn_ENX_A_1.pdb
 47 47 0 0 0
SMALL
GASTEIGER

@<TRIPOS>ATOM
      1  C1        26.1060   77.8760   55.9530 C.3   1396  ENX1396     0.0050
      2  C2        27.4390   78.3350   55.4300 C.3   1396  ENX1396     0.0258
      3  C3        28.0140   79.4050   56.2790 C.2   1396  ENX1396    -0.0271
      4  C4        29.2350   79.9270   56.0920 C.2   1396  ENX1396     0.0135
      5  C5        29.8070   81.0050   56.9770 C.3   1396  ENX1396     0.2097
      6  C6        31.0570   81.7010   56.3610 C.3   1396  ENX1396     0.1548
      7  C7        31.6330   82.7730   57.3130 C.3   1396  ENX1396     0.1782
      8  C8        32.8630   83.4770   56.7400 C.3   1396  ENX1396     0.1015
      9  C9        33.5640   84.3740   57.7290 C.2   1396  ENX1396     0.1859
     10  C10       34.7230   85.2480   57.1920 C.3   1396  ENX1396     0.2391
     11  C11       35.6990   84.3700   56.3610 C.3   1396  ENX1396     0.1941
     12  C12       36.7960   85.1730   55.6170 C.3   1396  ENX1396     0.0665
     13  C13       37.7040   84.2240   54.8680 C.2   1396  ENX1396     0.0376
     14  C14       39.0080   84.0890   55.2040 C.2   1396  ENX1396     0.0071
     15  C15       39.9700   83.2020   54.5820 C.2   1396  ENX1396     0.0005
     16  C16       41.2540   83.1430   54.9790 C.2   1396  ENX1396    -0.0003
     17  C17       42.1930   82.2270   54.3730 C.2   1396  ENX1396    -0.0043
     18  C18       43.5030   82.0790   54.6710 C.2   1396  ENX1396    -0.0218
     19  C19       44.2340   81.0300   53.9520 C.2   1396  ENX1396    -0.0043
     20  C20       45.5540   80.7490   54.0540 C.2   1396  ENX1396    -0.0001
     21  C21       46.2430   79.9270   53.0860 C.2   1396  ENX1396     0.0066
     22  C22       47.5580   79.6200   53.1900 C.2   1396  ENX1396     0.0819
     23  C23       48.2140   78.6250   52.3170 C.2   1396  ENX1396     0.3414
     24  O24       47.3220   77.9950   51.4350 O.3   1396  ENX1396    -0.4465
     25  C25       47.7950   76.9830   50.4930 C.3   1396  ENX1396     0.1998
     26  C26       48.3980   77.7180   49.2740 C.3   1396  ENX1396     0.0575
     27  C27       47.3160   78.5230   48.5260 C.3   1396  ENX1396     0.1072
     28  C28       47.9060   79.2330   47.3320 C.2   1396  ENX1396     0.3644
     29  O29       30.1390   80.4480   58.2820 O.3   1396  ENX1396    -0.4303
     30 CL30       30.6350   82.3840   54.7970 Cl    1396  ENX1396    -0.1081
     31  O31       30.6150   83.7330   57.5810 O.3   1396  ENX1396    -0.2212
     32  O32       35.4320   85.8940   58.2490 O.3   1396  ENX1396    -0.2124
     33  O33       36.2590   83.4360   57.2870 O.3   1396  ENX1396    -0.2196
     34  C34       36.1820   86.1910   54.6350 C.3   1396  ENX1396     0.0083
     35 CL35       36.9890   83.3230   53.5860 Cl    1396  ENX1396    -0.0868
     36  C36       44.2320   82.8850   55.7050 C.3   1396  ENX1396     0.0310
     37  O37       49.4180   78.3120   52.2910 O.2   1396  ENX1396    -0.2449
     38  C38       46.6330   76.0670   50.0180 C.3   1396  ENX1396     0.1917
     39  C39       45.5380   76.8550   49.2730 C.3   1396  ENX1396     0.0372
     40  C40       46.1480   77.6070   48.0790 C.3   1396  ENX1396     0.0141
     41  O41       46.0140   75.3890   51.1040 O.3   1396  ENX1396    -0.2193
     42  C42       29.2690   80.6080   59.3730 C.2   1396  ENX1396     0.4413
     43  N43       29.7920   80.0830   60.5220 N.am  1396  ENX1396    -0.0475
     44  O44       28.1460   81.1630   59.2540 O.2   1396  ENX1396    -0.2227
     45  O45       33.2420   84.4330   58.9260 O.2   1396  ENX1396    -0.2932
     46  O46       48.0280   78.8460   46.1620 O.co2 1396  ENX1396    -0.2457
     47  O47       48.3730   80.4920   47.6100 O.co2 1396  ENX1396    -0.2457
@<TRIPOS>BOND
     1    46    28   ar
     2    28    47   ar
     3    28    27    1
     4    40    27    1
     5    40    39    1
     6    27    26    1
     7    39    38    1
     8    26    25    1
     9    38    25    1
    10    38    41    1
    11    25    24    1
    12    24    23    1
    13    37    23    2
    14    23    22    1
    15    21    22    2
    16    21    20    1
    17    35    13    1
    18    19    20    2
    19    19    18    1
    20    17    18    2
    21    17    16    1
    22    15    16    2
    23    15    14    1
    24    34    12    1
    25    18    36    1
    26    30     6    1
    27    13    14    2
    28    13    12    1
    29     2     1    1
    30     2     3    1
    31    12    11    1
    32     4     3    2
    33     4     5    1
    34    11    10    1
    35    11    33    1
    36     6     5    1
    37     6     7    1
    38     8     7    1
    39     8     9    1
    40     5    29    1
    41    10     9    1
    42    10    32    1
    43     7    31    1
    44     9    45    2
    45    29    42    1
    46    44    42    2
    47    42    43   am
