@<TRIPOS>MOLECULE
2bvn_GNP_A_1.pdb
 32 34 0 0 0
SMALL
GASTEIGER

@<TRIPOS>ATOM
      1  PG        38.3980   58.4970   58.1420 P.3   1394  GNP1394     0.4884
      2  O1G       37.1240   58.8990   58.8530 O.3   1394  GNP1394    -0.1240
      3  O2G       39.0630   59.7310   57.7150 O.3   1394  GNP1394    -0.1240
      4  O3G       37.9880   57.4920   57.0980 O.2   1394  GNP1394    -0.2331
      5  N3B       39.3550   57.7620   59.3170 N.3   1394  GNP1394    -0.0163
      6  PB        39.5260   58.1790   60.8990 P.3   1394  GNP1394     0.4669
      7  O1B       40.4210   59.3830   61.0400 O.2   1394  GNP1394    -0.2351
      8  O2B       38.1710   58.3750   61.5510 O.3   1394  GNP1394    -0.1253
      9  O3A       40.2900   56.9180   61.5280 O.3   1394  GNP1394    -0.2360
     10  PA        39.7770   55.7510   62.4840 P.3   1394  GNP1394     0.2220
     11  O1A       39.3550   56.2790   63.8180 O.3   1394  GNP1394    -0.4370
     12  O2A       38.6990   54.9990   61.7530 O.2   1394  GNP1394    -0.5170
     13  O5'       41.1140   54.9060   62.6530 O.3   1394  GNP1394    -0.3111
     14  C5'       42.0120   54.6160   61.5710 C.3   1394  GNP1394     0.1813
     15  C4'       42.9150   53.4570   61.9370 C.3   1394  GNP1394     0.1799
     16  O4'       44.0430   53.7690   62.8230 O.3   1394  GNP1394    -0.3326
     17  C3'       42.2690   52.2290   62.6080 C.3   1394  GNP1394     0.2158
     18  O3'       42.8680   51.0060   62.1830 O.3   1394  GNP1394    -0.2175
     19  C2'       42.4700   52.4880   64.0870 C.3   1394  GNP1394     0.2310
     20  O2'       42.3950   51.3870   64.9580 O.3   1394  GNP1394    -0.2158
     21  C1'       43.8300   53.1650   64.0940 C.3   1394  GNP1394     0.2293
     22  N9        44.0360   54.0640   65.2410 N.pl3 1394  GNP1394    -0.2354
     23  C8        43.2280   55.0970   65.6940 C.3   1394  GNP1394     0.2246
     24  N7        43.7030   55.6990   66.7440 N.2   1394  GNP1394    -0.2322
     25  C5        44.8910   55.0410   67.0160 C.2   1394  GNP1394     0.2182
     26  C6        45.8740   55.2510   68.0640 C.1   1394  GNP1394     0.2372
     27  O6        45.8410   56.0910   68.9610 O.2   1394  GNP1394    -0.2069
     28  N1        46.9720   54.3480   67.9880 N.2   1394  GNP1394    -0.2485
     29  C2        47.1100   53.3560   67.0160 C.1   1394  GNP1394     0.2531
     30  N2        48.2040   52.5920   67.0870 N.pl3 1394  GNP1394    -0.0226
     31  N3        46.1850   53.1530   66.0280 N.2   1394  GNP1394    -0.3074
     32  C4        45.1160   54.0280   66.0930 C.2   1394  GNP1394     0.2300
@<TRIPOS>BOND
     1     4     1    2
     2     3     1    1
     3     1     2    1
     4     1     5    1
     5     5     6    1
     6     6     7    2
     7     6     9    1
     8     6     8    1
     9     9    10    1
    10    14    15    1
    11    14    13    1
    12    12    10    2
    13    15    17    1
    14    15    16    1
    15    18    17    1
    16    10    13    1
    17    10    11    1
    18    17    19    1
    19    16    21    1
    20    19    21    1
    21    19    20    1
    22    21    22    1
    23    22    23    1
    24    22    32    1
    25    23    24    1
    26    31    32    2
    27    31    29    2
    28    32    25    1
    29    24    25    2
    30    29    30    1
    31    29    28    2
    32    25    26    1
    33    28    26    2
    34    26    27    2
