@<TRIPOS>MOLECULE
2bvr_TYR_I_1.pdb
 16 16 0 0 0
SMALL
GASTEIGER

@<TRIPOS>ATOM
      1  N         12.7230    1.8910   40.1660 N.3    18  TYR18      -0.1241
      2  CA        12.1070    2.1700   38.8770 C.3    18  TYR18       0.1605
      3  CB        13.1780    2.2010   37.7890 C.3    18  TYR18       0.0534
      4  CG        14.1490    3.3520   37.9170 C.ar   18  TYR18      -0.0201
      5  CD1       13.7520    4.6600   37.6390 C.ar   18  TYR18      -0.0010
      6  CD2       15.4730    3.1330   38.2980 C.ar   18  TYR18      -0.0010
      7  CE1       14.6500    5.7200   37.7280 C.ar   18  TYR18       0.0395
      8  CE2       16.3790    4.1870   38.3920 C.ar   18  TYR18       0.0395
      9  CZ        15.9620    5.4760   38.1000 C.ar   18  TYR18       0.1715
     10  OH        16.8710    6.5090   38.1220 O.3    18  TYR18      -0.3592
     11  S         17.6850    6.7740   36.8460 S.3    18  TYR18       0.0425
     12  O1        18.5220    5.6580   36.3740 O.2    18  TYR18      -0.3360
     13  O2        16.7250    7.2530   35.8080 O.2    18  TYR18      -0.3360
     14  O3        18.5270    7.9450   37.2930 O.3    18  TYR18      -0.2589
     15  C         11.0550    1.1220   38.5370 C.2    18  TYR18       0.2264
     16  O         10.3530    1.2360   37.5350 O.2    18  TYR18      -0.2867
@<TRIPOS>BOND
     1    13    11    2
     2    12    11    2
     3    11    14    1
     4    11    10    1
     5    16    15    2
     6     5     7   ar
     7     5     4   ar
     8     7     9   ar
     9     3     4    1
    10     3     2    1
    11     4     6   ar
    12     9    10    1
    13     9     8   ar
    14     6     8   ar
    15    15     2    1
    16     2     1    1
