@<TRIPOS>MOLECULE
2bvr_4CP_H_1.pdb
 27 28 0 0 0
SMALL
GASTEIGER

@<TRIPOS>ATOM
      1  C1        16.4540   -9.5390   12.2240 C.ar  1246  4CP1246     0.0577
      2  C2        15.4440   -9.5710   13.2400 C.ar  1246  4CP1246     0.0119
      3  C3        15.4380  -10.6260   14.2120 C.ar  1246  4CP1246     0.0070
      4  C4        16.4460  -11.6510   14.1660 C.ar  1246  4CP1246     0.0257
      5  C5        17.4560  -11.6110   13.1400 C.ar  1246  4CP1246     0.0070
      6  C6        17.4600  -10.5590   12.1720 C.ar  1246  4CP1246     0.0119
      7 CL7        16.4640   -8.2810   11.0660 Cl    1246  4CP1246    -0.0822
      8  S8        16.4050  -12.9200   15.3700 S.3   1246  4CP1246    -0.1038
      9  C9        16.6940  -14.5870   14.7000 C.3   1246  4CP1246     0.1487
     10  C10       15.3890  -15.2740   14.3200 C.2   1246  4CP1246     0.2531
     11  O11       15.4540  -16.4010   13.8540 O.2   1246  4CP1246    -0.2724
     12  N12       14.1320  -14.6730   14.4830 N.am  1246  4CP1246    -0.1966
     13  C13       12.8060  -15.2770   14.1350 C.3   1246  4CP1246     0.1787
     14  C14       12.1130  -15.7490   15.4400 C.3   1246  4CP1246     0.0575
     15  C15       12.8310  -16.8140   16.2830 C.ar  1246  4CP1246    -0.0198
     16  C16       13.4700  -16.4110   17.5100 C.ar  1246  4CP1246    -0.0012
     17  C17       14.1490  -17.3790   18.3290 C.ar  1246  4CP1246     0.0368
     18  C18       14.2010  -18.7790   17.9370 C.ar  1246  4CP1246     0.1592
     19  C19       13.5580  -19.1680   16.7020 C.ar  1246  4CP1246     0.0368
     20  C20       12.8760  -18.1970   15.8820 C.ar  1246  4CP1246    -0.0012
     21  N21       14.8640  -19.8290   18.7020 N.pl3 1246  4CP1246    -0.0605
     22  C22       15.5740  -19.7960   19.9360 C.cat 1246  4CP1246     0.5393
     23  N23       15.7520  -18.7030   20.6300 N.pl3 1246  4CP1246     0.1358
     24  N24       16.0990  -20.9800   20.4200 N.pl3 1246  4CP1246     0.1358
     25  C25       11.9320  -14.2320   13.4280 C.2   1246  4CP1246     0.2809
     26  O26       12.3020  -13.0670   13.3840 O.2   1246  4CP1246    -0.2698
     27  N27       10.7260  -14.5680   12.8210 N.am  1246  4CP1246    -0.0863
@<TRIPOS>BOND
     1     7     1    1
     2     6     1   ar
     3     6     5   ar
     4     1     2   ar
     5    27    25   am
     6     5     4   ar
     7     2     3   ar
     8    26    25    2
     9    25    13    1
    10    11    10    2
    11    13    12    1
    12    13    14    1
    13     4     3   ar
    14     4     8    1
    15    10    12   am
    16    10     9    1
    17     9     8    1
    18    14    15    1
    19    20    15   ar
    20    20    19   ar
    21    15    16   ar
    22    19    18   ar
    23    16    17   ar
    24    18    17   ar
    25    18    21    1
    26    21    22    2
    27    22    24    1
    28    22    23    1
