@<TRIPOS>MOLECULE
2bvs_2CE_H_1.pdb
 37 38 0 0 0
SMALL
GASTEIGER

@<TRIPOS>ATOM
      1  C1        16.6210   -9.7900   12.1740 C.ar  1246  2CE1246     0.0577
      2  C2        15.7030   -9.7780   13.2410 C.ar  1246  2CE1246     0.0119
      3  C3        15.7260  -10.7940   14.2190 C.ar  1246  2CE1246     0.0070
      4  C4        16.6740  -11.8330   14.1330 C.ar  1246  2CE1246     0.0257
      5  C5        17.5930  -11.8410   13.0550 C.ar  1246  2CE1246     0.0070
      6  C6        17.5680  -10.8250   12.0790 C.ar  1246  2CE1246     0.0119
      7 CL7        16.5840   -8.5420   10.9940 Cl    1246  2CE1246    -0.0822
      8  S8        16.6710  -13.0820   15.3710 S.3   1246  2CE1246    -0.1038
      9  C9        17.0080  -14.7470   14.7410 C.3   1246  2CE1246     0.1487
     10  C10       15.7190  -15.4880   14.4200 C.2   1246  2CE1246     0.2531
     11  O11       15.8130  -16.6290   14.0220 O.2   1246  2CE1246    -0.2724
     12  N12       14.4450  -14.9320   14.5500 N.am  1246  2CE1246    -0.1967
     13  C13       13.2030  -15.6690   14.2030 C.3   1246  2CE1246     0.1770
     14  C14       12.4590  -16.0770   15.5000 C.3   1246  2CE1246     0.0574
     15  C15       13.1660  -17.0480   16.4530 C.ar  1246  2CE1246    -0.0198
     16  C16       13.5740  -16.5970   17.7320 C.ar  1246  2CE1246    -0.0012
     17  C17       14.2310  -17.4810   18.6310 C.ar  1246  2CE1246     0.0368
     18  C18       14.4930  -18.8370   18.2580 C.ar  1246  2CE1246     0.1592
     19  C19       14.0800  -19.2740   16.9750 C.ar  1246  2CE1246     0.0368
     20  C20       13.4230  -18.3900   16.0790 C.ar  1246  2CE1246    -0.0012
     21  N21       15.1560  -19.7960   19.1220 N.pl3 1246  2CE1246    -0.0605
     22  C22       15.6570  -19.6190   20.4300 C.cat 1246  2CE1246     0.5393
     23  N23       15.5710  -18.4810   21.0560 N.pl3 1246  2CE1246     0.1358
     24  N24       16.2610  -20.6960   21.0660 N.pl3 1246  2CE1246     0.1358
     25  C25       12.3400  -14.7430   13.3660 C.2   1246  2CE1246     0.2616
     26  O26       12.6940  -13.5860   13.2130 O.2   1246  2CE1246    -0.2715
     27  N27       11.2030  -15.1990   12.7330 N.am  1246  2CE1246    -0.2013
     28  C28       10.3850  -14.3800   11.8430 C.3   1246  2CE1246     0.1472
     29  C29        8.9150  -14.8090   11.8030 C.3   1246  2CE1246     0.1656
     30  O30        8.4440  -15.2660   13.0710 O.3   1246  2CE1246    -0.3492
     31  C31        8.6550  -14.3170   14.1150 C.3   1246  2CE1246     0.1742
     32  C32        8.2290  -14.8570   15.4900 C.3   1246  2CE1246     0.1748
     33  O33        7.0880  -14.1600   15.9790 O.3   1246  2CE1246    -0.3417
     34  C34        7.4120  -13.3220   17.0840 C.3   1246  2CE1246     0.2305
     35  C35        8.7960  -12.7250   16.9150 C.2   1246  2CE1246     0.2909
     36  O36        9.3300  -12.7460   15.8240 O.2   1246  2CE1246    -0.2689
     37  N37        9.4690  -12.1760   17.9950 N.am  1246  2CE1246    -0.0856
@<TRIPOS>BOND
     1     7     1    1
     2    29    28    1
     3    29    30    1
     4    28    27    1
     5     6     1   ar
     6     6     5   ar
     7     1     2   ar
     8    27    25   am
     9     5     4   ar
    10    30    31    1
    11    26    25    2
    12     2     3   ar
    13    25    13    1
    14    11    10    2
    15    31    32    1
    16     4     3   ar
    17     4     8    1
    18    13    12    1
    19    13    14    1
    20    10    12   am
    21    10     9    1
    22     9     8    1
    23    32    33    1
    24    14    15    1
    25    36    35    2
    26    33    34    1
    27    20    15   ar
    28    20    19   ar
    29    15    16   ar
    30    35    34    1
    31    35    37   am
    32    19    18   ar
    33    16    17   ar
    34    18    17   ar
    35    18    21    1
    36    21    22    2
    37    22    23    1
    38    22    24    1
