@<TRIPOS>MOLECULE
2bvs_TYR_I_1.pdb
 16 16 0 0 0
SMALL
GASTEIGER

@<TRIPOS>ATOM
      1  N         12.5650    2.4320   40.2480 N.3    18  TYR18      -0.1241
      2  CA        12.0060    2.3120   38.9080 C.3    18  TYR18       0.1605
      3  CB        13.1330    2.1940   37.8810 C.3    18  TYR18       0.0534
      4  CG        14.1330    3.3290   37.9280 C.ar   18  TYR18      -0.0201
      5  CD1       13.7640    4.6320   37.5870 C.ar   18  TYR18      -0.0010
      6  CD2       15.4540    3.0970   38.3050 C.ar   18  TYR18      -0.0010
      7  CE1       14.6930    5.6760   37.6180 C.ar   18  TYR18       0.0395
      8  CE2       16.3860    4.1300   38.3390 C.ar   18  TYR18       0.0395
      9  CZ        16.0010    5.4140   37.9930 C.ar   18  TYR18       0.1715
     10  OH        16.9460    6.4160   38.0010 O.3    18  TYR18      -0.3592
     11  S         17.7670    6.6500   36.7220 S.3    18  TYR18       0.0425
     12  O1        18.5650    5.5020   36.2470 O.2    18  TYR18      -0.3360
     13  O2        16.8190    7.1680   35.6940 O.2    18  TYR18      -0.3360
     14  O3        18.6520    7.7920   37.1660 O.3    18  TYR18      -0.2589
     15  C         11.1000    1.0890   38.8160 C.2    18  TYR18       0.2264
     16  O         10.4110    0.8870   37.8180 O.2    18  TYR18      -0.2867
@<TRIPOS>BOND
     1    13    11    2
     2    12    11    2
     3    11    14    1
     4    11    10    1
     5     5     7   ar
     6     5     4   ar
     7     7     9   ar
     8    16    15    2
     9     3     4    1
    10     3     2    1
    11     4     6   ar
    12     9    10    1
    13     9     8   ar
    14     6     8   ar
    15    15     2    1
    16     2     1    1
