@<TRIPOS>MOLECULE
2bvt_BMA_A_1.pdb
 12 12 0 0 0
SMALL
GASTEIGER

@<TRIPOS>ATOM
      1  C1        28.1520   12.5770  105.4880 C.3   500  BMA500      0.3024
      2  C2        28.7960   12.2240  104.1360 C.3   500  BMA500      0.2434
      3  C3        29.1900   10.7400  104.1790 C.3   500  BMA500      0.2199
      4  C4        30.1570   10.5090  105.3300 C.3   500  BMA500      0.2144
      5  C5        29.4540   10.9580  106.6570 C.3   500  BMA500      0.1836
      6  C6        30.4190   10.7740  107.8410 C.3   500  BMA500      0.2142
      7  O1        27.7850   13.9380  105.4570 O.3   500  BMA500     -0.1869
      8  O2        29.9530   13.0480  103.9330 O.3   500  BMA500     -0.2148
      9  O3        29.8160   10.3590  102.9500 O.3   500  BMA500     -0.2174
     10  O4        30.4800    9.1030  105.3450 O.3   500  BMA500     -0.2176
     11  O5        29.0840   12.3600  106.5890 O.3   500  BMA500     -0.3236
     12  O6        30.7580   12.0450  108.3990 O.3   500  BMA500     -0.2176
@<TRIPOS>BOND
     1     9     3    1
     2     8     2    1
     3     2     3    1
     4     2     1    1
     5     3     4    1
     6     4    10    1
     7     4     5    1
     8     7     1    1
     9     1    11    1
    10    11     5    1
    11     5     6    1
    12     6    12    1
