@<TRIPOS>MOLECULE
2bvw_CTR_B_1.pdb
 34 36 0 0 0
SMALL
GASTEIGER

@<TRIPOS>ATOM
      1  C1A      -31.2990   49.4880  -28.4130 C.3   601  CTR601      0.2695
      2  C2A      -31.6740   49.0280  -29.8200 C.3   601  CTR601      0.2406
      3  C3A      -32.0710   47.5640  -29.8090 C.3   601  CTR601      0.2198
      4  C4A      -30.9610   46.7650  -29.1030 C.3   601  CTR601      0.2144
      5  C5A      -30.6820   47.3250  -27.7000 C.3   601  CTR601      0.1835
      6  C6A      -29.5540   46.5420  -27.0060 C.3   601  CTR601      0.2142
      7  O2A      -32.7410   49.8340  -30.2750 O.3   601  CTR601     -0.2149
      8  O3A      -32.2840   47.0560  -31.1130 O.3   601  CTR601     -0.2174
      9  O4A      -31.3620   45.4110  -28.9920 O.3   601  CTR601     -0.2176
     10  O5A      -30.2520   48.6740  -27.8980 O.3   601  CTR601     -0.3256
     11  O6A      -29.1210   47.1230  -25.7960 O.3   601  CTR601     -0.2176
     12  C1B      -29.6800   53.8750  -26.0250 C.3   601  CTR601      0.2695
     13  C2B      -29.1480   52.4980  -25.6020 C.3   601  CTR601      0.2404
     14  C3B      -29.3080   51.4740  -26.7330 C.3   601  CTR601      0.2167
     15  C4B      -30.7130   51.4990  -27.2920 C.3   601  CTR601      0.1804
     16  C5B      -31.1680   52.9190  -27.6240 C.3   601  CTR601      0.1803
     17  C6B      -32.6310   52.9810  -28.0710 C.3   601  CTR601      0.2141
     18  O2B      -27.7770   52.5480  -25.3040 O.3   601  CTR601     -0.2149
     19  O3B      -28.9500   50.2150  -26.1910 O.3   601  CTR601     -0.2175
     20  O4B      -30.7370   50.7720  -28.5150 O.3   601  CTR601     -0.3257
     21  O5B      -30.9990   53.7580  -26.4930 O.3   601  CTR601     -0.3257
     22  O6B      -32.8700   54.2600  -28.6270 O.3   601  CTR601     -0.2176
     23  C1C      -29.6410   58.6290  -23.7230 C.3   601  CTR601      0.3023
     24  C2C      -30.9720   58.0830  -24.2230 C.3   601  CTR601      0.2433
     25  C3C      -30.9540   56.5640  -24.2250 C.3   601  CTR601      0.2168
     26  C4C      -29.7220   56.0550  -24.9670 C.3   601  CTR601      0.1804
     27  C5C      -28.4510   56.7020  -24.4340 C.3   601  CTR601      0.1804
     28  C6C      -27.1970   56.3430  -25.2300 C.3   601  CTR601      0.2141
     29  O1C      -29.6110   60.0290  -23.8280 O.3   601  CTR601     -0.1869
     30  O2C      -32.0470   58.4600  -23.4150 O.3   601  CTR601     -0.2148
     31  O3C      -32.1740   56.1530  -24.7950 O.3   601  CTR601     -0.2175
     32  O4C      -29.6450   54.6400  -24.8380 O.3   601  CTR601     -0.3257
     33  O5C      -28.5580   58.1240  -24.4720 O.3   601  CTR601     -0.3237
     34  O6C      -26.0380   56.5660  -24.4580 O.3   601  CTR601     -0.2176
@<TRIPOS>BOND
     1     8     3    1
     2     7     2    1
     3     2     3    1
     4     2     1    1
     5     3     4    1
     6     4     9    1
     7     4     5    1
     8    22    17    1
     9    20     1    1
    10    20    15    1
    11     1    10    1
    12    17    16    1
    13    10     5    1
    14     5     6    1
    15    16    15    1
    16    16    21    1
    17    15    14    1
    18     6    11    1
    19    14    19    1
    20    14    13    1
    21    21    12    1
    22    12    13    1
    23    12    32    1
    24    13    18    1
    25    28    34    1
    26    28    27    1
    27    26    32    1
    28    26    27    1
    29    26    25    1
    30    31    25    1
    31    33    27    1
    32    33    23    1
    33    25    24    1
    34    24    23    1
    35    24    30    1
    36    29    23    1
