@<TRIPOS>MOLECULE
2bvw_NAG_A_1.pdb
 14 14 0 0 0
SMALL
GASTEIGER

@<TRIPOS>ATOM
      1  C1       -15.5880   10.1610   -4.6290 C.3   500  NAG500      0.1665
      2  C2       -17.0990   10.1590   -4.8190 C.3   500  NAG500      0.1576
      3  C3       -17.5110   11.1530   -5.9040 C.3   500  NAG500      0.2069
      4  C4       -16.8900   12.5280   -5.6130 C.3   500  NAG500      0.2134
      5  C5       -15.3580   12.3650   -5.4200 C.3   500  NAG500      0.1809
      6  C6       -14.7200   13.7040   -5.1420 C.3   500  NAG500      0.2141
      7  C7       -18.5840    8.1490   -4.6750 C.2   500  NAG500      0.2420
      8  C8       -18.8460    6.7900   -5.2110 C.3   500  NAG500      0.0964
      9  N2       -17.5690    8.8300   -5.2440 N.am  500  NAG500     -0.2019
     10  O3       -18.9280   11.2830   -5.9010 O.3   500  NAG500     -0.2184
     11  O4       -17.1040   13.4640   -6.6760 O.3   500  NAG500     -0.2176
     12  O5       -15.1630   11.4990   -4.3080 O.3   500  NAG500     -0.3489
     13  O6       -13.3450   13.6450   -5.0620 O.3   500  NAG500     -0.2176
     14  O7       -19.2120    8.6100   -3.8300 O.2   500  NAG500     -0.2733
@<TRIPOS>BOND
     1    11     4    1
     2     3    10    1
     3     3     4    1
     4     3     2    1
     5     4     5    1
     6     5     6    1
     7     5    12    1
     8     9     2    1
     9     9     7   am
    10     8     7    1
    11     6    13    1
    12     2     1    1
    13     7    14    2
    14     1    12    1
