@<TRIPOS>MOLECULE
2bvw_BGC_A_1.pdb
 12 12 0 0 0
SMALL
GASTEIGER

@<TRIPOS>ATOM
      1  C2        -6.4730    0.5660    7.2830 C.3   602  BGC602      0.2434
      2  C3        -6.5280    1.9660    6.6770 C.3   602  BGC602      0.2199
      3  C4        -5.2900    2.7830    7.0510 C.3   602  BGC602      0.2144
      4  C5        -3.9580    2.0570    6.7520 C.3   602  BGC602      0.1836
      5  C6        -2.7790    2.7970    7.3650 C.3   602  BGC602      0.2142
      6  C1        -5.0840   -0.0520    6.9600 C.3   602  BGC602      0.3024
      7  O1        -4.9580   -1.2810    7.6300 O.3   602  BGC602     -0.1869
      8  O2        -7.5440   -0.2440    6.7680 O.3   602  BGC602     -0.2148
      9  O3        -7.7120    2.6120    7.1730 O.3   602  BGC602     -0.2174
     10  O4        -5.3760    4.0170    6.3310 O.3   602  BGC602     -0.2176
     11  O5        -3.9880    0.7520    7.4070 O.3   602  BGC602     -0.3236
     12  O6        -2.7950    2.8710    8.8000 O.3   602  BGC602     -0.2176
@<TRIPOS>BOND
     1    10     3    1
     2     2     3    1
     3     2     9    1
     4     2     1    1
     5     4     3    1
     6     4     5    1
     7     4    11    1
     8     8     1    1
     9     6     1    1
    10     6    11    1
    11     6     7    1
    12     5    12    1
