@<TRIPOS>MOLECULE
2bvw_CTT_A_1.pdb
 45 48 0 0 0
SMALL
GASTEIGER

@<TRIPOS>ATOM
      1  O1B        5.2380  -25.5930    4.3030 O.3   600  CTT600     -0.1869
      2  C1B        4.2510  -24.6520    4.1350 C.3   600  CTT600      0.3023
      3  C2B        4.2400  -23.6800    5.3000 C.3   600  CTT600      0.2433
      4  O2B        3.8710  -24.3970    6.4830 O.3   600  CTT600     -0.2148
      5  C3B        3.2200  -22.5750    5.0370 C.3   600  CTT600      0.2168
      6  O3B        3.2960  -21.6800    6.1060 O.3   600  CTT600     -0.2175
      7  O5B        4.5920  -23.9010    2.9390 O.3   600  CTT600     -0.3237
      8  C5B        3.6110  -22.9520    2.5790 C.3   600  CTT600      0.1804
      9  C6B        4.0380  -22.2930    1.2700 C.3   600  CTT600      0.2141
     10  O6B        4.0720  -23.3520    0.2760 O.3   600  CTT600     -0.2176
     11  C4B        3.4300  -21.8880    3.6820 C.3   600  CTT600      0.1804
     12  O4B        2.2740  -21.1180    3.2960 O.3   600  CTT600     -0.3257
     13  C1C        2.3440  -19.7380    3.4200 C.3   600  CTT600      0.2695
     14  C2C        1.1660  -19.1200    2.6690 C.3   600  CTT600      0.2404
     15  O2C        1.2970  -19.4760    1.2790 O.3   600  CTT600     -0.2149
     16  C3C        1.2130  -17.6280    2.8830 C.3   600  CTT600      0.2167
     17  O3C        0.0620  -17.1380    2.1530 O.3   600  CTT600     -0.2175
     18  O5C        2.1460  -19.4430    4.8180 O.3   600  CTT600     -0.3257
     19  C5C        2.2940  -18.0170    5.0760 C.3   600  CTT600      0.1803
     20  C6C        2.3160  -17.8280    6.5600 C.3   600  CTT600      0.2141
     21  O6C        3.6110  -18.1860    7.0390 O.3   600  CTT600     -0.2176
     22  C4C        1.1720  -17.2880    4.3550 C.3   600  CTT600      0.1804
     23  O4C        1.3720  -15.8840    4.5970 O.3   600  CTT600     -0.3257
     24  C1D        0.3990  -15.0690    5.2160 C.3   600  CTT600      0.2695
     25  C2D        1.0910  -13.7400    5.4820 C.3   600  CTT600      0.2404
     26  O2D        2.2000  -13.9020    6.3830 O.3   600  CTT600     -0.2149
     27  C3D        0.0870  -12.7580    6.0650 C.3   600  CTT600      0.2167
     28  O3D        0.8100  -11.5250    6.2350 O.3   600  CTT600     -0.2175
     29  O5D       -0.6280  -14.8280    4.2490 O.3   600  CTT600     -0.3257
     30  C5D       -1.6830  -14.0230    4.8130 C.3   600  CTT600      0.1803
     31  C6D       -2.7880  -14.0130    3.7890 C.3   600  CTT600      0.2141
     32  O6D       -3.3960  -15.3220    3.7680 O.3   600  CTT600     -0.2176
     33  C4D       -1.1200  -12.6560    5.1530 C.3   600  CTT600      0.1804
     34  O4D       -2.2030  -11.9120    5.7500 O.3   600  CTT600     -0.3257
     35  C1E       -2.2930  -10.5700    5.3030 C.3   600  CTT600      0.2695
     36  C2E       -3.6620  -10.0640    5.7930 C.3   600  CTT600      0.2406
     37  O2E       -4.6700  -10.7950    5.1120 O.3   600  CTT600     -0.2149
     38  C3E       -3.7840   -8.6000    5.4890 C.3   600  CTT600      0.2198
     39  O3E       -5.0150   -8.0530    5.9120 O.3   600  CTT600     -0.2174
     40  C4E       -2.6320   -7.7920    6.0320 C.3   600  CTT600      0.2144
     41  O4E       -2.6800   -6.4350    5.6310 O.3   600  CTT600     -0.2176
     42  O5E       -1.2940   -9.7890    5.9510 O.3   600  CTT600     -0.3256
     43  C5E       -1.2890   -8.3960    5.5420 C.3   600  CTT600      0.1835
     44  C6E       -0.1240   -7.7130    6.1010 C.3   600  CTT600      0.2142
     45  O6E        1.1190   -8.3230    5.8080 O.3   600  CTT600     -0.2176
@<TRIPOS>BOND
     1    10     9    1
     2     9     8    1
     3    15    14    1
     4    17    16    1
     5     8     7    1
     6     8    11    1
     7    14    16    1
     8    14    13    1
     9    16    22    1
    10     7     2    1
    11    12    13    1
    12    12    11    1
    13    13    18    1
    14    11     5    1
    15    32    31    1
    16    31    30    1
    17     2     1    1
    18     2     3    1
    19    29    30    1
    20    29    24    1
    21    22    23    1
    22    22    19    1
    23    23    24    1
    24    30    33    1
    25    18    19    1
    26     5     3    1
    27     5     6    1
    28    19    20    1
    29    37    36    1
    30    33    34    1
    31    33    27    1
    32    24    25    1
    33     3     4    1
    34    35    34    1
    35    35    36    1
    36    35    42    1
    37    25    27    1
    38    25    26    1
    39    38    36    1
    40    38    39    1
    41    38    40    1
    42    43    42    1
    43    43    40    1
    44    43    44    1
    45    41    40    1
    46    45    44    1
    47    27    28    1
    48    20    21    1
