@<TRIPOS>MOLECULE
2bvx_5CB_H_1.pdb
 32 35 0 0 0
SMALL
GASTEIGER

@<TRIPOS>ATOM
      1  O1        12.2110  -13.5610   12.5930 O.2   1246  5CB1246    -0.2638
      2 CL2        16.3500   -8.0570   10.9510 Cl    1246  5CB1246    -0.0822
      3 CL3         8.4960  -13.0970   16.0310 Cl    1246  5CB1246    -0.0614
      4  C4        17.7380  -10.4050   10.9660 C.ar  1246  5CB1246     0.0119
      5  C5        18.0880  -11.6720   11.5010 C.ar  1246  5CB1246     0.0073
      6  C6        16.7620   -9.5930   11.6210 C.ar  1246  5CB1246     0.0577
      7  C7        17.4450  -12.0950   12.6870 C.ar  1246  5CB1246     0.0293
      8  C8        16.1300  -10.0390   12.8150 C.ar  1246  5CB1246     0.0116
      9  C9        16.4810  -11.3070   13.3460 C.ar  1246  5CB1246     0.0050
     10  S10       17.6390  -13.4550   13.4980 S.2   1246  5CB1246    -0.0867
     11  C11       16.5870  -13.1790   14.6790 C.ar  1246  5CB1246     0.0329
     12  C12       15.9890  -11.9370   14.5010 C.ar  1246  5CB1246     0.0064
     13  C13       14.9450  -11.3580   15.4510 C.3   1246  5CB1246     0.1421
     14  N14       13.5620  -11.3830   14.9280 N.am  1246  5CB1246    -0.1989
     15  C15       12.5080  -12.1950   15.3660 C.2   1246  5CB1246     0.2649
     16  C16       11.1410  -12.0670   14.6980 C.3   1246  5CB1246     0.1966
     17  C17        9.3190  -13.8690   14.7160 C.ar  1246  5CB1246     0.1410
     18  N18       10.5300  -13.3270   14.1710 N.ar  1246  5CB1246    -0.2737
     19  C19        8.7900  -15.0170   14.2080 C.ar  1246  5CB1246     0.1295
     20  C20       11.1770  -13.9970   13.0820 C.ar  1246  5CB1246     0.2951
     21  N21        9.4640  -15.7290   13.0640 N.ar  1246  5CB1246    -0.2210
     22  C22       10.5850  -15.2600   12.5330 C.ar  1246  5CB1246     0.2049
     23  N23       11.2080  -15.9200   11.4710 N.pl3 1246  5CB1246    -0.2160
     24  C24       10.5940  -16.7930   10.4460 C.3   1246  5CB1246     0.1203
     25  C25        9.9540  -15.9430    9.3260 C.3   1246  5CB1246     0.0692
     26  C26        7.4590  -16.1360    9.9780 C.ar  1246  5CB1246     0.0148
     27  C27        8.5650  -15.3530    9.5920 C.ar  1246  5CB1246     0.0608
     28  C28        6.2140  -15.5110   10.2000 C.ar  1246  5CB1246     0.0028
     29  N29        8.3880  -13.9620    9.4390 N.ar  1246  5CB1246    -0.2481
     30  C30        6.0480  -14.1170   10.0430 C.ar  1246  5CB1246     0.0207
     31  C31        7.1440  -13.3350    9.6590 C.ar  1246  5CB1246     0.0984
     32  O32       12.6670  -12.9970   16.2660 O.2   1246  5CB1246    -0.2712
@<TRIPOS>BOND
     1    25    27    1
     2    25    24    1
     3    29    27   ar
     4    29    31   ar
     5    27    26   ar
     6    31    30   ar
     7    26    28   ar
     8    30    28   ar
     9    24    23    1
    10     2     6    1
    11     4     5   ar
    12     4     6   ar
    13    23    22    1
    14     5     7   ar
    15     6     8   ar
    16    22    21   ar
    17    22    20   ar
    18     1    20    2
    19     7     9   ar
    20     7    10   ar
    21     8     9   ar
    22    21    19   ar
    23    20    18   ar
    24     9    12   ar
    25    10    11   ar
    26    18    16    1
    27    18    17   ar
    28    19    17   ar
    29    12    11   ar
    30    12    13    1
    31    16    15    1
    32    17     3    1
    33    14    15   am
    34    14    13    1
    35    15    32    2
