@<TRIPOS>MOLECULE
2bw7_ECS_A_1.pdb
 21 24 0 0 0
SMALL
GASTEIGER

@<TRIPOS>ATOM
      1  C1         2.5700   -4.3650    5.9530 C.ar  2203  ECS2203     0.0408
      2  C10        2.1620   -3.0840    6.5380 C.ar  2203  ECS2203    -0.0231
      3  C11        0.2660   -2.7630    4.7600 C.3   2203  ECS2203     0.0044
      4  C12       -0.6560   -1.7860    3.9710 C.3   2203  ECS2203     0.0028
      5  C13       -1.5100   -0.9160    4.9340 C.3   2203  ECS2203     0.0282
      6  C14       -0.5110   -0.1550    5.9370 C.3   2203  ECS2203     0.0028
      7  C15       -1.4770    0.8210    6.6110 C.3   2203  ECS2203     0.0027
      8  C16       -2.2240    1.4360    5.3710 C.3   2203  ECS2203     0.0329
      9  C17       -2.2240    0.3080    4.2830 C.3   2203  ECS2203     0.1519
     10  C18       -2.6170   -1.8270    5.6410 C.3   2203  ECS2203     0.0025
     11  C2         3.3940   -5.2880    6.6780 C.ar  2203  ECS2203     0.2339
     12  C3         3.8460   -4.9590    8.0040 C.ar  2203  ECS2203     0.2339
     13  C4         3.4730   -3.7120    8.6220 C.ar  2203  ECS2203     0.0408
     14  C5         2.6380   -2.7560    7.9160 C.ar  2203  ECS2203    -0.0228
     15  C6         2.2490   -1.4200    8.6070 C.3   2203  ECS2203     0.0262
     16  C7         1.3410   -0.4470    7.7660 C.3   2203  ECS2203     0.0050
     17  C8         0.3860   -1.1730    6.7820 C.3   2203  ECS2203     0.0044
     18  C9         1.2570   -2.0570    5.7620 C.3   2203  ECS2203     0.0221
     19  O17       -3.5880    0.0820    3.8290 O.3   2203  ECS2203    -0.2232
     20  O3         4.6340   -5.8490    8.6820 O.3   2203  ECS2203    -0.2832
     21  O2         3.7470   -6.4780    6.0940 O.3   2203  ECS2203    -0.2832
@<TRIPOS>BOND
     1    19     9    1
     2     4     3    1
     3     4     5    1
     4     9     5    1
     5     9     8    1
     6     3    18    1
     7     5    10    1
     8     5     6    1
     9     8     7    1
    10    18     2    1
    11    18    17    1
    12     6     7    1
    13     6    17    1
    14     1     2   ar
    15     1    11   ar
    16    21    11    1
    17     2    14   ar
    18    11    12   ar
    19    17    16    1
    20    16    15    1
    21    14    15    1
    22    14    13   ar
    23    12    13   ar
    24    12    20    1
