@<TRIPOS>MOLECULE
2bw7_APC_A_1.pdb
 31 33 0 0 0
SMALL
GASTEIGER

@<TRIPOS>ATOM
      1  PG         3.7340  -10.7560    5.6040 P.3   2200  APC2200     0.5389
      2  O1G        4.1720   -9.3390    5.8910 O.3   2200  APC2200    -0.1143
      3  O2G        3.9300  -11.1070    4.1430 O.2   2200  APC2200    -0.2220
      4  O3G        2.2670  -10.9480    5.9800 O.3   2200  APC2200    -0.1143
      5  PB         5.5260  -11.4530    7.7110 P.3   2200  APC2200     0.3895
      6  O1B        6.6950  -12.4170    7.6480 O.2   2200  APC2200    -0.2544
      7  O2B        6.0350   -9.9880    7.7540 O.3   2200  APC2200    -0.1388
      8  O3B        4.6080  -11.7970    6.4300 O.3   2200  APC2200    -0.2026
      9  PA         5.2860  -11.5660   10.6780 P.3   2200  APC2200     0.3820
     10  O1A        5.4510  -12.9410   11.3460 O.3   2200  APC2200    -0.1392
     11  O2A        6.6700  -10.8910   10.5730 O.2   2200  APC2200    -0.2548
     12  C3A        4.4990  -11.8500    9.1130 C.3   2200  APC2200     0.2357
     13  O5'        4.1970  -10.6820   11.5260 O.3   2200  APC2200    -0.2896
     14  C5'        4.3720   -9.3140   11.9220 C.3   2200  APC2200     0.1836
     15  C4'        4.4160   -9.3160   13.4820 C.3   2200  APC2200     0.1822
     16  O4'        4.7360   -8.0390   14.1180 O.3   2200  APC2200    -0.3135
     17  C3'        3.1090   -9.8660   14.1450 C.3   2200  APC2200     0.2184
     18  O3'        3.4600  -10.8620   15.1590 O.3   2200  APC2200    -0.2174
     19  C2'        2.4810   -8.5740   14.6990 C.3   2200  APC2200     0.2570
     20  O2'        1.5050   -8.8960   15.7200 O.3   2200  APC2200    -0.2130
     21  C1'        3.7320   -7.9190   15.1960 C.3   2200  APC2200     0.3186
     22  N9         3.6940   -6.5390   15.8750 N.pl3 2200  APC2200    -0.1439
     23  C8         4.4540   -6.3240   16.9940 C.3   2200  APC2200     0.3377
     24  N7         4.3610   -5.1390   17.5090 N.2   2200  APC2200    -0.2095
     25  C5         3.5000   -4.4500   16.7180 C.2   2200  APC2200     0.2526
     26  C6         3.0370   -3.0870   16.8310 C.2   2200  APC2200     0.4393
     27  N6         3.4550   -2.2730   17.7950 N.pl3 2200  APC2200     0.2180
     28  N1         2.1570   -2.6140   15.9130 N.2   2200  APC2200     0.0021
     29  C2         1.7400   -3.4590   14.9160 C.3   2200  APC2200     0.5254
     30  N3         2.1130   -4.7920   14.6950 N.2   2200  APC2200    -0.0055
     31  C4         3.0030   -5.2320   15.6440 C.2   2200  APC2200     0.3518
@<TRIPOS>BOND
     1     3     1    2
     2     1     2    1
     3     1     4    1
     4     1     8    1
     5     8     5    1
     6     6     5    2
     7     5     7    1
     8     5    12    1
     9    12     9    1
    10    11     9    2
    11     9    10    1
    12     9    13    1
    13    13    14    1
    14    14    15    1
    15    15    16    1
    16    15    17    1
    17    16    21    1
    18    17    19    1
    19    17    18    1
    20    30    29    1
    21    30    31    2
    22    19    21    1
    23    19    20    1
    24    29    28    1
    25    21    22    1
    26    31    22    1
    27    31    25    1
    28    22    23    1
    29    28    26    2
    30    25    26    1
    31    25    24    2
    32    26    27    1
    33    23    24    1
