@<TRIPOS>MOLECULE
2bw9_HEM_M_1.pdb
 43 50 0 0 0
SMALL
GASTEIGER

@<TRIPOS>ATOM
      1 FE         35.4010    4.1720   10.0370 Fe    154  HEM154      0.0000
      2  CHA       38.1200    2.3570   11.1940 C.2   154  HEM154      0.0000
      3  CHB       37.3250    5.4090    7.4820 C.2   154  HEM154      0.0000
      4  CHC       32.7980    6.2530    9.0320 C.2   154  HEM154      0.0000
      5  CHD       33.4730    3.0940   12.6860 C.2   154  HEM154      0.0000
      6  NA        37.2990    3.9140    9.4630 N.ar  154  HEM154      0.0000
      7  C1A       38.2740    3.1090   10.0080 C.ar  154  HEM154      0.0000
      8  C2A       39.5050    3.1530    9.2070 C.ar  154  HEM154      0.0000
      9  C3A       39.2740    4.0120    8.1740 C.ar  154  HEM154      0.0000
     10  C4A       37.9230    4.5120    8.3600 C.ar  154  HEM154      0.0000
     11  CMA       40.1730    4.3570    6.9830 C.3   154  HEM154      0.0000
     12  CAA       40.7560    2.3170    9.4770 C.3   154  HEM154      0.0000
     13  CBA       40.8600    1.0910    8.5790 C.3   154  HEM154      0.0000
     14  CGA       39.6000    0.2360    8.5850 C.2   154  HEM154      0.0000
     15  O1A       39.2520   -0.3270    9.6500 O.co2 154  HEM154      0.0000
     16  O2A       38.9580    0.1320    7.5140 O.co2 154  HEM154      0.0000
     17  NB        35.1020    5.4750    8.5410 N.2   154  HEM154      0.0000
     18  C1B       35.9990    5.8310    7.5340 C.2   154  HEM154      0.0000
     19  C2B       35.3870    6.7660    6.5790 C.2   154  HEM154      0.0000
     20  C3B       34.1060    7.0240    7.0490 C.2   154  HEM154      0.0000
     21  C4B       33.9540    6.2160    8.2520 C.2   154  HEM154      0.0000
     22  CMB       36.0710    7.3490    5.3300 C.3   154  HEM154      0.0000
     23  CAB       33.1330    7.9060    6.5490 C.3   154  HEM154      0.0000
     24  CBB       33.3060    9.3020    6.2340 C.3   154  HEM154      0.0000
     25  NC        33.5810    4.6000   10.7110 N.ar  154  HEM154      0.0000
     26  C1C       32.6700    5.5310   10.2130 C.ar  154  HEM154      0.0000
     27  C2C       31.5150    5.6400   11.0820 C.ar  154  HEM154      0.0000
     28  C3C       31.6650    4.7280   12.1070 C.ar  154  HEM154      0.0000
     29  C4C       32.9230    4.0600   11.8420 C.ar  154  HEM154      0.0000
     30  CMC       30.3600    6.6170   10.8810 C.3   154  HEM154      0.0000
     31  CAC       30.8800    4.5280   13.2630 C.3   154  HEM154      0.0000
     32  CBC       29.6620    5.2340   13.6590 C.3   154  HEM154      0.0000
     33  ND        35.7220    2.9740   11.5410 N.2   154  HEM154      0.0000
     34  C1D       34.8130    2.6420   12.5470 C.2   154  HEM154      0.0000
     35  C2D       35.4390    1.8320   13.5330 C.2   154  HEM154      0.0000
     36  C3D       36.7320    1.6760   13.1610 C.2   154  HEM154      0.0000
     37  C4D       36.9170    2.3420   11.9150 C.2   154  HEM154      0.0000
     38  CMD       34.7820    1.2770   14.7760 C.3   154  HEM154      0.0000
     39  CAD       37.7800    0.9640   14.0010 C.3   154  HEM154      0.0000
     40  CBD       38.4590    1.9290   14.9540 C.3   154  HEM154      0.0000
     41  CGD       39.4300    1.2310   15.8880 C.2   154  HEM154      0.0000
     42  O1D       38.9710    0.4780   16.7730 O.co2 154  HEM154      0.0000
     43  O2D       40.6530    1.4280   15.7260 O.co2 154  HEM154      0.0000
@<TRIPOS>BOND
     1    22    19    1
     2    24    23    1
     3    23    20    1
     4    19    20    2
     5    19    18    1
     6    11     9    1
     7    20    21    1
     8     3    18    1
     9     3    10    2
    10    16    14   ar
    11    18    17    2
    12     9    10   ar
    13     9     8   ar
    14    21    17    1
    15    21     4    2
    16    10     6   ar
    17    17     1    1
    18    13    14    1
    19    13    12    1
    20    14    15   ar
    21     4    26    1
    22     8    12    1
    23     8     7   ar
    24     6     7   ar
    25     6     1    1
    26     7     2    2
    27     1    25    1
    28     1    33    1
    29    26    25   ar
    30    26    27   ar
    31    25    29   ar
    32    30    27    1
    33    27    28   ar
    34     2    37    1
    35    33    37    2
    36    33    34    1
    37    29    28   ar
    38    29     5    1
    39    37    36    1
    40    28    31    1
    41    34     5    2
    42    34    35    1
    43    36    35    2
    44    36    39    1
    45    31    32    1
    46    35    38    1
    47    39    40    1
    48    40    41    1
    49    43    41   ar
    50    41    42   ar
