@<TRIPOS>MOLECULE
2bwa_GLC_A_1.pdb
 12 12 0 0 0
SMALL
GASTEIGER

@<TRIPOS>ATOM
      1  C1        13.4280    4.4810   27.8250 C.3   1003  GLC1003     0.3024
      2  C2        14.2880    5.4700   28.6220 C.3   1003  GLC1003     0.2434
      3  C3        14.1970    6.8590   27.9840 C.3   1003  GLC1003     0.2199
      4  C4        14.4910    6.8000   26.4730 C.3   1003  GLC1003     0.2144
      5  C5        13.7150    5.6680   25.7790 C.3   1003  GLC1003     0.1836
      6  C6        14.2270    5.4390   24.3710 C.3   1003  GLC1003     0.2142
      7  O1        13.5070    3.2140   28.3620 O.3   1003  GLC1003    -0.1869
      8  O2        13.8320    5.5310   29.9610 O.3   1003  GLC1003    -0.2148
      9  O3        15.1300    7.7290   28.6100 O.3   1003  GLC1003    -0.2174
     10  O4        14.1410    8.0550   25.8580 O.3   1003  GLC1003    -0.2176
     11  O5        13.8960    4.4200   26.4870 O.3   1003  GLC1003    -0.3236
     12  O6        15.6170    5.1600   24.3890 O.3   1003  GLC1003    -0.2176
@<TRIPOS>BOND
     1     6    12    1
     2     6     5    1
     3     5     4    1
     4     5    11    1
     5    10     4    1
     6     4     3    1
     7    11     1    1
     8     1     7    1
     9     1     2    1
    10     3     9    1
    11     3     2    1
    12     2     8    1
