@<TRIPOS>MOLECULE
2bwa_BGC_A_1.pdb
 11 11 0 0 0
SMALL
GASTEIGER

@<TRIPOS>ATOM
      1  C2        14.7730    9.9070   24.4700 C.3   1004  BGC1004     0.2141
      2  C3        15.8950   10.9170   24.2250 C.3   1004  BGC1004     0.2173
      3  C4        16.3430   11.5580   25.5440 C.3   1004  BGC1004     0.2142
      4  C5        16.7130   10.4560   26.5470 C.3   1004  BGC1004     0.1810
      5  C6        17.1220   10.9820   27.9140 C.3   1004  BGC1004     0.2141
      6  C1        15.1990    8.8970   25.5480 C.3   1004  BGC1004     0.1777
      7  O2        14.4910    9.2220   23.2570 O.3   1004  BGC1004    -0.2176
      8  O3        15.4560   11.9210   23.3220 O.3   1004  BGC1004    -0.2175
      9  O4        17.4910   12.3850   25.2980 O.3   1004  BGC1004    -0.2176
     10  O5        15.5870    9.5780   26.7480 O.3   1004  BGC1004    -0.3481
     11  O6        15.9860   11.3040   28.7050 O.3   1004  BGC1004    -0.2176
@<TRIPOS>BOND
     1     7     1    1
     2     8     2    1
     3     2     1    1
     4     2     3    1
     5     1     6    1
     6     9     3    1
     7     3     4    1
     8     6    10    1
     9     4    10    1
    10     4     5    1
    11     5    11    1
