@<TRIPOS>MOLECULE
2bwc_GLC_A_1.pdb
 12 12 0 0 0
SMALL
GASTEIGER

@<TRIPOS>ATOM
      1  C1        13.7110    4.5510   27.7920 C.3   1004  GLC1004     0.3024
      2  C2        14.3990    5.6730   28.5710 C.3   1004  GLC1004     0.2434
      3  C3        14.1420    7.0270   27.8970 C.3   1004  GLC1004     0.2199
      4  C4        14.4900    6.9590   26.4070 C.3   1004  GLC1004     0.2144
      5  C5        13.8050    5.7650   25.7380 C.3   1004  GLC1004     0.1836
      6  C6        14.2170    5.5890   24.2870 C.3   1004  GLC1004     0.2142
      7  O1        14.0350    3.3270   28.3510 O.3   1004  GLC1004    -0.1869
      8  O2        13.9000    5.6980   29.8970 O.3   1004  GLC1004    -0.2148
      9  O3        14.9390    8.0250   28.5200 O.3   1004  GLC1004    -0.2174
     10  O4        14.1020    8.1790   25.7530 O.3   1004  GLC1004    -0.2176
     11  O5        14.1580    4.5500   26.4330 O.3   1004  GLC1004    -0.3236
     12  O6        15.5350    5.0730   24.1840 O.3   1004  GLC1004    -0.2176
@<TRIPOS>BOND
     1    12     6    1
     2     6     5    1
     3     5     4    1
     4     5    11    1
     5    10     4    1
     6     4     3    1
     7    11     1    1
     8     1     7    1
     9     1     2    1
    10     3     9    1
    11     3     2    1
    12     2     8    1
