@<TRIPOS>MOLECULE
2bwc_BGC_A_1.pdb
 11 11 0 0 0
SMALL
GASTEIGER

@<TRIPOS>ATOM
      1  C2        14.7540    9.9450   24.2740 C.3   1005  BGC1005     0.2141
      2  C3        15.8940   10.9220   23.9880 C.3   1005  BGC1005     0.2173
      3  C4        16.3620   11.6080   25.2620 C.3   1005  BGC1005     0.2142
      4  C5        16.7150   10.5600   26.3370 C.3   1005  BGC1005     0.1810
      5  C6        17.1160   11.1540   27.6840 C.3   1005  BGC1005     0.2141
      6  C1        15.1620    8.9950   25.4050 C.3   1005  BGC1005     0.1777
      7  O2        14.4710    9.1940   23.1000 O.3   1005  BGC1005    -0.2176
      8  O3        15.4590   11.9170   23.0790 O.3   1005  BGC1005    -0.2175
      9  O4        17.4900   12.4460   24.9500 O.3   1005  BGC1005    -0.2176
     10  O5        15.5640    9.7260   26.5740 O.3   1005  BGC1005    -0.3481
     11  O6        16.0750   11.0250   28.6460 O.3   1005  BGC1005    -0.2176
@<TRIPOS>BOND
     1     8     2    1
     2     7     1    1
     3     2     1    1
     4     2     3    1
     5     1     6    1
     6     9     3    1
     7     3     4    1
     8     6    10    1
     9     4    10    1
    10     4     5    1
    11     5    11    1
