@<TRIPOS>MOLECULE
2bwg_5GP_A_1.pdb
 24 26 0 0 0
SMALL
GASTEIGER

@<TRIPOS>ATOM
      1  P         -1.7410   -0.9040  -58.9710 P.3   1340  5GP1340     0.5327
      2  O1P       -1.6610   -0.7310  -60.4900 O.2   1340  5GP1340    -0.2224
      3  O2P       -1.2140   -2.2410  -58.4850 O.3   1340  5GP1340    -0.1145
      4  O3P       -3.0290   -0.5120  -58.3150 O.3   1340  5GP1340    -0.1145
      5  O5'       -0.7400    0.1690  -58.3460 O.3   1340  5GP1340    -0.2675
      6  C5'       -0.6390    0.4070  -56.9550 C.3   1340  5GP1340     0.1859
      7  C4'        0.4000    1.5250  -56.8180 C.3   1340  5GP1340     0.1801
      8  O4'       -0.1040    2.7330  -57.3740 O.3   1340  5GP1340    -0.3326
      9  C3'        0.7980    1.9140  -55.3960 C.3   1340  5GP1340     0.2158
     10  O3'        1.6860    0.9700  -54.7910 O.3   1340  5GP1340    -0.2175
     11  C2'        1.3820    3.2930  -55.5920 C.3   1340  5GP1340     0.2310
     12  O2'        2.7280    3.2550  -56.0730 O.3   1340  5GP1340    -0.2158
     13  C1'        0.5360    3.8460  -56.7210 C.3   1340  5GP1340     0.2293
     14  N9        -0.4620    4.8360  -56.2430 N.pl3 1340  5GP1340    -0.2354
     15  C8        -1.5470    4.6980  -55.4420 C.3   1340  5GP1340     0.2246
     16  N7        -2.1460    5.9040  -55.2840 N.2   1340  5GP1340    -0.2322
     17  C5        -1.4200    6.8050  -56.0090 C.2   1340  5GP1340     0.2182
     18  C6        -1.4690    8.1920  -56.2800 C.1   1340  5GP1340     0.2372
     19  O6        -2.3680    8.9110  -55.7960 O.2   1340  5GP1340    -0.2069
     20  N1        -0.5180    8.7640  -57.0730 N.2   1340  5GP1340    -0.2485
     21  C2         0.4990    7.9980  -57.5910 C.1   1340  5GP1340     0.2531
     22  N2         1.5040    8.4410  -58.3720 N.pl3 1340  5GP1340    -0.0226
     23  N3         0.5580    6.6930  -57.3500 N.2   1340  5GP1340    -0.3074
     24  C4        -0.3690    6.0930  -56.5820 C.2   1340  5GP1340     0.2300
@<TRIPOS>BOND
     1     2     1    2
     2     1     3    1
     3     1     5    1
     4     1     4    1
     5    22    21    1
     6     5     6    1
     7    21    23    2
     8    21    20    2
     9     8     7    1
    10     8    13    1
    11    23    24    2
    12    20    18    2
    13     6     7    1
    14     7     9    1
    15    13    14    1
    16    13    11    1
    17    24    14    1
    18    24    17    1
    19    18    17    1
    20    18    19    2
    21    14    15    1
    22    12    11    1
    23    17    16    2
    24    11     9    1
    25    15    16    1
    26     9    10    1
