@<TRIPOS>MOLECULE
2bwh_HEM_A_1.pdb
 43 50 0 0 0
SMALL
GASTEIGER

@<TRIPOS>ATOM
      1 FE         35.3770    4.4290    9.8130 Fe    1154  HEM1154     0.0000
      2  CHA       38.1450    2.7220   11.2180 C.2   1154  HEM1154     0.0000
      3  CHB       37.3800    5.6430    7.3990 C.2   1154  HEM1154     0.0000
      4  CHC       32.9600    6.6930    9.1220 C.2   1154  HEM1154     0.0000
      5  CHD       33.6420    3.6040   12.7670 C.2   1154  HEM1154     0.0000
      6  NA        37.3260    4.2140    9.4080 N.ar  1154  HEM1154     0.0000
      7  C1A       38.3100    3.4020   10.0150 C.ar  1154  HEM1154     0.0000
      8  C2A       39.5140    3.3410    9.2200 C.ar  1154  HEM1154     0.0000
      9  C3A       39.3000    4.1530    8.1420 C.ar  1154  HEM1154     0.0000
     10  C4A       37.9640    4.7440    8.2960 C.ar  1154  HEM1154     0.0000
     11  CMA       40.2050    4.3410    6.9240 C.3   1154  HEM1154     0.0000
     12  CAA       40.7550    2.4670    9.4940 C.3   1154  HEM1154     0.0000
     13  CBA       40.8900    1.2910    8.5430 C.3   1154  HEM1154     0.0000
     14  CGA       39.6540    0.4080    8.5300 C.2   1154  HEM1154     0.0000
     15  O1A       39.2990   -0.1430    9.5900 O.co2 1154  HEM1154     0.0000
     16  O2A       39.0370    0.2630    7.4600 O.co2 1154  HEM1154     0.0000
     17  NB        35.1880    5.8240    8.4960 N.2   1154  HEM1154     0.0000
     18  C1B       36.0630    6.1280    7.4830 C.2   1154  HEM1154     0.0000
     19  C2B       35.4340    7.0540    6.5330 C.2   1154  HEM1154     0.0000
     20  C3B       34.1980    7.3470    7.0340 C.2   1154  HEM1154     0.0000
     21  C4B       34.0720    6.6150    8.2730 C.2   1154  HEM1154     0.0000
     22  CMB       36.0350    7.5910    5.2380 C.3   1154  HEM1154     0.0000
     23  CAB       33.1860    8.0940    6.4190 C.3   1154  HEM1154     0.0000
     24  CBB       33.0980    9.5270    6.3630 C.3   1154  HEM1154     0.0000
     25  NC        33.6750    4.9920   10.7480 N.ar  1154  HEM1154     0.0000
     26  C1C       32.7790    5.9600   10.2990 C.ar  1154  HEM1154     0.0000
     27  C2C       31.5930    6.0430   11.1380 C.ar  1154  HEM1154     0.0000
     28  C3C       31.7780    5.1580   12.1640 C.ar  1154  HEM1154     0.0000
     29  C4C       33.0650    4.5080   11.8930 C.ar  1154  HEM1154     0.0000
     30  CMC       30.3770    6.9480   10.9080 C.3   1154  HEM1154     0.0000
     31  CAC       31.0060    4.9480   13.3180 C.3   1154  HEM1154     0.0000
     32  CBC       29.7990    5.6190   13.7580 C.3   1154  HEM1154     0.0000
     33  ND        35.7890    3.3940   11.5680 N.2   1154  HEM1154     0.0000
     34  C1D       34.9260    3.1190   12.6220 C.2   1154  HEM1154     0.0000
     35  C2D       35.5230    2.2370   13.5970 C.2   1154  HEM1154     0.0000
     36  C3D       36.7890    2.0190   13.2110 C.2   1154  HEM1154     0.0000
     37  C4D       36.9680    2.7370   11.9490 C.2   1154  HEM1154     0.0000
     38  CMD       34.8140    1.5920   14.7800 C.3   1154  HEM1154     0.0000
     39  CAD       37.7870    1.2170   14.0370 C.3   1154  HEM1154     0.0000
     40  CBD       38.5820    2.1230   14.9720 C.3   1154  HEM1154     0.0000
     41  CGD       39.4210    1.3460   15.9640 C.2   1154  HEM1154     0.0000
     42  O1D       38.8420    0.5770   16.7640 O.co2 1154  HEM1154     0.0000
     43  O2D       40.6590    1.5090   15.9490 O.co2 1154  HEM1154     0.0000
@<TRIPOS>BOND
     1    22    19    1
     2    24    23    1
     3    23    20    1
     4    19    20    2
     5    19    18    1
     6    11     9    1
     7    20    21    1
     8     3    18    1
     9     3    10    2
    10    16    14   ar
    11    18    17    2
    12     9    10   ar
    13     9     8   ar
    14    21    17    1
    15    21     4    2
    16    10     6   ar
    17    17     1    1
    18    14    13    1
    19    14    15   ar
    20    13    12    1
    21     4    26    1
    22     8    12    1
    23     8     7   ar
    24     6     1    1
    25     6     7   ar
    26     1    25    1
    27     1    33    1
    28     7     2    2
    29    26    25   ar
    30    26    27   ar
    31    25    29   ar
    32    30    27    1
    33    27    28   ar
    34     2    37    1
    35    33    37    2
    36    33    34    1
    37    29    28   ar
    38    29     5    1
    39    37    36    1
    40    28    31    1
    41    34     5    2
    42    34    35    1
    43    36    35    2
    44    36    39    1
    45    31    32    1
    46    35    38    1
    47    39    40    1
    48    40    41    1
    49    43    41   ar
    50    41    42   ar
