@<TRIPOS>MOLECULE
2bwj_AMP_B_1.pdb
 23 25 0 0 0
SMALL
GASTEIGER

@<TRIPOS>ATOM
      1  P        109.9470    1.4650  -12.4030 P.3   1201  AMP1201     0.5327
      2  O1P      110.3320    1.0880  -13.8170 O.2   1201  AMP1201    -0.2224
      3  O2P      111.1130    1.9740  -11.5910 O.3   1201  AMP1201    -0.1145
      4  O3P      109.1260    0.4340  -11.6630 O.3   1201  AMP1201    -0.1145
      5  O5'      108.9170    2.7050  -12.5520 O.3   1201  AMP1201    -0.2675
      6  C5'      108.6420    3.3840  -13.7790 C.3   1201  AMP1201     0.1860
      7  C4'      109.4000    4.7090  -13.8140 C.3   1201  AMP1201     0.1823
      8  O4'      108.9200    5.6320  -12.8270 O.3   1201  AMP1201    -0.3135
      9  C3'      110.8670    4.5780  -13.4700 C.3   1201  AMP1201     0.2184
     10  O3'      111.5460    5.4470  -14.3840 O.3   1201  AMP1201    -0.2174
     11  C2'      110.9760    4.9380  -11.9710 C.3   1201  AMP1201     0.2570
     12  O2'      112.0240    5.8820  -11.6910 O.3   1201  AMP1201    -0.2130
     13  C1'      109.6180    5.5280  -11.5640 C.3   1201  AMP1201     0.3186
     14  N9       108.6600    4.7560  -10.6970 N.pl3 1201  AMP1201    -0.1439
     15  C8       108.8030    3.6100   -9.9830 C.3   1201  AMP1201     0.3377
     16  N7       107.6260    3.2490   -9.3760 N.2   1201  AMP1201    -0.2095
     17  C5       106.7080    4.1820   -9.7040 C.2   1201  AMP1201     0.2526
     18  C6       105.2790    4.4430   -9.4330 C.2   1201  AMP1201     0.4393
     19  N6       104.5760    3.6000   -8.6490 N.pl3 1201  AMP1201     0.2180
     20  N1       104.6950    5.5400   -9.9920 N.2   1201  AMP1201     0.0021
     21  C2       105.3660    6.3980  -10.7740 C.3   1201  AMP1201     0.5254
     22  N3       106.6730    6.2230  -11.0560 N.2   1201  AMP1201    -0.0055
     23  C4       107.3850    5.1600  -10.5710 C.2   1201  AMP1201     0.3518
@<TRIPOS>BOND
     1    10     9    1
     2     2     1    2
     3     7     6    1
     4     7     9    1
     5     7     8    1
     6     6     5    1
     7     9    11    1
     8     8    13    1
     9     5     1    1
    10     1     4    1
    11     1     3    1
    12    11    12    1
    13    11    13    1
    14    13    14    1
    15    22    21    1
    16    22    23    2
    17    21    20    1
    18    14    23    1
    19    14    15    1
    20    23    17    1
    21    20    18    2
    22    15    16    1
    23    17    18    1
    24    17    16    2
    25    18    19    1
