@<TRIPOS>MOLECULE
2bwm_SNG_A_1.pdb
 16 16 0 0 0
SMALL
GASTEIGER

@<TRIPOS>ATOM
      1  C1        40.6320   32.3990   45.3350 C.3   1403  SNG1403     0.0000
      2  C2        41.2010   31.0060   45.1030 C.3   1403  SNG1403     0.0000
      3  C3        40.1290   30.2640   44.2670 C.3   1403  SNG1403     0.0000
      4  C4        38.7980   30.2380   45.0010 C.3   1403  SNG1403     0.0000
      5  C5        38.3840   31.6120   45.4500 C.3   1403  SNG1403     0.0000
      6  C6        37.1860   31.5090   46.3980 C.3   1403  SNG1403     0.0000
      7  C7        43.6420   30.8470   44.8470 C.2   1403  SNG1403     0.0000
      8  C8        44.7110   30.8070   44.0130 C.3   1403  SNG1403     0.0000
      9  CM        40.7670   35.1160   46.4380 C.3   1403  SNG1403     0.0000
     10  N2        42.4410   31.0050   44.3020 N.am  1403  SNG1403     0.0000
     11  O3        40.5320   28.9270   43.9920 O.3   1403  SNG1403     0.0000
     12  O4        37.7260   29.7320   44.1670 O.3   1403  SNG1403     0.0000
     13  O5        39.4580   32.3050   46.1320 O.3   1403  SNG1403     0.0000
     14  O6        36.8380   32.8360   46.8740 O.3   1403  SNG1403     0.0000
     15  O7        43.8070   30.7840   46.0520 O.2   1403  SNG1403     0.0000
     16 SE         41.8820   33.4800   46.3650 Se    1403  SNG1403     0.0000
@<TRIPOS>BOND
     1    11     3    1
     2     8     7    1
     3    12     4    1
     4     3     4    1
     5     3     2    1
     6    10     7   am
     7    10     2    1
     8     7    15    2
     9     4     5    1
    10     2     1    1
    11     1    13    1
    12     1    16    1
    13     5    13    1
    14     5     6    1
    15    16     9    1
    16     6    14    1
