@<TRIPOS>MOLECULE
2bwo_PLP_B_1.pdb
 16 16 0 0 0
SMALL
GASTEIGER

@<TRIPOS>ATOM
      1  N1        23.2130   15.0140   34.3590 N.2   600  PLP600     -0.2505
      2  C2        22.4530   15.8430   35.1750 C.2   600  PLP600      0.0679
      3  C2A       22.4450   15.5770   36.6600 C.3   600  PLP600      0.0499
      4  C3        21.7060   16.9040   34.6020 C.3   600  PLP600      0.1987
      5  O3        20.8720   17.6760   35.4030 O.3   600  PLP600     -0.2162
      6  C4        21.7460   17.1330   33.1930 C.3   600  PLP600      0.1228
      7  C4A       21.5810   18.5770   32.7060 C.2   600  PLP600      0.2141
      8  O4A       20.5250   19.0550   32.2580 O.2   600  PLP600     -0.2879
      9  C5        22.5230   16.2540   32.3930 C.2   600  PLP600      0.0147
     10  C6        23.2390   15.2140   32.9950 C.2   600  PLP600      0.0926
     11  C5A       22.6510   16.4330   30.8740 C.3   600  PLP600      0.1780
     12  O4P       23.9290   16.9550   30.5400 O.3   600  PLP600     -0.2656
     13  P         24.4140   17.2900   29.0400 P.3   600  PLP600      0.5329
     14  O1P       25.9240   17.2050   29.0100 O.3   600  PLP600     -0.1145
     15  O2P       24.0190   18.6820   28.6780 O.3   600  PLP600     -0.1145
     16  O3P       23.7300   16.3500   28.0840 O.2   600  PLP600     -0.2224
@<TRIPOS>BOND
     1    16    13    2
     2    15    13    1
     3    14    13    1
     4    13    12    1
     5    12    11    1
     6    11     9    1
     7     8     7    2
     8     9    10    2
     9     9     6    1
    10     7     6    1
    11    10     1    1
    12     6     4    1
    13     1     2    2
    14     4     2    1
    15     4     5    1
    16     2     3    1
