@<TRIPOS>MOLECULE
2bwp_PLG_A_1.pdb
 20 20 0 0 0
SMALL
GASTEIGER

@<TRIPOS>ATOM
      1  N1        22.1610    6.4970   10.7830 N.ar  500  PLG500     -0.2452
      2  C2        23.0760    5.8260   10.0550 C.ar  500  PLG500      0.0978
      3  C2A       22.5280    4.9650    8.8930 C.3   500  PLG500      0.0555
      4  C3        24.4730    5.9320   10.3940 C.ar  500  PLG500      0.2062
      5  O3        25.4440    5.2510    9.6960 O.3   500  PLG500     -0.2856
      6  C4        24.8760    6.7550   11.4690 C.ar  500  PLG500      0.0353
      7  C4A       26.3630    6.9260   11.8930 C.3   500  PLG500      0.1186
      8  C5        23.8500    7.4280   12.1620 C.ar  500  PLG500      0.0275
      9  C6        22.5130    7.2710   11.8060 C.ar  500  PLG500      0.0965
     10  C5A       24.0890    8.3410   13.3380 C.3   500  PLG500      0.1816
     11  OP4       24.5470    9.5270   12.8540 O.3   500  PLG500     -0.2653
     12  P         25.1570   10.5560   13.8250 P.3   500  PLG500      0.5329
     13  OP1       24.8160   12.0130   13.2670 O.2   500  PLG500     -0.2224
     14  OP2       26.7880   10.4210   13.6860 O.3   500  PLG500     -0.1145
     15  OP3       24.6690   10.3440   15.2030 O.3   500  PLG500     -0.1145
     16  C         28.7890    5.1020    9.9110 C.2   500  PLG500      0.3823
     17  O         29.6840    5.4580    9.0830 O.co2 500  PLG500     -0.2440
     18  OXT       28.1730    4.0050    9.9400 O.co2 500  PLG500     -0.2440
     19  CA        28.4120    6.0970   11.0100 C.3   500  PLG500      0.2032
     20  N         27.1480    5.6910   11.6650 N.3   500  PLG500     -0.2017
@<TRIPOS>BOND
     1     3     2    1
     2    17    16   ar
     3     5     4    1
     4    16    18   ar
     5    16    19    1
     6     2     4   ar
     7     2     1   ar
     8     4     6   ar
     9     1     9   ar
    10    19    20    1
    11     6     7    1
    12     6     8   ar
    13    20     7    1
    14     9     8   ar
    15     8    10    1
    16    11    10    1
    17    11    12    1
    18    13    12    2
    19    14    12    1
    20    12    15    1
