@<TRIPOS>MOLECULE
2bx7_FMN_A_1.pdb
 31 33 0 0 0
SMALL
GASTEIGER

@<TRIPOS>ATOM
      1  N1         4.0240   48.0240   17.8970 N.2   1312  FMN1312    -0.2887
      2  C2         5.0410   48.8710   18.2580 C.1   1312  FMN1312     0.3669
      3  O2         5.5550   48.8150   19.3720 O.2   1312  FMN1312    -0.1744
      4  N3         5.4450   49.8480   17.3790 N.2   1312  FMN1312    -0.2300
      5  C4         4.8330   50.0120   16.1590 C.1   1312  FMN1312     0.2513
      6  O4         4.9440   51.1100   15.6080 O.2   1312  FMN1312    -0.2057
      7  C4A        3.8150   49.1360   15.7940 C.2   1312  FMN1312     0.2703
      8  N5         3.2150   49.2400   14.5550 N.2   1312  FMN1312    -0.3885
      9  C5A        2.1700   48.4280   14.2120 C.2   1312  FMN1312     0.1233
     10  C6         1.5590   48.6200   12.9690 C.3   1312  FMN1312     0.0606
     11  C7         0.4910   47.8230   12.6060 C.3   1312  FMN1312     0.0111
     12  C7M       -0.5190   48.3780   11.5870 C.3   1312  FMN1312     0.0008
     13  C8         0.0720   46.8090   13.4840 C.3   1312  FMN1312     0.0238
     14  C8M       -1.2870   46.1660   13.2880 C.3   1312  FMN1312     0.0047
     15  C9         0.6820   46.6170   14.7230 C.2   1312  FMN1312    -0.0093
     16  C9A        1.7550   47.4130   15.0980 C.2   1312  FMN1312     0.0750
     17  N10        2.3870   47.2630   16.3280 N.pl3 1312  FMN1312    -0.2548
     18  C10        3.4380   48.1090   16.6700 C.2   1312  FMN1312     0.2449
     19  C1'        2.1250   46.0790   17.1990 C.3   1312  FMN1312     0.1336
     20  C2'        0.9250   46.4080   18.0490 C.3   1312  FMN1312     0.2048
     21  O2'        1.3720   47.4800   18.8630 O.3   1312  FMN1312    -0.2185
     22  C3'        0.4480   45.2050   18.8680 C.3   1312  FMN1312     0.2165
     23  O3'        1.5170   44.7770   19.7210 O.3   1312  FMN1312    -0.2175
     24  C4'       -0.0260   44.0360   17.9780 C.3   1312  FMN1312     0.2147
     25  O4'       -0.6960   44.5210   16.8140 O.3   1312  FMN1312    -0.2176
     26  C5'       -0.8670   43.0280   18.7390 C.3   1312  FMN1312     0.1892
     27  O5'       -2.0610   43.6290   19.2460 O.3   1312  FMN1312    -0.2674
     28  P         -3.4020   43.2760   18.4670 P.3   1312  FMN1312     0.5327
     29  O1P       -3.2130   43.7170   17.0200 O.2   1312  FMN1312    -0.2224
     30  O2P       -3.5850   41.8260   18.5060 O.3   1312  FMN1312    -0.1145
     31  O3P       -4.5860   43.9500   19.1320 O.3   1312  FMN1312    -0.1145
@<TRIPOS>BOND
     1    12    11    1
     2    11    10    1
     3    11    13    1
     4    10     9    1
     5    14    13    1
     6    13    15    1
     7     9     8    2
     8     9    16    1
     9     8     7    2
    10    15    16    2
    11    16    17    1
    12     6     5    2
    13     7     5    1
    14     7    18    1
    15     5     4    2
    16    17    18    1
    17    17    19    1
    18    18     1    2
    19    25    24    1
    20    29    28    2
    21    19    20    1
    22     4     2    2
    23     1     2    2
    24    24    26    1
    25    24    22    1
    26    20    21    1
    27    20    22    1
    28     2     3    2
    29    28    30    1
    30    28    31    1
    31    28    27    1
    32    26    27    1
    33    22    23    1
