@<TRIPOS>MOLECULE
2bx7_34D_B_1.pdb
 11 11 0 0 0
SMALL
GASTEIGER

@<TRIPOS>ATOM
      1  C2         4.5190   16.6850   22.6320 C.ar  1313  34D1313     0.0488
      2  C3         4.7630   17.5710   21.6090 C.ar  1313  34D1313     0.1991
      3  O3         5.9230   17.4240   20.9510 O.3   1313  34D1313    -0.2865
      4  C4         3.8050   18.5900   21.3110 C.ar  1313  34D1313     0.0840
      5  C5         2.6100   18.7300   22.0330 C.ar  1313  34D1313     0.1991
      6  C1         3.3200   16.8020   23.3650 C.ar  1313  34D1313     0.0861
      7  C6         2.3740   17.8050   23.0960 C.ar  1313  34D1313     0.0488
      8  C          3.1150   15.8530   24.5240 C.2   1313  34D1313     0.3880
      9  O1         3.1440   16.4470   25.6340 O.co2 1313  34D1313    -0.2405
     10  O2         2.9740   14.6050   24.3950 O.co2 1313  34D1313    -0.2405
     11  O5         1.7080   19.7160   21.7250 O.3   1313  34D1313    -0.2865
@<TRIPOS>BOND
     1     3     2    1
     2     4     2   ar
     3     4     5   ar
     4     2     1   ar
     5    11     5    1
     6     5     7   ar
     7     1     6   ar
     8     7     6   ar
     9     6     8    1
    10    10     8   ar
    11     8     9   ar
