@<TRIPOS>MOLECULE
2bx8_AZQ_A_1.pdb
 22 24 0 0 0
SMALL
GASTEIGER

@<TRIPOS>ATOM
      1  C1         4.8270  -10.3090    5.4260 C.2   2001  AZQ2001     0.2507
      2  C2         6.0300  -10.9530    5.3080 C.3   2001  AZQ2001     0.1564
      3  C3         6.4360  -11.6130    6.4910 C.2   2001  AZQ2001     0.2567
      4  N1         5.3940  -11.3180    7.4690 N.am  2001  AZQ2001    -0.1418
      5  C4         5.0960  -11.6470    8.8140 C.2   2001  AZQ2001     0.2639
      6  N2         4.2030  -10.8380    9.4710 N.2   2001  AZQ2001    -0.3739
      7  C5         3.7370   -9.6100    8.9170 C.2   2001  AZQ2001     0.1359
      8  C6         3.3370   -8.5940    9.7460 C.2   2001  AZQ2001     0.0294
      9  C7         3.2320   -7.2420    9.2490 C.2   2001  AZQ2001    -0.0022
     10  C8         3.5190   -6.9010    7.9450 C.2   2001  AZQ2001    -0.0240
     11  C9         3.9160   -7.9910    7.0950 C.2   2001  AZQ2001    -0.0021
     12  C10        4.0270   -9.3550    7.5750 C.3   2001  AZQ2001     0.1692
     13  N3         4.4330  -10.5230    6.7890 N.am  2001  AZQ2001    -0.1887
     14  O1         4.1280   -9.6420    4.6370 O.2   2001  AZQ2001    -0.2728
     15  C11        6.8270  -10.9910    4.0240 C.3   2001  AZQ2001     0.0184
     16  C12        7.6340   -9.5220    4.0530 C.3   2001  AZQ2001     0.0010
     17  C13        7.4010   -9.0130    2.9230 C.3   2001  AZQ2001     0.0000
     18  O2         7.4330  -12.2910    6.8200 O.2   2001  AZQ2001    -0.2724
     19  N4         5.5270  -12.7860    9.4210 N.pl3 2001  AZQ2001    -0.2666
     20  C14        5.6210  -14.1250    8.7970 C.3   2001  AZQ2001     0.1159
     21  C15        5.8840  -12.7380   10.8410 C.3   2001  AZQ2001     0.1159
     22  C16        3.4260   -5.5040    7.3890 C.3   2001  AZQ2001     0.0308
@<TRIPOS>BOND
     1    17    16    1
     2    15    16    1
     3    15     2    1
     4    14     1    2
     5     2     1    1
     6     2     3    1
     7     1    13   am
     8     3    18    2
     9     3     4   am
    10    13     4    1
    11    13    12    1
    12    11    12    1
    13    11    10    2
    14    22    10    1
    15     4     5    1
    16    12     7    1
    17    10     9    1
    18    20    19    1
    19     5    19    1
    20     5     6    2
    21     7     6    2
    22     7     8    1
    23     9     8    2
    24    19    21    1
