@<TRIPOS>MOLECULE
2bxa_C1F_A_1.pdb
 17 17 0 0 0
SMALL
GASTEIGER

@<TRIPOS>ATOM
      1  C1         4.7150  -11.6440    9.0540 C.ar  2001  C1F2001     0.0175
      2  C2         4.0440  -10.8020    8.1660 C.ar  2001  C1F2001     0.1086
      3  C3         4.7360  -10.9780    6.9620 C.ar  2001  C1F2001     0.1289
      4  C4         4.5010  -10.3450    5.5930 C.3   2001  C1F2001     0.0765
      5  C6         4.4380  -11.9080   10.5470 C.3   2001  C1F2001     0.0342
      6  O          5.6550  -11.7840    7.1290 O.2   2001  C1F2001    -0.4621
      7  C7         5.2610  -15.2680    8.7170 C.3   2001  C1F2001     0.0005
      8  C9         5.5820   -9.3250    5.2400 C.3   2001  C1F2001     0.1220
      9  C11        6.7900  -13.2440    8.7200 C.3   2001  C1F2001     0.0642
     10  C40        5.7230  -12.2190    8.2920 C.ar  2001  C1F2001     0.1186
     11  C12        6.5170  -14.6270    8.1250 C.3   2001  C1F2001     0.0079
     12  C70        5.5890   -9.0490    3.7350 C.2   2001  C1F2001     0.3653
     13  O1         2.1430   -9.4520    7.5020 O.co2 2001  C1F2001    -0.2405
     14  C13        2.8090   -9.8840    8.4310 C.2   2001  C1F2001     0.3902
     15  O2         2.4680   -9.5680    9.5690 O.co2 2001  C1F2001    -0.2405
     16  O3         6.6220   -9.1430    3.0780 O.co2 2001  C1F2001    -0.2456
     17  O4         4.5520   -8.7230    3.1580 O.co2 2001  C1F2001    -0.2456
@<TRIPOS>BOND
     1    16    12   ar
     2    17    12   ar
     3    12     8    1
     4     8     4    1
     5     4     3    1
     6     3     6   ar
     7     3     2   ar
     8     6    10   ar
     9    13    14   ar
    10    11     7    1
    11    11     9    1
    12     2    14    1
    13     2     1   ar
    14    10     9    1
    15    10     1   ar
    16    14    15   ar
    17     1     5    1
