@<TRIPOS>MOLECULE
2bxb_OPB_A_1.pdb
 24 26 0 0 0
SMALL
GASTEIGER

@<TRIPOS>ATOM
      1  C16        3.0690  -11.2460    3.7270 C.ar  2001  OPB2001     0.0013
      2  C17        3.1030  -10.8900    5.1220 C.ar  2001  OPB2001     0.0166
      3  C12        4.3500  -10.7460    5.7620 C.ar  2001  OPB2001     0.0734
      4  C13        5.5750  -10.9540    5.0340 C.ar  2001  OPB2001     0.0166
      5  C14        5.5000  -11.3030    3.6690 C.ar  2001  OPB2001     0.0013
      6  C15        4.2700  -11.4410    3.0320 C.ar  2001  OPB2001     0.0001
      7  C8         2.7390   -5.8760    6.2420 C.ar  2001  OPB2001     0.0434
      8  C9         4.0360   -5.3310    6.0800 C.ar  2001  OPB2001     0.1958
      9  C10        5.1190   -6.0710    6.4360 C.ar  2001  OPB2001     0.0434
     10  C11        5.0030   -7.3710    6.9580 C.ar  2001  OPB2001     0.0199
     11  C6         3.6880   -7.9610    7.1320 C.ar  2001  OPB2001     0.0736
     12  C7         2.6210   -7.2140    6.7780 C.ar  2001  OPB2001     0.0199
     13  C21        6.4300  -11.7040   13.4670 C.3   2001  OPB2001     0.0000
     14  C20        5.0270  -12.0740   12.9190 C.3   2001  OPB2001     0.0000
     15  C19        4.7730  -11.0170   11.7490 C.3   2001  OPB2001     0.0010
     16  C18        3.7210  -11.5640   10.7290 C.3   2001  OPB2001     0.0185
     17  N2         4.4350  -10.3750    7.1710 N.am  2001  OPB2001    -0.1788
     18  C3         4.6370  -11.3000    8.1450 C.2   2001  OPB2001     0.2539
     19  C4         3.8250  -10.8140    9.3460 C.3   2001  OPB2001     0.1566
     20  C5         3.1540   -9.5660    8.9660 C.2   2001  OPB2001     0.2539
     21  N1         3.5200   -9.2970    7.6550 N.am  2001  OPB2001    -0.1788
     22  O3         5.3200  -12.2620    8.0450 O.2   2001  OPB2001    -0.2725
     23  O5         2.3940   -8.8550    9.6620 O.2   2001  OPB2001    -0.2725
     24  O9         4.1440   -4.0850    5.5640 O.3   2001  OPB2001    -0.2866
@<TRIPOS>BOND
     1     6     5   ar
     2     6     1   ar
     3     5     4   ar
     4     1     2   ar
     5     4     3   ar
     6     2     3   ar
     7    24     8    1
     8     3    17    1
     9     8     7   ar
    10     8     9   ar
    11     7    12   ar
    12     9    10   ar
    13    12    11   ar
    14    10    11   ar
    15    11    21    1
    16    17    21    1
    17    17    18   am
    18    21    20   am
    19    22    18    2
    20    18    19    1
    21    20    19    1
    22    20    23    2
    23    19    16    1
    24    16    15    1
    25    15    14    1
    26    14    13    1
