@<TRIPOS>MOLECULE
2bxc_P1Z_A_1.pdb
 23 25 0 0 0
SMALL
GASTEIGER

@<TRIPOS>ATOM
      1  C16        8.0380  -13.3730    6.7330 C.ar  2001  P1Z2001     0.0013
      2  C17        7.3710  -12.1580    7.0710 C.ar  2001  P1Z2001     0.0166
      3  C12        6.2630  -12.1390    7.9700 C.ar  2001  P1Z2001     0.0734
      4  C13        5.8730  -13.4230    8.5120 C.ar  2001  P1Z2001     0.0166
      5  C14        6.5420  -14.6140    8.1680 C.ar  2001  P1Z2001     0.0013
      6  C15        7.6210  -14.5980    7.2820 C.ar  2001  P1Z2001     0.0001
      7  C8         4.1590  -11.6600   13.0320 C.ar  2001  P1Z2001     0.0013
      8  C9         5.4840  -11.6000   13.4840 C.ar  2001  P1Z2001     0.0001
      9  C10        6.5220  -11.2710   12.5810 C.ar  2001  P1Z2001     0.0013
     10  C11        6.2110  -11.0030   11.2020 C.ar  2001  P1Z2001     0.0166
     11  C6         4.8690  -11.0660   10.7460 C.ar  2001  P1Z2001     0.0734
     12  C7         3.8240  -11.4040   11.6860 C.ar  2001  P1Z2001     0.0166
     13  C21        3.6980   -4.1500    7.6490 C.3   2001  P1Z2001     0.0000
     14  C20        3.2100   -5.4160    7.0540 C.3   2001  P1Z2001     0.0000
     15  C19        3.8210   -6.6230    7.6220 C.3   2001  P1Z2001     0.0010
     16  C18        3.3970   -7.9980    6.9960 C.3   2001  P1Z2001     0.0185
     17  N2         5.5960  -10.8470    8.3160 N.am  2001  P1Z2001    -0.1788
     18  C3         5.2750   -9.7880    7.3250 C.2   2001  P1Z2001     0.2539
     19  C4         4.0890   -9.1540    7.7310 C.3   2001  P1Z2001     0.1566
     20  C5         3.5970   -9.7440    8.9000 C.2   2001  P1Z2001     0.2539
     21  N1         4.5080  -10.8100    9.3120 N.am  2001  P1Z2001    -0.1788
     22  O3         6.0050   -9.5400    6.3210 O.2   2001  P1Z2001    -0.2725
     23  O5         2.5610   -9.4490    9.5580 O.2   2001  P1Z2001    -0.2725
@<TRIPOS>BOND
     1    22    18    2
     2     1     2   ar
     3     1     6   ar
     4    16    15    1
     5    16    19    1
     6    14    15    1
     7    14    13    1
     8     2     3   ar
     9     6     5   ar
    10    18    19    1
    11    18    17   am
    12    19    20    1
    13     3    17    1
    14     3     4   ar
    15     5     4   ar
    16    17    21    1
    17    20    21   am
    18    20    23    2
    19    21    11    1
    20    11    10   ar
    21    11    12   ar
    22    10     9   ar
    23    12     7   ar
    24     9     8   ar
    25     7     8   ar
