@<TRIPOS>MOLECULE
2bxd_RWF_A_1.pdb
 23 25 0 0 0
SMALL
GASTEIGER

@<TRIPOS>ATOM
      1  C1         3.3220  -11.1950   10.0560 C.ar  2001  RWF2001     0.0735
      2  C2         4.6830   -9.9690    6.5360 C.3   2001  RWF2001     0.0567
      3  C3         4.3540   -8.4600    6.6600 C.3   2001  RWF2001     0.0419
      4  C4         5.0390   -7.6130    5.6180 C.3   2001  RWF2001     0.1528
      5  C5         4.5050   -6.2520    5.2270 C.3   2001  RWF2001     0.0355
      6  C6         3.8670  -10.6250    5.4280 C.ar  2001  RWF2001    -0.0180
      7  C7         4.4890  -11.4930    4.5050 C.ar  2001  RWF2001    -0.0040
      8  C8         3.7440  -12.1080    3.4730 C.ar  2001  RWF2001    -0.0003
      9  C9         2.3780  -11.8650    3.3530 C.ar  2001  RWF2001    -0.0000
     10  C10        1.7540  -11.0220    4.2440 C.ar  2001  RWF2001    -0.0003
     11  C11        5.6370  -11.4710    8.3700 C.ar  2001  RWF2001     0.3451
     12  C12        2.4810  -10.4000    5.2780 C.ar  2001  RWF2001    -0.0040
     13  C13        4.5130  -10.6420    7.9130 C.ar  2001  RWF2001     0.0964
     14  C14        3.3950  -10.5100    8.7480 C.ar  2001  RWF2001     0.2011
     15  C15        2.2310  -11.1170   10.9730 C.ar  2001  RWF2001     0.0062
     16  C16        2.2920  -11.8090   12.1910 C.ar  2001  RWF2001     0.0003
     17  C17        3.4260  -12.5710   12.5260 C.ar  2001  RWF2001     0.0031
     18  C18        4.5030  -12.6670   11.6620 C.ar  2001  RWF2001     0.0377
     19  C19        4.4500  -11.9730   10.4380 C.ar  2001  RWF2001     0.1517
     20  O1         5.5560  -12.1040    9.6020 O.2   2001  RWF2001    -0.4211
     21  O2         6.6730  -11.6770    7.7670 O.2   2001  RWF2001    -0.2447
     22  O3         6.1880   -8.1410    5.0280 O.3   2001  RWF2001    -0.2231
     23  O4         2.2860   -9.7850    8.4680 O.3   2001  RWF2001    -0.2866
@<TRIPOS>BOND
     1     9     8   ar
     2     9    10   ar
     3     8     7   ar
     4    10    12   ar
     5     7     6   ar
     6    22     4    1
     7     5     4    1
     8    12     6   ar
     9     6     2    1
    10     4     3    1
    11     2     3    1
    12     2    13    1
    13    21    11    2
    14    13    11   ar
    15    13    14   ar
    16    11    20   ar
    17    23    14    1
    18    14     1   ar
    19    20    19   ar
    20     1    19   ar
    21     1    15   ar
    22    19    18   ar
    23    15    16   ar
    24    18    17   ar
    25    16    17   ar
