@<TRIPOS>MOLECULE
2bxe_1FL_A_1.pdb
 18 19 0 0 0
SMALL
GASTEIGER

@<TRIPOS>ATOM
      1  FAT        9.8240    2.0360  -15.7790 F     2001  1FL2001    -0.2041
      2  CAN        9.6330    2.9280  -14.7780 C.ar  2001  1FL2001     0.1423
      3  CAM       10.7620    3.2160  -13.9870 C.ar  2001  1FL2001     0.0592
      4  CAF       10.6250    4.1210  -12.9510 C.ar  2001  1FL2001     0.1424
      5  FAE       11.7130    4.3980  -12.1920 F     2001  1FL2001    -0.2041
      6  CAG        9.4300    4.7670  -12.6650 C.ar  2001  1FL2001     0.0298
      7  CAH        8.3120    4.4700  -13.4630 C.ar  2001  1FL2001     0.0045
      8  CAO        8.3660    3.5530  -14.5470 C.ar  2001  1FL2001     0.0276
      9  CAP        7.1740    3.2530  -15.3740 C.ar  2001  1FL2001     0.0026
     10  CAI        7.1940    3.3810  -16.7540 C.ar  2001  1FL2001     0.0099
     11  CAJ        6.0610    3.0990  -17.5560 C.ar  2001  1FL2001     0.1186
     12  CAC        6.1350    3.2490  -19.0100 C.2   2001  1FL2001     0.3909
     13  OAD        7.2880    3.6640  -19.4990 O.co2 2001  1FL2001    -0.2404
     14  OAB        5.1650    3.0080  -19.7340 O.co2 2001  1FL2001    -0.2404
     15  CAQ        5.9660    2.8180  -14.7860 C.ar  2001  1FL2001     0.0034
     16  CAR        4.8200    2.5250  -15.5450 C.ar  2001  1FL2001     0.0423
     17  CAK        4.8810    2.6630  -16.9550 C.ar  2001  1FL2001     0.2020
     18  OAL        3.7660    2.3740  -17.6560 O.3   2001  1FL2001    -0.2863
@<TRIPOS>BOND
     1    14    12   ar
     2    13    12   ar
     3    12    11    1
     4    18    17    1
     5    11    17   ar
     6    11    10   ar
     7    17    16   ar
     8    10     9   ar
     9     1     2    1
    10    16    15   ar
    11     9    15   ar
    12     9     8    1
    13     2     8   ar
    14     2     3   ar
    15     8     7   ar
    16     3     4   ar
    17     7     6   ar
    18     4     6   ar
    19     4     5    1
