@<TRIPOS>MOLECULE
2bxf_DZP_A_1.pdb
 20 22 0 0 0
SMALL
GASTEIGER

@<TRIPOS>ATOM
      1  C1         9.5410   -3.6390  -15.3350 C.ar  2001  DZP2001     0.0000
      2  C2         9.5400   -3.9870  -13.9740 C.ar  2001  DZP2001     0.0000
      3  C3         9.3670   -2.9840  -13.0000 C.ar  2001  DZP2001     0.0000
      4  C4         9.1980   -1.6380  -13.3740 C.ar  2001  DZP2001     0.0015
      5  C5         9.0210    0.1790  -15.2140 C.2   2001  DZP2001     0.0777
      6  C6         8.9180    2.4780  -14.0750 C.ar  2001  DZP2001     0.0554
      7  C7         9.5840    3.4610  -13.2930 C.ar  2001  DZP2001     0.0158
      8  C8        10.9290    3.2850  -12.8710 C.ar  2001  DZP2001     0.0127
      9  C9        11.6100    2.0980  -13.2240 C.ar  2001  DZP2001     0.0578
     10  C11        9.3730   -2.2910  -15.7340 C.ar  2001  DZP2001     0.0015
     11  C12        9.1970   -1.2610  -14.7570 C.ar  2001  DZP2001     0.0173
     12  C13        9.6400    1.2690  -14.4030 C.ar  2001  DZP2001     0.0318
     13  C14       10.9880    1.1330  -13.9690 C.ar  2001  DZP2001     0.0141
     14  N15        8.3080    0.3980  -16.2930 N.2   2001  DZP2001    -0.2605
     15  C17        8.0940    1.7990  -16.7450 C.3   2001  DZP2001     0.2104
     16  C18        7.0840    2.4400  -15.8080 C.2   2001  DZP2001     0.2542
     17  C20        6.5590    3.2970  -13.5770 C.3   2001  DZP2001     0.1201
     18  N2         7.5410    2.7080  -14.5100 N.am  2001  DZP2001    -0.2552
     19  O1         5.9390    2.6770  -16.1590 O.2   2001  DZP2001    -0.2724
     20 CL         13.2820    1.8270  -12.7630 Cl    2001  DZP2001    -0.0822
@<TRIPOS>BOND
     1    15    14    1
     2    15    16    1
     3    14     5    2
     4    19    16    2
     5    16    18   am
     6    10     1   ar
     7    10    11   ar
     8     1     2   ar
     9     5    11    1
    10     5    12    1
    11    11     4   ar
    12    18     6    1
    13    18    17    1
    14    12     6   ar
    15    12    13   ar
    16     6     7   ar
    17     2     3   ar
    18    13     9   ar
    19     4     3   ar
    20     7     8   ar
    21     9     8   ar
    22     9    20    1
