@<TRIPOS>MOLECULE
2bxg_IBP_A_1.pdb
 15 15 0 0 0
SMALL
GASTEIGER

@<TRIPOS>ATOM
      1  C1         5.7520    3.0920  -17.2290 C.2   2001  IBP2001     0.3683
      2  C2        10.9990    2.8540  -13.3440 C.3   2001  IBP2001     0.0263
      3  C3        10.9330    2.9630  -11.8320 C.3   2001  IBP2001     0.0044
      4  C4        12.2240    3.5790  -11.3620 C.3   2001  IBP2001     0.0003
      5  C5        10.7690    1.6020  -11.1860 C.3   2001  IBP2001     0.0003
      6  C6         5.8310    2.0560  -16.1190 C.3   2001  IBP2001     0.1256
      7  C7         5.5290    0.7330  -16.6820 C.3   2001  IBP2001     0.0166
      8  C8         7.1550    2.2880  -15.3930 C.ar  2001  IBP2001    -0.0118
      9  C9         7.2290    3.1790  -14.2790 C.ar  2001  IBP2001    -0.0041
     10  C10        8.4720    3.3730  -13.6090 C.ar  2001  IBP2001    -0.0046
     11  C11        9.6740    2.6720  -14.0420 C.ar  2001  IBP2001    -0.0222
     12  C12        9.5790    1.7940  -15.1470 C.ar  2001  IBP2001    -0.0046
     13  C13        8.3480    1.6040  -15.8120 C.ar  2001  IBP2001    -0.0041
     14  O1         4.5350    3.2280  -17.6870 O.co2 2001  IBP2001    -0.2453
     15  O2         6.7110    3.7580  -17.6630 O.co2 2001  IBP2001    -0.2453
@<TRIPOS>BOND
     1    14     1   ar
     2    15     1   ar
     3     1     6    1
     4     7     6    1
     5     6     8    1
     6    13     8   ar
     7    13    12   ar
     8     8     9   ar
     9    12    11   ar
    10     9    10   ar
    11    11    10   ar
    12    11     2    1
    13     2     3    1
    14     3     4    1
    15     3     5    1
