@<TRIPOS>MOLECULE
2bxh_IOS_A_1.pdb
 14 15 0 0 0
SMALL
GASTEIGER

@<TRIPOS>ATOM
      1  O1         8.2820    1.6890  -15.1680 O.2   1001  IOS1001    -0.3614
      2  N1         9.1570    4.1150  -12.6010 N.2   1001  IOS1001    -0.2445
      3  C1         8.2900    3.5760  -13.5930 C.2   1001  IOS1001     0.1343
      4  C2         8.8520    2.4810  -14.1530 C.2   1001  IOS1001     0.1771
      5  C3        10.1110    2.2380  -13.5620 C.3   1001  IOS1001     0.1232
      6  C4        11.1280    1.2560  -13.7280 C.2   1001  IOS1001    -0.0128
      7  C5        12.2780    1.3520  -12.9250 C.2   1001  IOS1001    -0.0037
      8  C6        12.4120    2.4080  -11.9700 C.2   1001  IOS1001     0.0009
      9  C7        11.4260    3.3910  -11.7770 C.2   1001  IOS1001     0.0154
     10  C8        10.2680    3.2920  -12.5880 C.2   1001  IOS1001     0.0701
     11  S          7.0650    2.0740  -15.8430 S.3   1001  IOS1001     0.0423
     12  O2         6.6570    1.1320  -16.8350 O.2   1001  IOS1001    -0.3360
     13  O3         5.9610    2.2650  -14.9060 O.3   1001  IOS1001    -0.2589
     14  O4         7.2670    3.3000  -16.6320 O.2   1001  IOS1001    -0.3360
@<TRIPOS>BOND
     1    12    11    2
     2    14    11    2
     3    11     1    1
     4    11    13    1
     5     1     4    1
     6     4     3    2
     7     4     5    1
     8     6     5    1
     9     6     7    2
    10     3     2    1
    11     5    10    1
    12     7     8    1
    13     2    10    2
    14    10     9    1
    15     8     9    2
