@<TRIPOS>MOLECULE
2bxi_AZQ_A_1.pdb
 22 24 0 0 0
SMALL
GASTEIGER

@<TRIPOS>ATOM
      1  C1        31.0210   14.1370    9.6610 C.2   2001  AZQ2001     0.2541
      2  C2        30.6090   15.3040    9.0770 C.3   2001  AZQ2001     0.1567
      3  C3        31.6640   16.1860    8.7470 C.2   2001  AZQ2001     0.2569
      4  N1        32.8890   15.4980    9.1790 N.am  2001  AZQ2001    -0.1383
      5  C4        34.2920   15.7240    9.1700 C.2   2001  AZQ2001     0.2642
      6  N2        35.0790   14.9460   10.0070 N.2   2001  AZQ2001    -0.3743
      7  C5        34.5310   14.0600   11.0030 C.2   2001  AZQ2001     0.1316
      8  C6        35.2960   13.6860   12.1050 C.3   2001  AZQ2001     0.0861
      9  C7        34.6900   13.0880   13.2730 C.2   2001  AZQ2001    -0.0228
     10  C8        33.3280   12.8590   13.3520 C.2   2001  AZQ2001    -0.0243
     11  C9        32.5470   13.2430   12.1790 C.2   2001  AZQ2001     0.0143
     12  C10       33.1440   13.8380   10.9890 C.2   2001  AZQ2001     0.0989
     13  N3        32.4440   14.2550    9.7390 N.am  2001  AZQ2001    -0.1736
     14  O1        30.4210   13.1340   10.0820 O.2   2001  AZQ2001    -0.2725
     15  C11       29.1580   15.6030    8.8110 C.3   2001  AZQ2001     0.0185
     16  C12       28.5450   15.9810   10.3240 C.3   2001  AZQ2001     0.0010
     17  C13       27.5160   15.2600   10.4470 C.3   2001  AZQ2001     0.0000
     18  O2        31.7210   17.3170    8.2130 O.2   2001  AZQ2001    -0.2724
     19  N4        34.8860   16.5730    8.2850 N.pl3 2001  AZQ2001    -0.2666
     20  C14       34.4610   16.7890    6.8880 C.3   2001  AZQ2001     0.1159
     21  C15       36.0730   17.3310    8.7020 C.3   2001  AZQ2001     0.1159
     22  C16       32.6480   12.2430   14.5570 C.3   2001  AZQ2001     0.0307
@<TRIPOS>BOND
     1    20    19    1
     2    18     3    2
     3    19    21    1
     4    19     5    1
     5     3     2    1
     6     3     4   am
     7    15     2    1
     8    15    16    1
     9     2     1    1
    10     5     4    1
    11     5     6    2
    12     4    13    1
    13     1    13   am
    14     1    14    2
    15    13    12    1
    16     6     7    2
    17    16    17    1
    18    12     7    1
    19    12    11    2
    20     7     8    1
    21     8     9    1
    22    11    10    1
    23     9    10    2
    24    10    22    1
