@<TRIPOS>MOLECULE
2bxk_IMN_A_1.pdb
 25 27 0 0 0
SMALL
GASTEIGER

@<TRIPOS>ATOM
      1  C         27.1220    8.6360    9.4750 C.ar  2001  IMN2001     0.0664
      2  C1        27.3300   10.0160    9.7510 C.ar  2001  IMN2001     0.0169
      3  C2        28.1900   10.8160    8.9190 C.ar  2001  IMN2001     0.0381
      4  C3        28.8270   10.2240    7.8170 C.ar  2001  IMN2001     0.1388
      5  C4        28.6200    8.8500    7.5370 C.ar  2001  IMN2001     0.0384
      6  C5        27.7860    8.0500    8.3410 C.ar  2001  IMN2001     0.0207
      7  C6        29.3580   12.1990    6.5160 C.3   2001  IMN2001     0.2525
      8  C7        26.5570   10.3570   10.9190 C.ar  2001  IMN2001     0.0027
      9  C8        25.8910    9.2600   11.3690 C.ar  2001  IMN2001     0.0411
     10  C9        25.6480    6.7730   10.6920 C.2   2001  IMN2001     0.2644
     11  C10       26.0390    5.6610    9.7790 C.ar  2001  IMN2001     0.0565
     12  C11       27.2900    4.9980    9.8760 C.ar  2001  IMN2001     0.0056
     13  C12       27.6110    3.9540    8.9970 C.ar  2001  IMN2001     0.0115
     14  C13       26.6720    3.5720    8.0200 C.ar  2001  IMN2001     0.0577
     15  C14       25.4360    4.2080    7.9090 C.ar  2001  IMN2001     0.0115
     16  C15       25.1190    5.2490    8.7850 C.ar  2001  IMN2001     0.0056
     17  C16       24.9740    9.1850   12.5570 C.3   2001  IMN2001     0.0501
     18  C17       26.5120   11.7390   11.5160 C.3   2001  IMN2001     0.1415
     19  C18       25.8630   12.7310   10.5900 C.2   2001  IMN2001     0.3693
     20  N         26.2020    8.1310   10.5040 N.ar  2001  IMN2001    -0.2785
     21  O         29.6740   10.8710    6.9350 O.3   2001  IMN2001    -0.4714
     22  O1        24.8610    6.5470   11.5820 O.2   2001  IMN2001    -0.2666
     23  O2        24.5690   12.5760   10.4490 O.co2 2001  IMN2001    -0.2453
     24  O3        26.5000   13.5640    9.9860 O.co2 2001  IMN2001    -0.2453
     25 CL         27.0510    2.2930    6.9370 Cl    2001  IMN2001    -0.0822
@<TRIPOS>BOND
     1     7    21    1
     2    21     4    1
     3    25    14    1
     4     5     4   ar
     5     5     6   ar
     6     4     3   ar
     7    15    14   ar
     8    15    16   ar
     9    14    13   ar
    10     6     1   ar
    11    16    11   ar
    12     3     2   ar
    13    13    12   ar
    14     1     2   ar
    15     1    20   ar
    16     2     8   ar
    17    11    12   ar
    18    11    10    1
    19    24    19   ar
    20    23    19   ar
    21    20    10   am
    22    20     9   ar
    23    19    18    1
    24    10    22    2
    25     8     9   ar
    26     8    18    1
    27     9    17    1
