@<TRIPOS>MOLECULE
2bxk_AZQ_A_1.pdb
 22 24 0 0 0
SMALL
GASTEIGER

@<TRIPOS>ATOM
      1  C1        31.2900   13.9860    9.3430 C.2   2002  AZQ2002     0.2541
      2  C2        30.6050   15.1290    9.0010 C.3   2002  AZQ2002     0.1567
      3  C3        31.4340   16.1710    8.5370 C.2   2002  AZQ2002     0.2569
      4  N1        32.7880   15.6380    8.5880 N.am  2002  AZQ2002    -0.1383
      5  C4        34.0910   16.0670    8.2790 C.2   2002  AZQ2002     0.2642
      6  N2        35.1480   15.3670    8.8000 N.2   2002  AZQ2002    -0.3743
      7  C5        35.0030   14.3260    9.7690 C.2   2002  AZQ2002     0.1316
      8  C6        36.0720   13.9700   10.5780 C.3   2002  AZQ2002     0.0861
      9  C7        35.8750   13.1550   11.7460 C.2   2002  AZQ2002    -0.0228
     10  C8        34.6310   12.6910   12.1190 C.2   2002  AZQ2002    -0.0243
     11  C9        33.5240   13.0650   11.2510 C.2   2002  AZQ2002     0.0143
     12  C10       33.7030   13.8770   10.0600 C.2   2002  AZQ2002     0.0989
     13  N3        32.6530   14.3120    9.0950 N.am  2002  AZQ2002    -0.1736
     14  O1        30.9550   12.8700    9.7810 O.2   2002  AZQ2002    -0.2725
     15  C11       29.1090   15.2380    9.1160 C.3   2002  AZQ2002     0.0185
     16  C12       28.8800   16.3460   10.3430 C.3   2002  AZQ2002     0.0010
     17  C13       28.4130   15.6980   11.3090 C.3   2002  AZQ2002     0.0000
     18  O2        31.2300   17.3290    8.1300 O.2   2002  AZQ2002    -0.2724
     19  N4        34.3350   17.0580    7.4080 N.pl3 2002  AZQ2002    -0.2666
     20  C14       33.5960   17.3280    6.1550 C.3   2002  AZQ2002     0.1159
     21  C15       35.4550   17.9480    7.6880 C.3   2002  AZQ2002     0.1159
     22  C16       34.3910   11.8380   13.3450 C.3   2002  AZQ2002     0.0307
@<TRIPOS>BOND
     1    20    19    1
     2    19    21    1
     3    19     5    1
     4    18     3    2
     5     5     4    1
     6     5     6    2
     7     3     4   am
     8     3     2    1
     9     4    13    1
    10     6     7    2
    11     2    15    1
    12     2     1    1
    13    13     1   am
    14    13    12    1
    15    15    16    1
    16     1    14    2
    17     7    12    1
    18     7     8    1
    19    12    11    2
    20    16    17    1
    21     8     9    1
    22    11    10    1
    23     9    10    2
    24    10    22    1
