@<TRIPOS>MOLECULE
2bxl_DIU_A_1.pdb
 12 12 0 0 0
SMALL
GASTEIGER

@<TRIPOS>ATOM
      1  C         34.4220   13.9350   11.2480 C.2   3001  DIU3001     0.3909
      2  O1        33.2470   14.1560   11.6120 O.co2 3001  DIU3001    -0.2404
      3  O2        35.0440   12.9670   11.7530 O.co2 3001  DIU3001    -0.2404
      4  O3        32.8920   15.2470    9.1900 O.3   3001  DIU3001    -0.2859
      5  C1        35.0390   14.7650   10.2780 C.ar  3001  DIU3001     0.1194
      6  C2        34.2620   15.4110    9.2510 C.ar  3001  DIU3001     0.2073
      7  C3        34.9100   16.2360    8.2870 C.ar  3001  DIU3001     0.0696
      8  C4        36.3110   16.4180    8.3310 C.ar  3001  DIU3001     0.0148
      9  C5        37.0820   15.7930    9.3280 C.ar  3001  DIU3001     0.0309
     10  C6        36.4580   14.9610   10.3050 C.ar  3001  DIU3001     0.0156
     11  I1        33.8340   17.1560    6.8070 I     3001  DIU3001    -0.0392
     12  I2        39.1110   16.0900    9.3510 I     3001  DIU3001    -0.0425
@<TRIPOS>BOND
     1    11     7    1
     2     7     8   ar
     3     7     6   ar
     4     8     9   ar
     5     4     6    1
     6     6     5   ar
     7     9    12    1
     8     9    10   ar
     9     5    10   ar
    10     5     1    1
    11     1     2   ar
    12     1     3   ar
