@<TRIPOS>MOLECULE
2bxm_IMN_A_1.pdb
 25 27 0 0 0
SMALL
GASTEIGER

@<TRIPOS>ATOM
      1  C         27.1520    8.5260    9.5280 C.ar  2001  IMN2001     0.0664
      2  C1        27.3750    9.8880    9.8630 C.ar  2001  IMN2001     0.0169
      3  C2        28.2100   10.7130    9.0800 C.ar  2001  IMN2001     0.0381
      4  C3        28.8310   10.1940    7.9510 C.ar  2001  IMN2001     0.1388
      5  C4        28.6240    8.8270    7.5900 C.ar  2001  IMN2001     0.0384
      6  C5        27.7930    7.9840    8.3620 C.ar  2001  IMN2001     0.0207
      7  C6        29.7380   12.3430    7.2390 C.3   2001  IMN2001     0.2525
      8  C7        26.6470   10.2000   11.0340 C.ar  2001  IMN2001     0.0027
      9  C8        25.9750    9.1040   11.4530 C.ar  2001  IMN2001     0.0411
     10  C9        25.6750    6.6670   10.6940 C.2   2001  IMN2001     0.2644
     11  C10       26.0920    5.5480    9.8130 C.ar  2001  IMN2001     0.0565
     12  C11       25.2140    5.1690    8.7690 C.ar  2001  IMN2001     0.0056
     13  C12       25.5400    4.1120    7.9200 C.ar  2001  IMN2001     0.0115
     14  C13       26.7420    3.4280    8.1050 C.ar  2001  IMN2001     0.0577
     15  C14       27.6380    3.7810    9.1270 C.ar  2001  IMN2001     0.0115
     16  C15       27.3090    4.8420    9.9820 C.ar  2001  IMN2001     0.0056
     17  C16       25.0840    9.0080   12.6500 C.3   2001  IMN2001     0.0501
     18  C17       26.6550   11.5740   11.6700 C.3   2001  IMN2001     0.1415
     19  C18       25.9050   12.6280   10.8670 C.2   2001  IMN2001     0.3693
     20  N         26.2480    8.0030   10.5430 N.ar  2001  IMN2001    -0.2785
     21  O         29.6680   10.9160    7.1110 O.3   2001  IMN2001    -0.4714
     22  O1        24.8260    6.4620   11.5250 O.2   2001  IMN2001    -0.2666
     23  O2        24.6310   12.3710   10.6850 O.co2 2001  IMN2001    -0.2453
     24  O3        26.4490   13.6230   10.4190 O.co2 2001  IMN2001    -0.2453
     25 CL         27.1230    2.1200    7.0560 Cl    2001  IMN2001    -0.0822
@<TRIPOS>BOND
     1    25    14    1
     2    21     7    1
     3    21     4    1
     4     5     4   ar
     5     5     6   ar
     6    13    14   ar
     7    13    12   ar
     8     4     3   ar
     9    14    15   ar
    10     6     1   ar
    11    12    11   ar
    12     3     2   ar
    13    15    16   ar
    14     1     2   ar
    15     1    20   ar
    16    11    16   ar
    17    11    10    1
    18     2     8   ar
    19    24    19   ar
    20    20    10   am
    21    20     9   ar
    22    23    19   ar
    23    10    22    2
    24    19    18    1
    25     8     9   ar
    26     8    18    1
    27     9    17    1
