@<TRIPOS>MOLECULE
2bxn_IDB_A_1.pdb
 34 35 0 0 0
SMALL
GASTEIGER

@<TRIPOS>ATOM
      1  I1        24.4960    8.2500   12.5780 I     2001  IDB2001    -0.0409
      2  I2        28.7610    9.5120    8.2040 I     2001  IDB2001    -0.0411
      3  I3        25.8500    4.1840    8.1580 I     2001  IDB2001    -0.0423
      4  O1        27.0060    9.8950   13.0110 O.2   2001  IDB2001    -0.2730
      5  O2        23.2850    5.4830   10.3210 O.co2 2001  IDB2001    -0.2405
      6  O3        24.7760    4.8260   11.8390 O.co2 2001  IDB2001    -0.2405
      7  N1        26.9340   10.0210   10.7420 N.am  2001  IDB2001    -0.1783
      8  C1        25.4350    6.4590   10.2730 C.ar  2001  IDB2001     0.0918
      9  C2        25.6580    7.7560   10.8620 C.ar  2001  IDB2001     0.0526
     10  C3        26.6320    8.6680   10.2730 C.ar  2001  IDB2001     0.0842
     11  C4        27.3510    8.2390    9.1170 C.ar  2001  IDB2001     0.0462
     12  C5        27.1400    6.9590    8.5210 C.ar  2001  IDB2001     0.0131
     13  C6        26.1880    6.0730    9.0860 C.ar  2001  IDB2001     0.0373
     14  C7        27.1000   10.5550   11.9890 C.2   2001  IDB2001     0.2456
     15  C8        27.4080   12.0480   12.0070 C.3   2001  IDB2001     0.0872
     16  C9        24.4110    5.4970   10.8690 C.2   2001  IDB2001     0.3886
     17  C10       27.8450   12.5830   10.6530 C.3   2001  IDB2001     0.0101
     18  C11       28.3090   14.0390   10.6510 C.3   2001  IDB2001     0.0101
     19  I4        32.3280   13.3500   11.9490 I     2001  IDB2001    -0.0409
     20  I5        32.3330   17.0090    6.9920 I     2001  IDB2001    -0.0411
     21  I6        37.5280   15.1640    9.2980 I     2001  IDB2001    -0.0423
     22  O4        30.7290   13.1370    8.6040 O.2   2001  IDB2001    -0.2730
     23  O5        35.9230   12.4610   11.1410 O.co2 2001  IDB2001    -0.2405
     24  O6        35.7620   14.1870   12.5420 O.co2 2001  IDB2001    -0.2405
     25  N2        31.1310   15.1870    9.5170 N.am  2001  IDB2001    -0.1783
     26  C12       34.7530   14.4080   10.4230 C.ar  2001  IDB2001     0.0918
     27  C13       33.3270   14.4320   10.4430 C.ar  2001  IDB2001     0.0526
     28  C14       32.5810   15.1720    9.4710 C.ar  2001  IDB2001     0.0842
     29  C15       33.2950   15.8920    8.4670 C.ar  2001  IDB2001     0.0462
     30  C16       34.7100   15.8890    8.4180 C.ar  2001  IDB2001     0.0131
     31  C17       35.4340   15.1550    9.3850 C.ar  2001  IDB2001     0.0373
     32  C18       30.3040   14.1840    9.0900 C.2   2001  IDB2001     0.2456
     33  C19       28.8290   14.4520    9.2710 C.3   2001  IDB2001     0.0872
     34  C20       35.5530   13.6160   11.4670 C.2   2001  IDB2001     0.3886
@<TRIPOS>BOND
     1    20    29    1
     2     3    13    1
     3     2    11    1
     4    30    29   ar
     5    30    31   ar
     6    29    28   ar
     7    12    13   ar
     8    12    11   ar
     9    22    32    2
    10    13     8   ar
    11    32    33    1
    12    32    25   am
    13    11    10   ar
    14    33    18    1
    15    21    31    1
    16    31    26   ar
    17    28    25    1
    18    28    27   ar
    19    10     7    1
    20    10     9   ar
    21     8     9   ar
    22     8    16    1
    23     5    16   ar
    24    26    27   ar
    25    26    34    1
    26    27    19    1
    27    18    17    1
    28    17    15    1
    29     7    14   am
    30     9     1    1
    31    16     6   ar
    32    23    34   ar
    33    34    24   ar
    34    14    15    1
    35    14     4    2
