@<TRIPOS>MOLECULE
2bxo_OPB_A_1.pdb
 24 26 0 0 0
SMALL
GASTEIGER

@<TRIPOS>ATOM
      1  C16       33.6430   16.2190    6.0170 C.ar  2001  OPB2001     0.0013
      2  C17       33.7090   15.3870    7.1920 C.ar  2001  OPB2001     0.0166
      3  C12       33.0630   15.8380    8.3590 C.ar  2001  OPB2001     0.0734
      4  C13       32.3620   17.0900    8.3820 C.ar  2001  OPB2001     0.0166
      5  C14       32.3170   17.8670    7.2220 C.ar  2001  OPB2001     0.0013
      6  C15       32.9570   17.4330    6.0620 C.ar  2001  OPB2001     0.0001
      7  C8        37.1920   16.5420   10.3340 C.ar  2001  OPB2001     0.0434
      8  C9        38.2740   15.7230    9.8730 C.ar  2001  OPB2001     0.1958
      9  C10       38.0180   14.4570    9.4360 C.ar  2001  OPB2001     0.0434
     10  C11       36.7260   13.9370    9.4220 C.ar  2001  OPB2001     0.0199
     11  C6        35.6170   14.7470    9.8890 C.ar  2001  OPB2001     0.0736
     12  C7        35.8630   15.9950   10.3170 C.ar  2001  OPB2001     0.0199
     13  C21       29.8320    9.2570   10.9480 C.3   2001  OPB2001     0.0000
     14  C20       30.1230   10.4450   11.8780 C.3   2001  OPB2001     0.0000
     15  C19       30.9000   11.4650   10.9720 C.3   2001  OPB2001     0.0010
     16  C18       31.6180   12.4730   11.8760 C.3   2001  OPB2001     0.0185
     17  N2        33.1010   15.0690    9.5980 N.am  2001  OPB2001    -0.1788
     18  C3        31.9790   14.5750   10.2370 C.2   2001  OPB2001     0.2539
     19  C4        32.4750   13.3650   10.9890 C.3   2001  OPB2001     0.1566
     20  C5        33.8910   13.1890   10.7350 C.2   2001  OPB2001     0.2539
     21  N1        34.2840   14.2070    9.8780 N.am  2001  OPB2001    -0.1788
     22  O3        30.8660   15.0360   10.2020 O.2   2001  OPB2001    -0.2725
     23  O5        34.6380   12.2960   11.1800 O.2   2001  OPB2001    -0.2725
     24  O9        39.5380   16.2300    9.8890 O.3   2001  OPB2001    -0.2866
@<TRIPOS>BOND
     1     1     6   ar
     2     1     2   ar
     3     6     5   ar
     4     2     3   ar
     5     5     4   ar
     6     3     4   ar
     7     3    17    1
     8    10     9   ar
     9    10    11   ar
    10     9     8   ar
    11    17    21    1
    12    17    18   am
    13     8    24    1
    14     8     7   ar
    15    21    11    1
    16    21    20   am
    17    11    12   ar
    18    22    18    2
    19    18    19    1
    20    12     7   ar
    21    20    19    1
    22    20    23    2
    23    13    14    1
    24    15    16    1
    25    15    14    1
    26    19    16    1
