@<TRIPOS>MOLECULE
2bxp_P1Z_A_1.pdb
 23 25 0 0 0
SMALL
GASTEIGER

@<TRIPOS>ATOM
      1  C16       38.2730   14.4380    9.3840 C.ar  3001  P1Z3001     0.0013
      2  C17       36.9240   14.0470    9.2470 C.ar  3001  P1Z3001     0.0166
      3  C12       35.8860   15.0170    9.2040 C.ar  3001  P1Z3001     0.0734
      4  C13       36.2420   16.4020    9.3000 C.ar  3001  P1Z3001     0.0166
      5  C14       37.5960   16.7760    9.4330 C.ar  3001  P1Z3001     0.0013
      6  C15       38.6050   15.8030    9.4740 C.ar  3001  P1Z3001     0.0001
      7  C8        33.3110   17.5590    5.4000 C.ar  3001  P1Z3001     0.0013
      8  C9        33.8320   16.7100    4.4190 C.ar  3001  P1Z3001     0.0001
      9  C10       34.2640   15.4200    4.7740 C.ar  3001  P1Z3001     0.0013
     10  C11       34.1730   14.9760    6.1290 C.ar  3001  P1Z3001     0.0166
     11  C6        33.6400   15.8540    7.1130 C.ar  3001  P1Z3001     0.0734
     12  C7        33.2060   17.1550    6.7430 C.ar  3001  P1Z3001     0.0166
     13  C21       30.6190   10.0840    9.5120 C.3   3001  P1Z3001     0.0000
     14  C20       30.4490   11.1460   10.5350 C.3   3001  P1Z3001     0.0000
     15  C19       30.5400   12.5220   10.0290 C.3   3001  P1Z3001     0.0010
     16  C18       31.4350   13.4930   10.8790 C.3   3001  P1Z3001     0.0185
     17  N2        34.5200   14.5760    9.0460 N.am  3001  P1Z3001    -0.1788
     18  C3        33.8430   13.7310   10.0010 C.2   3001  P1Z3001     0.2539
     19  C4        32.5100   14.1140   10.0300 C.3   3001  P1Z3001     0.1566
     20  C5        32.2900   15.1640    9.1500 C.2   3001  P1Z3001     0.2539
     21  N1        33.5280   15.4910    8.5210 N.am  3001  P1Z3001    -0.1788
     22  O3        34.4540   12.8350   10.6370 O.2   3001  P1Z3001    -0.2725
     23  O5        31.2270   15.7930    8.8890 O.2   3001  P1Z3001    -0.2725
@<TRIPOS>BOND
     1     8     9   ar
     2     8     7   ar
     3     9    10   ar
     4     7    12   ar
     5    10    11   ar
     6    12    11   ar
     7    11    21    1
     8    21    17    1
     9    21    20   am
    10    23    20    2
    11    17     3    1
    12    17    18   am
    13    20    19    1
    14     3     2   ar
    15     3     4   ar
    16     2     1   ar
    17     4     5   ar
    18     1     6   ar
    19     5     6   ar
    20    13    14    1
    21    18    19    1
    22    18    22    2
    23    15    14    1
    24    15    16    1
    25    19    16    1
