@<TRIPOS>MOLECULE
2bxq_IMN_A_1.pdb
 25 27 0 0 0
SMALL
GASTEIGER

@<TRIPOS>ATOM
      1  C         27.4050    9.3170    9.5350 C.ar  2001  IMN2001     0.0664
      2  C1        27.3560   10.7420    9.6450 C.ar  2001  IMN2001     0.0169
      3  C2        27.9790   11.5780    8.6710 C.ar  2001  IMN2001     0.0381
      4  C3        28.6470   10.9830    7.5860 C.ar  2001  IMN2001     0.1388
      5  C4        28.7000    9.5580    7.4710 C.ar  2001  IMN2001     0.0384
      6  C5        28.0920    8.7220    8.4250 C.ar  2001  IMN2001     0.0207
      7  C6        29.5220   13.0740    6.6870 C.3   2001  IMN2001     0.2525
      8  C7        26.6230   11.0790   10.8260 C.ar  2001  IMN2001     0.0027
      9  C8        26.2120    9.9330   11.4460 C.ar  2001  IMN2001     0.0411
     10  C9        26.4290    7.3840   11.0500 C.2   2001  IMN2001     0.2644
     11  C10       26.5400    6.2870   10.0410 C.ar  2001  IMN2001     0.0565
     12  C11       27.6960    5.4660    9.9810 C.ar  2001  IMN2001     0.0056
     13  C12       27.8020    4.4300    9.0490 C.ar  2001  IMN2001     0.0115
     14  C13       26.7420    4.2010    8.1580 C.ar  2001  IMN2001     0.0577
     15  C14       25.5800    4.9980    8.1880 C.ar  2001  IMN2001     0.0115
     16  C15       25.4760    6.0420    9.1310 C.ar  2001  IMN2001     0.0056
     17  C16       25.4150    9.8290   12.7110 C.3   2001  IMN2001     0.0501
     18  C17       26.3680   12.5050   11.2740 C.3   2001  IMN2001     0.1415
     19  C18       25.2220   13.2030   10.5810 C.2   2001  IMN2001     0.3693
     20  N         26.6800    8.7840   10.6780 N.ar  2001  IMN2001    -0.2785
     21  O         29.2940   11.6680    6.5650 O.3   2001  IMN2001    -0.4714
     22  O1        26.1500    7.1030   12.1860 O.2   2001  IMN2001    -0.2666
     23  O2        24.1550   12.4630   10.4040 O.co2 2001  IMN2001    -0.2453
     24  O3        25.2830   14.3630   10.2330 O.co2 2001  IMN2001    -0.2453
     25 CL         26.8780    2.9110    7.0080 Cl    2001  IMN2001    -0.0822
@<TRIPOS>BOND
     1    21     7    1
     2    21     4    1
     3    25    14    1
     4     5     4   ar
     5     5     6   ar
     6     4     3   ar
     7    14    15   ar
     8    14    13   ar
     9    15    16   ar
    10     6     1   ar
    11     3     2   ar
    12    13    12   ar
    13    16    11   ar
    14     1     2   ar
    15     1    20   ar
    16     2     8   ar
    17    12    11   ar
    18    11    10    1
    19    24    19   ar
    20    23    19   ar
    21    19    18    1
    22    20    10   am
    23    20     9   ar
    24     8    18    1
    25     8     9   ar
    26    10    22    2
    27     9    17    1
