@<TRIPOS>MOLECULE
2bxq_P1Z_A_1.pdb
 23 25 0 0 0
SMALL
GASTEIGER

@<TRIPOS>ATOM
      1  C16       38.3330   14.8510    9.0790 C.ar  2002  P1Z2002     0.0013
      2  C17       36.9840   14.5010    9.0540 C.ar  2002  P1Z2002     0.0166
      3  C12       35.9580   15.4210    9.3990 C.ar  2002  P1Z2002     0.0734
      4  C13       36.3210   16.7470    9.7800 C.ar  2002  P1Z2002     0.0166
      5  C14       37.6980   17.0950    9.7980 C.ar  2002  P1Z2002     0.0013
      6  C15       38.6990   16.1530    9.4500 C.ar  2002  P1Z2002     0.0001
      7  C8        33.1840   18.2510    6.1240 C.ar  2002  P1Z2002     0.0013
      8  C9        33.6310   17.5200    5.0090 C.ar  2002  P1Z2002     0.0001
      9  C10       34.0470   16.1850    5.1720 C.ar  2002  P1Z2002     0.0013
     10  C11       34.0220   15.5850    6.4640 C.ar  2002  P1Z2002     0.0166
     11  C6        33.5750   16.3470    7.5740 C.ar  2002  P1Z2002     0.0734
     12  C7        33.1520   17.6860    7.4030 C.ar  2002  P1Z2002     0.0166
     13  C21       30.8540    9.7610   10.7060 C.3   2002  P1Z2002     0.0000
     14  C20       30.8330   11.1410   11.2460 C.3   2002  P1Z2002     0.0000
     15  C19       31.4260   12.1440   10.3740 C.3   2002  P1Z2002     0.0010
     16  C18       31.7390   13.4880   11.0800 C.3   2002  P1Z2002     0.0185
     17  N2        34.6200   14.9500    9.3090 N.am  2002  P1Z2002    -0.1788
     18  C3        34.0760   13.9720   10.1920 C.2   2002  P1Z2002     0.2539
     19  C4        32.7190   14.2470   10.2840 C.3   2002  P1Z2002     0.1566
     20  C5        32.3850   15.3410    9.5290 C.2   2002  P1Z2002     0.2539
     21  N1        33.5490   15.8260    8.9110 N.am  2002  P1Z2002    -0.1788
     22  O3        34.7810   13.0650   10.7230 O.2   2002  P1Z2002    -0.2725
     23  O5        31.2800   15.8950    9.3540 O.2   2002  P1Z2002    -0.2725
@<TRIPOS>BOND
     1     8     9   ar
     2     8     7   ar
     3     9    10   ar
     4     7    12   ar
     5    10    11   ar
     6    12    11   ar
     7    11    21    1
     8    21    17    1
     9    21    20   am
    10     2     1   ar
    11     2     3   ar
    12     1     6   ar
    13    17     3    1
    14    17    18   am
    15    23    20    2
    16     3     4   ar
    17     6     5   ar
    18    20    19    1
    19     4     5   ar
    20    18    19    1
    21    18    22    2
    22    19    16    1
    23    15    16    1
    24    15    14    1
    25    13    14    1
