@<TRIPOS>MOLECULE
2bxr_MLG_A_1.pdb
 17 17 0 0 0
SMALL
GASTEIGER

@<TRIPOS>ATOM
      1  C06       18.0310    1.6160    6.7860 C.ar  601  MLG601      0.0386
      2  C05       16.6780    1.5860    6.4370 C.ar  601  MLG601      0.0146
      3  C04       16.2210    2.2800    5.3200 C.ar  601  MLG601      0.0587
      4 CL08       14.5860    2.2870    4.8410 Cl    601  MLG601     -0.0822
      5  C03       17.1110    2.9950    4.5560 C.ar  601  MLG601      0.0258
      6  C02       18.4390    3.0070    4.9120 C.ar  601  MLG601      0.0924
      7 CL07       19.4640    3.8980    3.9310 Cl    601  MLG601     -0.0791
      8  C01       18.9400    2.3380    6.0080 C.ar  601  MLG601      0.1490
      9  O09       20.2960    2.3860    6.3000 O.3   601  MLG601     -0.4746
     10  C11       22.3020    1.4350    7.4530 C.3   601  MLG601      0.0646
     11  C10       20.8040    1.3450    7.1730 C.3   601  MLG601      0.2069
     12  C12       23.0600    0.6010    6.4130 C.3   601  MLG601      0.0760
     13  N13       23.5680    1.5260    5.4070 N.3   601  MLG601     -0.2714
     14  C17       22.8160    1.8210    4.1930 C.3   601  MLG601      0.0896
     15  C14       24.7420    2.1400    5.7060 C.3   601  MLG601      0.0721
     16  C15       25.3550    3.0750    4.8040 C.3   601  MLG601      0.0173
     17  C16       26.6290    3.6590    5.3750 C.3   601  MLG601      0.0015
@<TRIPOS>BOND
     1     7     6    1
     2    14    13    1
     3     5     6   ar
     4     5     3   ar
     5    16    17    1
     6    16    15    1
     7     4     3    1
     8     6     8   ar
     9     3     2   ar
    10    13    15    1
    11    13    12    1
    12     8     9    1
    13     8     1   ar
    14     9    11    1
    15    12    10    1
    16     2     1   ar
    17    11    10    1
