@<TRIPOS>MOLECULE
2bxs_MLG_A_1.pdb
 17 17 0 0 0
SMALL
GASTEIGER

@<TRIPOS>ATOM
      1  C06        7.6870  124.8780   52.0870 C.ar  601  MLG601      0.0386
      2  C05        6.4000  125.2110   51.6990 C.ar  601  MLG601      0.0146
      3  C04        6.2150  126.0400   50.6100 C.ar  601  MLG601      0.0587
      4 CL08        4.6890  126.4560   50.1050 Cl    601  MLG601     -0.0822
      5  C03        7.2290  126.5660   49.8860 C.ar  601  MLG601      0.0258
      6  C02        8.4900  126.2250   50.2780 C.ar  601  MLG601      0.0924
      7 CL07        9.7280  126.8910   49.3580 Cl    601  MLG601     -0.0791
      8  C01        8.7450  125.3950   51.3510 C.ar  601  MLG601      0.1490
      9  O09       10.0210  125.0860   51.6980 O.3   601  MLG601     -0.4746
     10  C11       11.2520  123.5060   52.8600 C.3   601  MLG601      0.0646
     11  C10       10.2500  124.6240   53.0190 C.3   601  MLG601      0.2069
     12  C12       11.9910  123.7370   51.5630 C.3   601  MLG601      0.0763
     13  N13       12.9470  124.8110   51.7700 N.3   601  MLG601     -0.2676
     14  C17       12.8690  125.9080   50.8270 C.3   601  MLG601      0.0899
     15  C14       13.8710  124.8090   52.7850 C.3   601  MLG601      0.0989
     16  C15       14.7230  125.8680   52.8940 C.2   601  MLG601     -0.0088
     17  C16       15.6940  126.0030   53.8400 C.2   601  MLG601     -0.0035
@<TRIPOS>BOND
     1     7     6    1
     2     5     6   ar
     3     5     3   ar
     4     4     3    1
     5     6     8   ar
     6     3     2   ar
     7    14    13    1
     8     8     9    1
     9     8     1   ar
    10    12    13    1
    11    12    10    1
    12     9    11    1
    13     2     1   ar
    14    13    15    1
    15    15    16    1
    16    10    11    1
    17    16    17    2
