@<TRIPOS>MOLECULE
2bxt_C2D_H_1.pdb
 31 34 0 0 0
SMALL
GASTEIGER

@<TRIPOS>ATOM
      1  O1        12.1720  -13.1210   13.0270 O.2   1246  C2D1246    -0.2638
      2 CL2        16.4230   -8.3340   11.0040 Cl    1246  C2D1246    -0.0822
      3 CL3         8.1380  -12.6370   15.9790 Cl    1246  C2D1246    -0.0614
      4  C4        17.7400  -10.7330   11.4800 C.ar  1246  C2D1246     0.0119
      5  C5        17.9060  -11.9740   12.1890 C.ar  1246  C2D1246     0.0073
      6  C6        16.6740   -9.8360   11.8280 C.ar  1246  C2D1246     0.0577
      7  C7        16.9910  -12.3030   13.2350 C.ar  1246  C2D1246     0.0293
      8  C8        15.7810  -10.1800   12.8680 C.ar  1246  C2D1246     0.0116
      9  C9        15.9530  -11.4110   13.5560 C.ar  1246  C2D1246     0.0047
     10  S10       16.8950  -13.6270   14.2040 S.2   1246  C2D1246    -0.0867
     11  C11       15.6100  -13.1120   15.0260 C.ar  1246  C2D1246     0.0326
     12  C12       15.1540  -11.8700   14.5810 C.ar  1246  C2D1246     0.0022
     13  C13       13.9720  -11.0570   15.0700 C.3   1246  C2D1246     0.1156
     14  N14       13.2670  -11.6180   16.2400 N.3   1246  C2D1246    -0.2112
     15  C15       11.9170  -12.2650   16.1350 C.3   1246  C2D1246     0.1136
     16  C16       10.9320  -11.7610   15.0440 C.3   1246  C2D1246     0.1287
     17  C17        9.0200  -13.4190   14.7130 C.ar  1246  C2D1246     0.1406
     18  N18       10.3150  -12.9200   14.3470 N.ar  1246  C2D1246    -0.2814
     19  C19        8.4900  -14.4800   14.0630 C.ar  1246  C2D1246     0.1295
     20  C20       11.0600  -13.5400   13.3280 C.ar  1246  C2D1246     0.2947
     21  N21        9.2660  -15.1550   12.9640 N.ar  1246  C2D1246    -0.2210
     22  C22       10.4700  -14.7210   12.6170 C.ar  1246  C2D1246     0.2049
     23  N23       11.1940  -15.3270   11.6050 N.pl3 1246  C2D1246    -0.2160
     24  C24       10.8610  -16.4970   10.7460 C.3   1246  C2D1246     0.1203
     25  C25       10.1250  -16.0740    9.4490 C.3   1246  C2D1246     0.0692
     26  C26        7.7090  -16.1510   10.2640 C.ar  1246  C2D1246     0.0148
     27  C27        8.7970  -15.4260    9.7580 C.ar  1246  C2D1246     0.0608
     28  C28        6.5040  -15.4720   10.5520 C.ar  1246  C2D1246     0.0028
     29  N29        8.6570  -14.0420    9.5630 N.ar  1246  C2D1246    -0.2481
     30  C30        6.3750  -14.0910   10.3410 C.ar  1246  C2D1246     0.0207
     31  C31        7.4620  -13.3670    9.8370 C.ar  1246  C2D1246     0.0984
@<TRIPOS>BOND
     1    25    27    1
     2    25    24    1
     3    29    27   ar
     4    29    31   ar
     5    27    26   ar
     6    31    30   ar
     7    26    28   ar
     8    30    28   ar
     9    24    23    1
    10     2     6    1
    11     4     6   ar
    12     4     5   ar
    13    23    22    1
    14     6     8   ar
    15     5     7   ar
    16    22    21   ar
    17    22    20   ar
    18     8     9   ar
    19    21    19   ar
    20     1    20    2
    21     7     9   ar
    22     7    10   ar
    23    20    18   ar
    24     9    12   ar
    25    19    17   ar
    26    10    11   ar
    27    18    17   ar
    28    18    16    1
    29    12    11   ar
    30    12    13    1
    31    17     3    1
    32    16    15    1
    33    13    14    1
    34    15    14    1
