@<TRIPOS>MOLECULE
2bxu_C1D_H_1.pdb
 31 33 0 0 0
SMALL
GASTEIGER

@<TRIPOS>ATOM
      1  C1         6.4780  -15.3240   10.8540 C.ar  1246  C1D1246     0.0986
      2  N2         7.6680  -16.0430   10.5970 N.ar  1246  C1D1246    -0.2428
      3  C3         8.7030  -15.5060    9.8000 C.ar  1246  C1D1246     0.1208
      4  C4         8.5330  -14.2160    9.2490 C.ar  1246  C1D1246     0.0202
      5  C5         7.3440  -13.4990    9.5060 C.ar  1246  C1D1246     0.0030
      6  C6         6.3160  -14.0430   10.3050 C.ar  1246  C1D1246     0.0207
      7  C11        9.9860  -16.3030    9.5440 C.3   1246  C1D1246     0.3180
      8  C12       10.6690  -16.7460   10.8490 C.3   1246  C1D1246     0.1862
      9  F13        9.6920  -17.4090    8.8240 F     1246  C1D1246    -0.1960
     10  F14       10.8780  -15.5660    8.8430 F     1246  C1D1246    -0.1960
     11  N15       11.1960  -15.5770   11.6040 N.pl3 1246  C1D1246    -0.2101
     12  C18       10.5960  -14.9140   12.6740 C.ar  1246  C1D1246     0.2051
     13  C19       11.2160  -13.6760   13.2560 C.ar  1246  C1D1246     0.2947
     14  N20       10.5820  -13.0140   14.3540 N.ar  1246  C1D1246    -0.2814
     15  C21        9.3540  -13.5530   14.8690 C.ar  1246  C1D1246     0.1406
     16  C22        8.8080  -14.6710   14.3300 C.ar  1246  C1D1246     0.1295
     17  N23        9.4720  -15.3660   13.1850 N.ar  1246  C1D1246    -0.2210
     18  C24       11.2060  -11.7750   14.9370 C.3   1246  C1D1246     0.1287
     19  C25       12.4770  -12.0280   15.8010 C.3   1246  C1D1246     0.1133
     20  N28       13.5890  -12.7190   15.0930 N.3   1246  C1D1246    -0.2152
     21  C29       14.7690  -11.8430   15.2220 C.3   1246  C1D1246     0.0998
     22  C30       15.6930  -11.6910   14.0010 C.3   1246  C1D1246     0.0876
     23  C33       15.8260  -10.3840   13.5000 C.2   1246  C1D1246    -0.0142
     24  C34       16.6330  -10.0880   12.3890 C.2   1246  C1D1246     0.0466
     25  C2        16.3490  -14.1870   13.7940 C.3   1246  C1D1246     0.0619
     26  C35       17.3300  -11.1220   11.7540 C.2   1246  C1D1246     0.2181
     27  C37       16.4060  -12.7420   13.3540 C.2   1246  C1D1246     0.0939
     28  O42       12.2550  -13.2530   12.7870 O.2   1246  C1D1246    -0.2638
     29  N6        18.1420  -10.8360   10.6330 N.pl3 1246  C1D1246    -0.0932
     30 CL43        8.5210  -12.8130   16.1890 Cl    1246  C1D1246    -0.0614
     31  N29       17.2100  -12.4330   12.2410 N.2   1246  C1D1246    -0.3921
@<TRIPOS>BOND
     1     9     7    1
     2    10     7    1
     3     4     5   ar
     4     4     3   ar
     5     5     6   ar
     6     7     3    1
     7     7     8    1
     8     3     2   ar
     9     6     1   ar
    10     2     1   ar
    11    29    26    1
    12     8    11    1
    13    11    12    1
    14    26    31    2
    15    26    24    1
    16    31    27    2
    17    24    23    2
    18    12    17   ar
    19    12    13   ar
    20    28    13    2
    21    17    16   ar
    22    13    14   ar
    23    27    25    1
    24    27    22    1
    25    23    22    1
    26    22    21    1
    27    16    15   ar
    28    14    15   ar
    29    14    18    1
    30    15    30    1
    31    18    19    1
    32    20    21    1
    33    20    19    1
