@<TRIPOS>MOLECULE
2bxv_3FT_A_1.pdb
 29 31 0 0 0
SMALL
GASTEIGER

@<TRIPOS>ATOM
      1  C1        35.4660   47.2920   40.5860 C.ar  1401  3FT1401     0.0031
      2  C2        34.9900   48.2080   41.5610 C.ar  1401  3FT1401     0.0372
      3  C3        35.4880   48.1650   42.9090 C.ar  1401  3FT1401     0.1468
      4  O4        35.0040   49.0730   43.8460 O.3   1401  3FT1401    -0.4045
      5  C5        33.7670   48.6330   44.4960 C.3   1401  3FT1401     0.5753
      6  F6        33.9450   47.4630   45.1830 F     1401  3FT1401    -0.1328
      7  F7        33.3890   49.5920   45.3750 F     1401  3FT1401    -0.1328
      8  F8        32.7440   48.4710   43.6040 F     1401  3FT1401    -0.1328
      9  C9        36.4860   47.1830   43.2700 C.ar  1401  3FT1401     0.0372
     10  C10       36.9750   46.2500   42.2810 C.ar  1401  3FT1401     0.0031
     11  C11       37.9390   45.2320   42.5640 C.ar  1401  3FT1401     0.0024
     12  C12       36.4410   46.3260   40.9360 C.ar  1401  3FT1401     0.0002
     13  C13       39.0470   44.9810   41.6700 C.ar  1401  3FT1401     0.0310
     14  C14       39.9690   43.9250   41.9290 C.ar  1401  3FT1401     0.1553
     15  F15       40.9570   43.7230   41.0790 F     1401  3FT1401    -0.2028
     16  C16       39.8110   43.0870   43.0830 C.ar  1401  3FT1401     0.1010
     17  N17       40.7060   42.0310   43.2920 N.am  1401  3FT1401    -0.1734
     18  C18       38.7160   43.3440   43.9840 C.ar  1401  3FT1401     0.0189
     19  C19       37.7940   44.3990   43.7280 C.ar  1401  3FT1401     0.0015
     20  C20       41.3040   41.4750   44.4220 C.2   1401  3FT1401     0.2650
     21  C21       42.1900   40.3070   44.3910 C.2   1401  3FT1401     0.0355
     22  O22       41.0580   41.9900   45.5210 O.2   1401  3FT1401    -0.2684
     23  C23       42.6010   39.5500   43.3440 C.2   1401  3FT1401     0.0580
     24  C24       43.5000   38.4680   43.8320 C.3   1401  3FT1401     0.0332
     25  C25       43.9620   39.0100   45.1590 C.3   1401  3FT1401     0.0097
     26  C26       42.7780   39.7920   45.6600 C.3   1401  3FT1401     0.0313
     27  C27       42.2930   39.6440   41.9040 C.2   1401  3FT1401     0.3837
     28  O28       41.7290   40.6140   41.3930 O.co2 1401  3FT1401    -0.2409
     29  O29       42.6350   38.6030   41.0930 O.co2 1401  3FT1401    -0.2409
@<TRIPOS>BOND
     1     1    12   ar
     2     1     2   ar
     3    12    10   ar
     4    15    14    1
     5    29    27   ar
     6    28    27   ar
     7     2     3   ar
     8    13    14   ar
     9    13    11   ar
    10    27    23    1
    11    14    16   ar
    12    10    11    1
    13    10     9   ar
    14    11    19   ar
    15     3     9   ar
    16     3     4    1
    17    16    17    1
    18    16    18   ar
    19    17    20   am
    20    23    24    1
    21    23    21    2
    22     8     5    1
    23    19    18   ar
    24    24    25    1
    25     4     5    1
    26    21    20    1
    27    21    26    1
    28    20    22    2
    29     5     6    1
    30     5     7    1
    31    25    26    1
