@<TRIPOS>MOLECULE
2bxv_FMN_A_1.pdb
 31 33 0 0 0
SMALL
GASTEIGER

@<TRIPOS>ATOM
      1  N1        48.8770   36.0890   32.3900 N.2   1399  FMN1399    -0.2890
      2  C2        48.5040   35.4550   31.2450 C.1   1399  FMN1399     0.3669
      3  O2        49.0690   35.5630   30.1870 O.2   1399  FMN1399    -0.1744
      4  N3        47.3520   34.5990   31.3080 N.2   1399  FMN1399    -0.2300
      5  C4        46.6130   34.3810   32.4360 C.1   1399  FMN1399     0.2513
      6  O4        45.6240   33.6180   32.3990 O.2   1399  FMN1399    -0.2057
      7  C4A       47.0200   35.0670   33.6620 C.2   1399  FMN1399     0.2700
      8  N5        46.3520   34.9130   34.8080 N.2   1399  FMN1399    -0.3878
      9  C5A       46.7580   35.5900   35.9360 C.2   1399  FMN1399     0.1320
     10  C6        46.0470   35.4680   37.2000 C.2   1399  FMN1399     0.0250
     11  C7        46.4050   36.1410   38.3480 C.2   1399  FMN1399    -0.0238
     12  C7M       45.6330   36.0060   39.6680 C.3   1399  FMN1399     0.0308
     13  C8        47.5690   37.0330   38.3080 C.2   1399  FMN1399    -0.0280
     14  C8M       48.0450   37.8280   39.4940 C.3   1399  FMN1399     0.0304
     15  C9        48.2590   37.1510   37.1120 C.2   1399  FMN1399    -0.0041
     16  C9A       47.9090   36.4750   35.9220 C.3   1399  FMN1399     0.1497
     17  N10       48.6050   36.5990   34.6800 N.pl3 1399  FMN1399    -0.2691
     18  C10       48.2190   35.9440   33.5390 C.2   1399  FMN1399     0.2416
     19  C1'       49.7960   37.4830   34.6160 C.3   1399  FMN1399     0.1294
     20  C2'       49.5350   38.9510   34.3730 C.3   1399  FMN1399     0.2044
     21  O2'       48.9220   39.1540   33.0820 O.3   1399  FMN1399    -0.2185
     22  C3'       50.8560   39.7640   34.3830 C.3   1399  FMN1399     0.2164
     23  O3'       51.7300   39.2770   33.3210 O.3   1399  FMN1399    -0.2175
     24  C4'       51.6520   39.6600   35.6940 C.3   1399  FMN1399     0.2147
     25  O4'       50.7630   39.4650   36.8210 O.3   1399  FMN1399    -0.2176
     26  C5'       52.5010   40.8710   35.9930 C.3   1399  FMN1399     0.1892
     27  O5'       51.7120   42.0540   36.1270 O.3   1399  FMN1399    -0.2674
     28  P         51.2830   42.7180   37.5100 P.3   1399  FMN1399     0.5327
     29  O1P       50.7600   44.0640   37.1380 O.2   1399  FMN1399    -0.2224
     30  O2P       50.1970   41.8120   38.0750 O.3   1399  FMN1399    -0.1145
     31  O3P       52.5510   42.7260   38.3800 O.3   1399  FMN1399    -0.1145
@<TRIPOS>BOND
     1     3     2    2
     2     2     4    2
     3     2     1    2
     4     4     5    2
     5     1    18    2
     6     6     5    2
     7     5     7    1
     8    21    20    1
     9    23    22    1
    10    18     7    1
    11    18    17    1
    12     7     8    2
    13    20    22    1
    14    20    19    1
    15    22    24    1
    16    19    17    1
    17    17    16    1
    18     8     9    2
    19    24    26    1
    20    24    25    1
    21    16     9    1
    22    16    15    1
    23     9    10    1
    24    26    27    1
    25    27    28    1
    26    15    13    2
    27    29    28    2
    28    10    11    2
    29    28    30    1
    30    28    31    1
    31    13    11    1
    32    13    14    1
    33    11    12    1
