@<TRIPOS>MOLECULE
2bxy_GLC_A_1.pdb
 12 12 0 0 0
SMALL
GASTEIGER

@<TRIPOS>ATOM
      1  C1        43.5590    0.0810   16.1210 C.3   1605  GLC1605     0.3024
      2  C2        42.2570    0.0420   15.3530 C.3   1605  GLC1605     0.2434
      3  C3        41.7120   -1.3630   15.5590 C.3   1605  GLC1605     0.2199
      4  C4        42.7360   -2.4080   15.0900 C.3   1605  GLC1605     0.2144
      5  C5        44.1660   -2.0590   15.5460 C.3   1605  GLC1605     0.1836
      6  C6        45.2560   -2.8750   14.8640 C.3   1605  GLC1605     0.2142
      7  O1        43.9930    1.3980   16.3170 O.3   1605  GLC1605    -0.1869
      8  O2        41.3680    1.0150   15.8380 O.3   1605  GLC1605    -0.2148
      9  O3        40.4580   -1.4980   14.9200 O.3   1605  GLC1605    -0.2174
     10  O4        42.3570   -3.6230   15.6730 O.3   1605  GLC1605    -0.2176
     11  O5        44.4620   -0.6890   15.3500 O.3   1605  GLC1605    -0.3236
     12  O6        46.4660   -2.4630   15.4770 O.3   1605  GLC1605    -0.2176
@<TRIPOS>BOND
     1     6    12    1
     2     6     5    1
     3     9     3    1
     4     4     5    1
     5     4     3    1
     6     4    10    1
     7    11     5    1
     8    11     1    1
     9     2     3    1
    10     2     8    1
    11     2     1    1
    12     1     7    1
