@<TRIPOS>MOLECULE
2bxy_TRE_A_1.pdb
 23 24 0 0 0
SMALL
GASTEIGER

@<TRIPOS>ATOM
      1  C1        51.3930  -19.5790   24.4980 C.3   1604  TRE1604     0.2713
      2  C2        51.5190  -18.2770   25.3120 C.3   1604  TRE1604     0.2406
      3  C3        51.8060  -17.0400   24.3870 C.3   1604  TRE1604     0.2198
      4  C4        52.9760  -17.3300   23.4310 C.3   1604  TRE1604     0.2144
      5  C5        52.7170  -18.6440   22.6470 C.3   1604  TRE1604     0.1835
      6  C6        53.8980  -19.0910   21.7460 C.3   1604  TRE1604     0.2142
      7  O1        50.1780  -19.5770   23.8020 O.3   1604  TRE1604    -0.3016
      8  O2        50.3290  -18.0380   26.0590 O.3   1604  TRE1604    -0.2149
      9  O3        52.1430  -15.9570   25.2240 O.3   1604  TRE1604    -0.2174
     10  O4        53.1760  -16.2240   22.5290 O.3   1604  TRE1604    -0.2176
     11  O5        52.5030  -19.7210   23.6070 O.3   1604  TRE1604    -0.3256
     12  O6        53.3710  -20.1400   20.8980 O.3   1604  TRE1604    -0.2176
     13  C1P       49.9180  -20.9230   23.2940 C.3   1604  TRE1604     0.2713
     14  C2P       48.7540  -20.8330   22.3000 C.3   1604  TRE1604     0.2406
     15  C3P       47.4540  -20.4010   23.0150 C.3   1604  TRE1604     0.2198
     16  C4P       47.1810  -21.3390   24.1910 C.3   1604  TRE1604     0.2144
     17  C5P       48.4000  -21.4000   25.1160 C.3   1604  TRE1604     0.1835
     18  C6P       48.1220  -22.3830   26.2670 C.3   1604  TRE1604     0.2142
     19  O2P       49.1220  -19.8850   21.2960 O.3   1604  TRE1604    -0.2149
     20  O3P       46.3120  -20.3800   22.1210 O.3   1604  TRE1604    -0.2174
     21  O4P       46.0660  -20.8820   24.9460 O.3   1604  TRE1604    -0.2176
     22  O5P       49.6050  -21.8160   24.3950 O.3   1604  TRE1604    -0.3256
     23  O6P       49.2640  -22.3850   27.0920 O.3   1604  TRE1604    -0.2176
@<TRIPOS>BOND
     1    12     6    1
     2    19    14    1
     3     6     5    1
     4    20    15    1
     5    14    15    1
     6    14    13    1
     7    10     4    1
     8     5     4    1
     9     5    11    1
    10    15    16    1
    11    13     7    1
    12    13    22    1
    13     4     3    1
    14    11     1    1
    15     7     1    1
    16    16    21    1
    17    16    17    1
    18     3     9    1
    19     3     2    1
    20    22    17    1
    21     1     2    1
    22    17    18    1
    23     2     8    1
    24    18    23    1
