@<TRIPOS>MOLECULE
2bxz_GLC_A_1.pdb
 12 12 0 0 0
SMALL
GASTEIGER

@<TRIPOS>ATOM
      1  C1        43.4990    0.0110   16.0920 C.3   1605  GLC1605     0.3024
      2  C2        42.2570   -0.0150   15.2310 C.3   1605  GLC1605     0.2434
      3  C3        41.6800   -1.3890   15.5270 C.3   1605  GLC1605     0.2199
      4  C4        42.6860   -2.4590   15.0880 C.3   1605  GLC1605     0.2144
      5  C5        44.1430   -2.1420   15.4830 C.3   1605  GLC1605     0.1836
      6  C6        45.1300   -2.9380   14.6390 C.3   1605  GLC1605     0.2142
      7  O1        43.9330    1.3100   16.3880 O.3   1605  GLC1605    -0.1869
      8  O2        41.3560    1.0160   15.5600 O.3   1605  GLC1605    -0.2148
      9  O3        40.4150   -1.5440   14.9170 O.3   1605  GLC1605    -0.2174
     10  O4        42.3100   -3.6600   15.7070 O.3   1605  GLC1605    -0.2176
     11  O5        44.4720   -0.7610   15.3990 O.3   1605  GLC1605    -0.3236
     12  O6        46.3990   -2.7280   15.2200 O.3   1605  GLC1605    -0.2176
@<TRIPOS>BOND
     1     6    12    1
     2     6     5    1
     3     9     3    1
     4     4     5    1
     5     4     3    1
     6     4    10    1
     7     2     3    1
     8     2     8    1
     9     2     1    1
    10    11     5    1
    11    11     1    1
    12     1     7    1
