@<TRIPOS>MOLECULE
2bxz_TRE_A_1.pdb
 23 24 0 0 0
SMALL
GASTEIGER

@<TRIPOS>ATOM
      1  C1        51.3620  -19.5900   24.5100 C.3   1604  TRE1604     0.2713
      2  C2        51.5000  -18.2840   25.3170 C.3   1604  TRE1604     0.2406
      3  C3        51.8040  -17.0460   24.3860 C.3   1604  TRE1604     0.2198
      4  C4        52.9580  -17.3500   23.4220 C.3   1604  TRE1604     0.2144
      5  C5        52.6880  -18.6770   22.6360 C.3   1604  TRE1604     0.1835
      6  C6        53.8410  -19.1340   21.7140 C.3   1604  TRE1604     0.2142
      7  O1        50.1290  -19.5920   23.8200 O.3   1604  TRE1604    -0.3016
      8  O2        50.3330  -18.0050   26.0630 O.3   1604  TRE1604    -0.2149
      9  O3        52.1580  -15.9490   25.2340 O.3   1604  TRE1604    -0.2174
     10  O4        53.1080  -16.2540   22.4990 O.3   1604  TRE1604    -0.2176
     11  O5        52.4880  -19.7660   23.6130 O.3   1604  TRE1604    -0.3256
     12  O6        53.2780  -20.1860   20.8970 O.3   1604  TRE1604    -0.2176
     13  C1P       49.8790  -20.9340   23.3020 C.3   1604  TRE1604     0.2713
     14  C2P       48.7230  -20.8560   22.2940 C.3   1604  TRE1604     0.2406
     15  C3P       47.4180  -20.4220   23.0080 C.3   1604  TRE1604     0.2198
     16  C4P       47.1210  -21.3400   24.1890 C.3   1604  TRE1604     0.2144
     17  C5P       48.3400  -21.4010   25.1430 C.3   1604  TRE1604     0.1835
     18  C6P       48.1410  -22.3960   26.3100 C.3   1604  TRE1604     0.2142
     19  O2P       49.0230  -19.9140   21.2650 O.3   1604  TRE1604    -0.2149
     20  O3P       46.3060  -20.3650   22.0900 O.3   1604  TRE1604    -0.2174
     21  O4P       46.0210  -20.8500   24.9250 O.3   1604  TRE1604    -0.2176
     22  O5P       49.5280  -21.8340   24.4100 O.3   1604  TRE1604    -0.3256
     23  O6P       49.3190  -22.3720   27.0930 O.3   1604  TRE1604    -0.2176
@<TRIPOS>BOND
     1    12     6    1
     2    19    14    1
     3     6     5    1
     4    20    15    1
     5    14    15    1
     6    14    13    1
     7    10     4    1
     8     5     4    1
     9     5    11    1
    10    15    16    1
    11    13     7    1
    12    13    22    1
    13     4     3    1
    14    11     1    1
    15     7     1    1
    16    16    21    1
    17    16    17    1
    18     3     9    1
    19     3     2    1
    20    22    17    1
    21     1     2    1
    22    17    18    1
    23     2     8    1
    24    18    23    1
