@<TRIPOS>MOLECULE
2by0_GLC_A_1.pdb
 12 12 0 0 0
SMALL
GASTEIGER

@<TRIPOS>ATOM
      1  C1        43.6720    0.0620   16.1550 C.3   1605  GLC1605     0.3024
      2  C2        42.3960    0.0430   15.3490 C.3   1605  GLC1605     0.2434
      3  C3        41.8820   -1.3790   15.6200 C.3   1605  GLC1605     0.2199
      4  C4        42.9610   -2.3990   15.1840 C.3   1605  GLC1605     0.2144
      5  C5        44.3670   -2.0120   15.7070 C.3   1605  GLC1605     0.1836
      6  C6        45.5590   -2.7960   15.1480 C.3   1605  GLC1605     0.2142
      7  O1        44.0840    1.3320   16.5730 O.3   1605  GLC1605    -0.1869
      8  O2        41.5300    1.0140   15.8870 O.3   1605  GLC1605    -0.2148
      9  O3        40.5620   -1.6500   15.0950 O.3   1605  GLC1605    -0.2174
     10  O4        42.5590   -3.6330   15.7280 O.3   1605  GLC1605    -0.2176
     11  O5        44.6530   -0.6570   15.4020 O.3   1605  GLC1605    -0.3236
     12  O6        46.7320   -2.2340   15.7670 O.3   1605  GLC1605    -0.2176
@<TRIPOS>BOND
     1     9     3    1
     2     6     5    1
     3     6    12    1
     4     4     3    1
     5     4     5    1
     6     4    10    1
     7     2     3    1
     8     2     8    1
     9     2     1    1
    10    11     5    1
    11    11     1    1
    12     1     7    1
