@<TRIPOS>MOLECULE
2by0_TRE_A_1.pdb
 23 24 0 0 0
SMALL
GASTEIGER

@<TRIPOS>ATOM
      1  C1        51.4560  -19.5940   24.5130 C.3   1604  TRE1604     0.2713
      2  C2        51.6130  -18.3030   25.3690 C.3   1604  TRE1604     0.2406
      3  C3        51.8990  -17.0880   24.4420 C.3   1604  TRE1604     0.2198
      4  C4        53.0630  -17.4030   23.5020 C.3   1604  TRE1604     0.2144
      5  C5        52.7440  -18.6550   22.6930 C.3   1604  TRE1604     0.1835
      6  C6        53.8990  -19.0090   21.7260 C.3   1604  TRE1604     0.2142
      7  O1        50.2170  -19.6110   23.8370 O.3   1604  TRE1604    -0.3016
      8  O2        50.3890  -18.0440   26.1010 O.3   1604  TRE1604    -0.2149
      9  O3        52.1680  -15.9470   25.2860 O.3   1604  TRE1604    -0.2174
     10  O4        53.2620  -16.2700   22.6300 O.3   1604  TRE1604    -0.2176
     11  O5        52.6120  -19.7100   23.6870 O.3   1604  TRE1604    -0.3256
     12  O6        53.4740  -20.1520   20.9670 O.3   1604  TRE1604    -0.2176
     13  C1P       49.9840  -20.9520   23.3410 C.3   1604  TRE1604     0.2713
     14  C2P       48.8510  -20.8520   22.3310 C.3   1604  TRE1604     0.2406
     15  C3P       47.5280  -20.4270   22.9640 C.3   1604  TRE1604     0.2198
     16  C4P       47.2150  -21.3770   24.1030 C.3   1604  TRE1604     0.2144
     17  C5P       48.4030  -21.4060   25.0740 C.3   1604  TRE1604     0.1835
     18  C6P       48.0830  -22.3890   26.2020 C.3   1604  TRE1604     0.2142
     19  O2P       49.2200  -19.8950   21.3330 O.3   1604  TRE1604    -0.2149
     20  O3P       46.4230  -20.4250   21.9960 O.3   1604  TRE1604    -0.2174
     21  O4P       46.0260  -20.9510   24.7820 O.3   1604  TRE1604    -0.2176
     22  O5P       49.6070  -21.8290   24.4030 O.3   1604  TRE1604    -0.3256
     23  O6P       49.1250  -22.3400   27.1410 O.3   1604  TRE1604    -0.2176
@<TRIPOS>BOND
     1    12     6    1
     2    19    14    1
     3     6     5    1
     4    20    15    1
     5    14    15    1
     6    14    13    1
     7    10     4    1
     8     5     4    1
     9     5    11    1
    10    15    16    1
    11    13     7    1
    12    13    22    1
    13     4     3    1
    14    11     1    1
    15     7     1    1
    16    16    21    1
    17    16    17    1
    18    22    17    1
    19     3     9    1
    20     3     2    1
    21     1     2    1
    22    17    18    1
    23     2     8    1
    24    18    23    1
