@<TRIPOS>MOLECULE
2by1_TRE_A_1.pdb
 23 24 0 0 0
SMALL
GASTEIGER

@<TRIPOS>ATOM
      1  C1        51.5710  -19.6600   24.6060 C.3   1604  TRE1604     0.2713
      2  C2        51.6750  -18.3350   25.4210 C.3   1604  TRE1604     0.2406
      3  C3        51.9570  -17.1220   24.4980 C.3   1604  TRE1604     0.2198
      4  C4        53.1300  -17.4180   23.5600 C.3   1604  TRE1604     0.2144
      5  C5        52.8370  -18.6720   22.7470 C.3   1604  TRE1604     0.1835
      6  C6        54.0010  -19.0800   21.7710 C.3   1604  TRE1604     0.2142
      7  O1        50.3060  -19.6510   23.9370 O.3   1604  TRE1604    -0.3016
      8  O2        50.4680  -18.0680   26.1680 O.3   1604  TRE1604    -0.2149
      9  O3        52.2310  -15.9820   25.3400 O.3   1604  TRE1604    -0.2174
     10  O4        53.3550  -16.2960   22.6720 O.3   1604  TRE1604    -0.2176
     11  O5        52.6800  -19.7540   23.7190 O.3   1604  TRE1604    -0.3256
     12  O6        53.5220  -20.2070   21.0120 O.3   1604  TRE1604    -0.2176
     13  C1P       50.0530  -21.0190   23.4080 C.3   1604  TRE1604     0.2713
     14  C2P       48.9110  -20.8850   22.3960 C.3   1604  TRE1604     0.2406
     15  C3P       47.5920  -20.4620   23.0550 C.3   1604  TRE1604     0.2198
     16  C4P       47.2700  -21.3900   24.1980 C.3   1604  TRE1604     0.2144
     17  C5P       48.4650  -21.4300   25.1760 C.3   1604  TRE1604     0.1835
     18  C6P       48.1440  -22.4230   26.3400 C.3   1604  TRE1604     0.2142
     19  O2P       49.2560  -19.9340   21.3850 O.3   1604  TRE1604    -0.2149
     20  O3P       46.4740  -20.4370   22.1360 O.3   1604  TRE1604    -0.2174
     21  O4P       46.0870  -20.9590   24.8630 O.3   1604  TRE1604    -0.2176
     22  O5P       49.6410  -21.8850   24.5040 O.3   1604  TRE1604    -0.3256
     23  O6P       49.2220  -22.4140   27.2250 O.3   1604  TRE1604    -0.2176
@<TRIPOS>BOND
     1    12     6    1
     2    19    14    1
     3     6     5    1
     4    20    15    1
     5    14    15    1
     6    14    13    1
     7    10     4    1
     8     5     4    1
     9     5    11    1
    10    15    16    1
    11    13     7    1
    12    13    22    1
    13     4     3    1
    14    11     1    1
    15     7     1    1
    16    16    21    1
    17    16    17    1
    18     3     9    1
    19     3     2    1
    20    22    17    1
    21     1     2    1
    22    17    18    1
    23     2     8    1
    24    18    23    1
