@<TRIPOS>MOLECULE
2by1_GLC_A_1.pdb
 12 12 0 0 0
SMALL
GASTEIGER

@<TRIPOS>ATOM
      1  C1        43.7220    0.0780   16.2460 C.3   1605  GLC1605     0.3024
      2  C2        42.4570    0.0380   15.4050 C.3   1605  GLC1605     0.2434
      3  C3        41.9330   -1.3820   15.6820 C.3   1605  GLC1605     0.2199
      4  C4        42.9980   -2.4200   15.2340 C.3   1605  GLC1605     0.2144
      5  C5        44.4130   -2.0350   15.7260 C.3   1605  GLC1605     0.1836
      6  C6        45.6290   -2.7900   15.1810 C.3   1605  GLC1605     0.2142
      7  O1        44.1270    1.3530   16.7140 O.3   1605  GLC1605    -0.1869
      8  O2        41.5430    1.0360   15.8070 O.3   1605  GLC1605    -0.2148
      9  O3        40.6080   -1.6240   15.1660 O.3   1605  GLC1605    -0.2174
     10  O4        42.6060   -3.6480   15.8050 O.3   1605  GLC1605    -0.2176
     11  O5        44.6970   -0.6600   15.4870 O.3   1605  GLC1605    -0.3236
     12  O6        46.7200   -2.1870   15.9020 O.3   1605  GLC1605    -0.2176
@<TRIPOS>BOND
     1     9     3    1
     2     6     5    1
     3     6    12    1
     4     4     3    1
     5     4     5    1
     6     4    10    1
     7     2     3    1
     8     2     8    1
     9     2     1    1
    10    11     5    1
    11    11     1    1
    12     1     7    1
