@<TRIPOS>MOLECULE
2by2_GLC_A_1.pdb
 12 12 0 0 0
SMALL
GASTEIGER

@<TRIPOS>ATOM
      1  C1        43.5680   -0.0820   16.1180 C.3   1605  GLC1605     0.3024
      2  C2        42.2870   -0.0390   15.3110 C.3   1605  GLC1605     0.2434
      3  C4        42.9260   -2.4580   15.0300 C.3   1605  GLC1605     0.2144
      4  C5        44.3280   -2.0800   15.5700 C.3   1605  GLC1605     0.1836
      5  C6        45.5080   -2.8590   14.9760 C.3   1605  GLC1605     0.2142
      6  O1        43.9520    1.0780   16.8200 O.3   1605  GLC1605    -0.1869
      7  O2        41.3960    0.8720   15.9090 O.3   1605  GLC1605    -0.2148
      8  O3        40.5480   -1.6970   14.8710 O.3   1605  GLC1605    -0.2174
      9  O4        42.5810   -3.6940   15.5900 O.3   1605  GLC1605    -0.2176
     10  O5        44.5720   -0.7050   15.3530 O.3   1605  GLC1605    -0.3236
     11  C3        41.8180   -1.4780   15.4720 C.3   1605  GLC1605     0.2199
     12  O6        46.6960   -2.2460   15.4590 O.3   1605  GLC1605    -0.2176
@<TRIPOS>BOND
     1     8    11    1
     2     5    12    1
     3     5     4    1
     4     3    11    1
     5     3     4    1
     6     3     9    1
     7     2    11    1
     8     2     7    1
     9     2     1    1
    10    10     4    1
    11    10     1    1
    12     1     6    1
