@<TRIPOS>MOLECULE
2by2_TRE_A_1.pdb
 23 24 0 0 0
SMALL
GASTEIGER

@<TRIPOS>ATOM
      1  C1        51.3650  -19.5860   24.4780 C.3   1604  TRE1604     0.2713
      2  C2        51.4900  -18.2890   25.3060 C.3   1604  TRE1604     0.2406
      3  C3        51.8300  -17.0800   24.3790 C.3   1604  TRE1604     0.2198
      4  C4        52.9920  -17.3910   23.4350 C.3   1604  TRE1604     0.2144
      5  C5        52.6600  -18.6410   22.6390 C.3   1604  TRE1604     0.1835
      6  C6        53.8010  -19.0200   21.6590 C.3   1604  TRE1604     0.2142
      7  O1        50.1140  -19.5770   23.7900 O.3   1604  TRE1604    -0.3016
      8  O2        50.2830  -18.0390   26.0460 O.3   1604  TRE1604    -0.2149
      9  O3        52.1300  -15.9530   25.2110 O.3   1604  TRE1604    -0.2174
     10  O4        53.1460  -16.2660   22.5440 O.3   1604  TRE1604    -0.2176
     11  O5        52.5140  -19.7030   23.6160 O.3   1604  TRE1604    -0.3256
     12  O6        53.3380  -20.1310   20.8890 O.3   1604  TRE1604    -0.2176
     13  C1P       49.8460  -20.9260   23.3170 C.3   1604  TRE1604     0.2713
     14  C2P       48.7080  -20.8190   22.3090 C.3   1604  TRE1604     0.2406
     15  C3P       47.3870  -20.4050   22.9750 C.3   1604  TRE1604     0.2198
     16  C4P       47.0850  -21.3560   24.1210 C.3   1604  TRE1604     0.2144
     17  C5P       48.3000  -21.3530   25.0630 C.3   1604  TRE1604     0.1835
     18  C6P       47.9980  -22.2940   26.2510 C.3   1604  TRE1604     0.2142
     19  O2P       49.1080  -19.8670   21.2960 O.3   1604  TRE1604    -0.2149
     20  O3P       46.2770  -20.4050   22.0370 O.3   1604  TRE1604    -0.2174
     21  O4P       45.8720  -20.9300   24.7760 O.3   1604  TRE1604    -0.2176
     22  O5P       49.5120  -21.7870   24.3960 O.3   1604  TRE1604    -0.3256
     23  O6P       49.1380  -22.3560   27.0480 O.3   1604  TRE1604    -0.2176
@<TRIPOS>BOND
     1    12     6    1
     2    19    14    1
     3     6     5    1
     4    20    15    1
     5    14    15    1
     6    14    13    1
     7    10     4    1
     8     5     4    1
     9     5    11    1
    10    15    16    1
    11    13     7    1
    12    13    22    1
    13     4     3    1
    14    11     1    1
    15     7     1    1
    16    16    21    1
    17    16    17    1
    18     3     9    1
    19     3     2    1
    20    22    17    1
    21     1     2    1
    22    17    18    1
    23     2     8    1
    24    18    23    1
