@<TRIPOS>MOLECULE
2by3_TRE_A_1.pdb
 23 24 0 0 0
SMALL
GASTEIGER

@<TRIPOS>ATOM
      1  C1        51.4210  -19.6220   24.5460 C.3   1604  TRE1604     0.2713
      2  C2        51.5410  -18.3120   25.3840 C.3   1604  TRE1604     0.2406
      3  C3        51.8620  -17.1130   24.4330 C.3   1604  TRE1604     0.2198
      4  C4        53.0170  -17.4070   23.4670 C.3   1604  TRE1604     0.2144
      5  C5        52.6900  -18.6640   22.6820 C.3   1604  TRE1604     0.1835
      6  C6        53.8150  -19.0510   21.6570 C.3   1604  TRE1604     0.2142
      7  O1        50.1360  -19.6060   23.8720 O.3   1604  TRE1604    -0.3016
      8  O2        50.3080  -18.0690   26.1470 O.3   1604  TRE1604    -0.2149
      9  O3        52.1810  -15.9700   25.2720 O.3   1604  TRE1604    -0.2174
     10  O4        53.2080  -16.3070   22.5600 O.3   1604  TRE1604    -0.2176
     11  O5        52.5710  -19.7390   23.6570 O.3   1604  TRE1604    -0.3256
     12  O6        53.3540  -20.2230   20.9760 O.3   1604  TRE1604    -0.2176
     13  C1P       49.8830  -20.9860   23.4050 C.3   1604  TRE1604     0.2713
     14  C2P       48.7200  -20.9000   22.3720 C.3   1604  TRE1604     0.2406
     15  C3P       47.4030  -20.4620   23.0440 C.3   1604  TRE1604     0.2198
     16  C4P       47.1200  -21.3670   24.2280 C.3   1604  TRE1604     0.2144
     17  C5P       48.3950  -21.4210   25.1110 C.3   1604  TRE1604     0.1835
     18  C6P       48.0470  -22.3430   26.3110 C.3   1604  TRE1604     0.2142
     19  O2P       49.1300  -19.9140   21.3990 O.3   1604  TRE1604    -0.2149
     20  O3P       46.2560  -20.4200   22.1530 O.3   1604  TRE1604    -0.2174
     21  O4P       46.0170  -20.9000   24.9760 O.3   1604  TRE1604    -0.2176
     22  O5P       49.5800  -21.8870   24.4660 O.3   1604  TRE1604    -0.3256
     23  O6P       49.1700  -22.4170   27.1380 O.3   1604  TRE1604    -0.2176
@<TRIPOS>BOND
     1    12     6    1
     2    19    14    1
     3     6     5    1
     4    20    15    1
     5    14    15    1
     6    14    13    1
     7    10     4    1
     8     5     4    1
     9     5    11    1
    10    15    16    1
    11    13     7    1
    12    13    22    1
    13     4     3    1
    14    11     1    1
    15     7     1    1
    16    16    21    1
    17    16    17    1
    18     3     9    1
    19     3     2    1
    20    22    17    1
    21     1     2    1
    22    17    18    1
    23     2     8    1
    24    18    23    1
