@<TRIPOS>MOLECULE
2by3_GLC_A_1.pdb
 12 12 0 0 0
SMALL
GASTEIGER

@<TRIPOS>ATOM
      1  C1        43.4270    0.0040   16.2360 C.3   1605  GLC1605     0.3024
      2  C2        42.2800   -0.0430   15.2370 C.3   1605  GLC1605     0.2434
      3  C3        41.7340   -1.4530   15.4480 C.3   1605  GLC1605     0.2199
      4  C4        42.8300   -2.4940   15.1140 C.3   1605  GLC1605     0.2144
      5  C5        44.2130   -2.1360   15.6840 C.3   1605  GLC1605     0.1836
      6  C6        45.3550   -2.9070   15.0040 C.3   1605  GLC1605     0.2142
      7  O1        43.8090    1.3160   16.5920 O.3   1605  GLC1605    -0.1869
      8  O2        41.3120    0.9690   15.4270 O.3   1605  GLC1605    -0.2148
      9  O3        40.4990   -1.6390   14.7700 O.3   1605  GLC1605    -0.2174
     10  O4        42.5050   -3.7090   15.7290 O.3   1605  GLC1605    -0.2176
     11  O5        44.4700   -0.7440   15.6150 O.3   1605  GLC1605    -0.3236
     12  O6        46.5830   -2.4270   15.5310 O.3   1605  GLC1605    -0.2176
@<TRIPOS>BOND
     1     9     3    1
     2     6    12    1
     3     6     5    1
     4     4     3    1
     5     4     5    1
     6     4    10    1
     7     2     8    1
     8     2     3    1
     9     2     1    1
    10    11     5    1
    11    11     1    1
    12     1     7    1
