@<TRIPOS>MOLECULE
2by4_ACP_A_1.pdb
 31 33 0 0 0
SMALL
GASTEIGER

@<TRIPOS>ATOM
      1  PG         1.7410   34.0430  131.3820 P.3   1996  ACP1996     0.1295
      2  O1G        0.3790   33.3980  131.5810 O.3   1996  ACP1996    -0.3567
      3  O2G        2.4750   33.3530  130.2900 O.2   1996  ACP1996    -0.4595
      4  O3G        1.6450   35.5570  131.1860 O.3   1996  ACP1996    -0.3567
      5  PB         1.9970   34.9480  134.0600 P.3   1996  ACP1996     0.3815
      6  O1B        0.6750   34.2750  134.2500 O.3   1996  ACP1996    -0.1391
      7  O2B        1.8170   36.3910  133.8760 O.2   1996  ACP1996    -0.2547
      8  C3B        2.6760   34.1030  132.8390 C.3   1996  ACP1996     0.1768
      9  PA         3.9300   34.3180  136.3780 P.3   1996  ACP1996     0.2209
     10  O1A        5.1040   35.2550  136.1280 O.3   1996  ACP1996    -0.4371
     11  O2A        4.1920   32.8830  136.0120 O.2   1996  ACP1996    -0.5170
     12  O3A        2.6380   34.8280  135.5810 O.3   1996  ACP1996    -0.2483
     13  O5'        3.4990   34.7300  137.8740 O.3   1996  ACP1996    -0.3111
     14  C5'        3.2060   33.6180  138.7550 C.3   1996  ACP1996     0.1813
     15  C4'        2.3990   33.6920  140.0960 C.3   1996  ACP1996     0.1821
     16  O4'        2.7140   34.8820  140.7680 O.3   1996  ACP1996    -0.3135
     17  C3'        1.0350   33.8270  139.5670 C.3   1996  ACP1996     0.2184
     18  O3'        0.4520   32.5700  139.3410 O.3   1996  ACP1996    -0.2174
     19  C2'        0.3520   34.7660  140.5880 C.3   1996  ACP1996     0.2570
     20  O2'       -0.2560   34.0020  141.6100 O.3   1996  ACP1996    -0.2130
     21  C1'        1.5010   35.6020  141.0120 C.3   1996  ACP1996     0.3186
     22  N9         1.6790   36.9670  140.3100 N.pl3 1996  ACP1996    -0.1439
     23  C8         1.1780   37.4540  139.1510 C.3   1996  ACP1996     0.3377
     24  N7         1.5290   38.6860  138.8140 N.2   1996  ACP1996    -0.2095
     25  C5         2.3080   39.0210  139.8340 C.2   1996  ACP1996     0.2526
     26  C6         3.0610   40.2070  140.1680 C.2   1996  ACP1996     0.4393
     27  N6         3.0370   41.2910  139.3490 N.pl3 1996  ACP1996     0.2180
     28  N1         3.8150   40.2670  141.3430 N.2   1996  ACP1996     0.0021
     29  C2         3.8590   39.1910  142.1930 C.3   1996  ACP1996     0.5254
     30  N3         3.1790   38.0280  141.9530 N.2   1996  ACP1996    -0.0055
     31  C4         2.4400   37.9880  140.7880 C.2   1996  ACP1996     0.3518
@<TRIPOS>BOND
     1     3     1    2
     2     4     1    1
     3     1     2    1
     4     1     8    1
     5     8     5    1
     6     7     5    2
     7     5     6    1
     8     5    12    1
     9    12     9    1
    10    11     9    2
    11    10     9    1
    12     9    13    1
    13    13    14    1
    14    14    15    1
    15    24    23    1
    16    24    25    2
    17    23    22    1
    18    18    17    1
    19    27    26    1
    20    17    15    1
    21    17    19    1
    22    25    26    1
    23    25    31    1
    24    15    16    1
    25    26    28    2
    26    22    31    1
    27    22    21    1
    28    19    21    1
    29    19    20    1
    30    16    21    1
    31    31    30    2
    32    28    29    1
    33    30    29    1
