@<TRIPOS>MOLECULE
2byb_DPK_A_1.pdb
 14 14 0 0 0
SMALL
GASTEIGER

@<TRIPOS>ATOM
      1  C12       54.8170  153.4520   21.8960 C.2   601  DPK601     -0.0035
      2  C11       54.3750  153.6460   23.1380 C.2   601  DPK601     -0.0088
      3  C10       53.6510  154.8880   23.6170 C.3   601  DPK601      0.0989
      4  N9        53.1710  155.0130   25.0060 N.3   601  DPK601     -0.2687
      5  C9N       53.4160  153.9200   25.9280 C.3   601  DPK601      0.0899
      6  C8        52.4380  156.1900   25.5280 C.3   601  DPK601      0.0622
      7  C8C       52.3790  157.3540   24.5450 C.3   601  DPK601      0.0177
      8  C7        53.0660  156.7080   26.8230 C.3   601  DPK601      0.0423
      9  C1        52.1020  157.3890   27.7520 C.ar  601  DPK601     -0.0208
     10  C6        52.2110  158.7630   27.9780 C.ar  601  DPK601     -0.0042
     11  C5        51.3330  159.4130   28.8540 C.ar  601  DPK601     -0.0003
     12  C4        50.3330  158.6800   29.4910 C.ar  601  DPK601     -0.0000
     13  C3        50.2300  157.3120   29.2740 C.ar  601  DPK601     -0.0003
     14  C2        51.1150  156.6600   28.4130 C.ar  601  DPK601     -0.0042
@<TRIPOS>BOND
     1     1     2    2
     2     2     3    1
     3     3     4    1
     4     7     6    1
     5     4     6    1
     6     4     5    1
     7     6     8    1
     8     8     9    1
     9     9    10   ar
    10     9    14   ar
    11    10    11   ar
    12    14    13   ar
    13    11    12   ar
    14    13    12   ar
