@<TRIPOS>MOLECULE
2byc_FMN_A_1.pdb
 31 33 0 0 0
SMALL
GASTEIGER

@<TRIPOS>ATOM
      1  N1        10.2100   35.4530   18.7030 N.2   1137  FMN1137    -0.2887
      2  C2         9.2750   36.4640   18.7100 C.1   1137  FMN1137     0.3669
      3  O2         9.6420   37.6550   18.8460 O.2   1137  FMN1137    -0.1744
      4  N3         7.9510   36.2010   18.5800 N.2   1137  FMN1137    -0.2300
      5  C4         7.5900   34.9040   18.4750 C.1   1137  FMN1137     0.2513
      6  O4         6.4410   34.6560   18.2970 O.2   1137  FMN1137    -0.2057
      7  C4A        8.5220   33.8610   18.4670 C.2   1137  FMN1137     0.2706
      8  N5         8.1000   32.5470   18.3520 N.2   1137  FMN1137    -0.3841
      9  C5A        9.0270   31.4980   18.2610 C.2   1137  FMN1137     0.1452
     10  C6         8.6160   30.1930   18.1060 C.2   1137  FMN1137     0.0252
     11  C7         9.5120   29.1140   18.0800 C.2   1137  FMN1137    -0.0375
     12  C7M        9.0300   27.6950   17.7510 C.3   1137  FMN1137     0.0268
     13  C8        10.8590   29.3910   18.1830 C.3   1137  FMN1137     0.0417
     14  C8M       11.9110   28.2970   18.0950 C.3   1137  FMN1137     0.0091
     15  C9        11.2930   30.7070   18.3270 C.2   1137  FMN1137    -0.0049
     16  C9A       10.3520   31.7810   18.3650 C.2   1137  FMN1137     0.0795
     17  N10       10.7710   33.1210   18.5280 N.pl3 1137  FMN1137    -0.2545
     18  C10        9.8360   34.1490   18.5560 C.2   1137  FMN1137     0.2449
     19  C1'       12.1530   33.4680   18.9690 C.3   1137  FMN1137     0.1336
     20  C2'       12.6840   34.2410   17.7850 C.3   1137  FMN1137     0.2048
     21  O2'       13.1540   33.2120   16.9620 O.3   1137  FMN1137    -0.2185
     22  C3'       13.7780   35.2790   18.0890 C.3   1137  FMN1137     0.2165
     23  O3'       14.9590   34.6040   18.3870 O.3   1137  FMN1137    -0.2175
     24  C4'       13.5010   36.2660   19.2120 C.3   1137  FMN1137     0.2147
     25  O4'       12.4700   37.2280   18.9030 O.3   1137  FMN1137    -0.2176
     26  C5'       14.7740   37.0700   19.4910 C.3   1137  FMN1137     0.1892
     27  O5'       15.5420   36.6910   20.6350 O.3   1137  FMN1137    -0.2674
     28  P         16.6290   37.7970   21.0440 P.3   1137  FMN1137     0.5327
     29  O1P       17.3410   37.4320   22.3560 O.3   1137  FMN1137    -0.1145
     30  O2P       17.6130   37.7960   19.8810 O.2   1137  FMN1137    -0.2224
     31  O3P       15.7890   39.0480   21.1270 O.3   1137  FMN1137    -0.1145
@<TRIPOS>BOND
     1    21    20    1
     2    12    11    1
     3    20    22    1
     4    20    19    1
     5    11    10    2
     6    11    13    1
     7    22    23    1
     8    22    24    1
     9    14    13    1
    10    10     9    1
    11    13    15    1
    12     9     8    2
    13     9    16    1
    14     6     5    2
    15    15    16    2
    16     8     7    2
    17    16    17    1
    18     7     5    1
    19     7    18    1
    20     5     4    2
    21    17    18    1
    22    17    19    1
    23    18     1    2
    24     4     2    2
    25     1     2    2
    26     2     3    2
    27    25    24    1
    28    24    26    1
    29    26    27    1
    30    30    28    2
    31    27    28    1
    32    28    31    1
    33    28    29    1
