@<TRIPOS>MOLECULE
2byh_2D7_A_1.pdb
 26 28 0 0 0
SMALL
GASTEIGER

@<TRIPOS>ATOM
      1  O6         5.6560   -2.4880    5.5440 O.2   1226  2D71226    -0.2913
      2  C17        4.7820   -2.4710    6.3870 C.2   1226  2D71226     0.1735
      3  C18        3.9620   -3.6990    6.6910 C.3   1226  2D71226     0.0773
      4  C14        4.5170   -1.2360    7.1850 C.ar  1226  2D71226     0.0348
      5  C15        3.5280   -1.2370    8.1690 C.ar  1226  2D71226     0.0042
      6  C16        3.2570   -0.0870    8.9010 C.ar  1226  2D71226     0.0167
      7  C13        5.2270   -0.0490    6.9600 C.ar  1226  2D71226     0.0042
      8  C12        4.9460    1.0980    7.6980 C.ar  1226  2D71226     0.0167
      9  C11        3.9150    1.1240    8.6270 C.ar  1226  2D71226     0.0734
     10  N3         3.7560    2.2280    9.3850 N.am  1226  2D71226    -0.1786
     11  C10        2.8530    2.5610   10.3120 C.2   1226  2D71226     0.2566
     12  O5         1.8700    1.8370   10.5490 O.2   1226  2D71226    -0.2722
     13  C8         3.0700    3.7810   11.1680 C.3   1226  2D71226     0.1632
     14  C9         2.1150    4.6050   11.7260 C.2   1226  2D71226     0.1106
     15  N1         2.7820    5.4630   12.5070 N.2   1226  2D71226    -0.1505
     16  N2         4.0790    5.2510   12.5160 N.2   1226  2D71226    -0.1517
     17  C7         4.3160    4.1910   11.7700 C.2   1226  2D71226     0.0977
     18  C5         5.7090    3.6640   11.5610 C.ar  1226  2D71226     0.0561
     19  C6         5.9130    2.3050   11.3540 C.ar  1226  2D71226     0.0191
     20  C1         7.1660    1.8100   11.1080 C.ar  1226  2D71226     0.0967
     21 CL1         7.4110    0.0810   10.8860 Cl    1226  2D71226    -0.0789
     22  C2         8.2720    2.6270   11.0890 C.ar  1226  2D71226     0.2093
     23  O2         9.4540    2.0890   10.8230 O.3   1226  2D71226    -0.2856
     24  C3         8.1150    3.9700   11.3270 C.ar  1226  2D71226     0.0849
     25  C4         6.8420    4.5040   11.5730 C.ar  1226  2D71226     0.2001
     26  O4         6.7700    5.8180   11.8090 O.3   1226  2D71226    -0.2864
@<TRIPOS>BOND
     1     1     2    2
     2     2     3    1
     3     2     4    1
     4     7     4   ar
     5     7     8   ar
     6     4     5   ar
     7     8     9   ar
     8     5     6   ar
     9     9     6   ar
    10     9    10    1
    11    10    11   am
    12    11    12    2
    13    11    13    1
    14    23    22    1
    15    21    20    1
    16    22    20   ar
    17    22    24   ar
    18    20    19   ar
    19    13    14    1
    20    13    17    1
    21    24    25   ar
    22    19    18   ar
    23    18    25   ar
    24    18    17    1
    25    25    26    1
    26    14    15    2
    27    17    16    2
    28    15    16    1
