@<TRIPOS>MOLECULE
2byi_2DD_A_1.pdb
 28 30 0 0 0
SMALL
GASTEIGER

@<TRIPOS>ATOM
      1 CL1         7.1870    0.0500   10.6090 Cl    1226  2DD1226    -0.0789
      2  C1         7.1110    1.7580   11.0330 C.ar  1226  2DD1226     0.0967
      3  C2         8.2860    2.4960   11.1630 C.ar  1226  2DD1226     0.2093
      4  C3         8.2220    3.8490   11.4890 C.ar  1226  2DD1226     0.0849
      5  C4         6.9850    4.4360   11.7660 C.ar  1226  2DD1226     0.2001
      6  O4         6.9230    5.7370   12.0680 O.3   1226  2DD1226    -0.2864
      7  O2         9.4590    1.9270   10.8740 O.3   1226  2DD1226    -0.2856
      8  C6         5.8810    2.3500   11.2770 C.ar  1226  2DD1226     0.0191
      9  C5         5.8150    3.6980   11.5950 C.ar  1226  2DD1226     0.0561
     10  C7         4.4760    4.3290   11.8120 C.2   1226  2DD1226     0.0977
     11  N2         4.0990    5.0280   12.9010 N.2   1226  2DD1226    -0.1517
     12  N1         2.8570    5.4250   12.7540 N.2   1226  2DD1226    -0.1505
     13  C9         2.3880    5.0120   11.5620 C.2   1226  2DD1226     0.1106
     14  C8         3.3940    4.3070   10.9270 C.3   1226  2DD1226     0.1629
     15  C10        3.2970    3.6750    9.5450 C.2   1226  2DD1226     0.2527
     16  O5         2.1920    3.3060    9.1230 O.2   1226  2DD1226    -0.2725
     17  N3         4.3790    3.5110    8.7710 N.am  1226  2DD1226    -0.1999
     18  C17        4.2630    3.0920    7.4800 C.3   1226  2DD1226     0.1415
     19  C11        4.3370    1.5790    7.2910 C.ar  1226  2DD1226    -0.0005
     20  C12        4.1710    0.6890    8.3510 C.ar  1226  2DD1226    -0.0012
     21  C13        4.2250   -0.6930    8.1180 C.ar  1226  2DD1226     0.0197
     22  C16        4.4900    1.0790    5.9990 C.ar  1226  2DD1226    -0.0012
     23  C15        4.5410   -0.2900    5.7650 C.ar  1226  2DD1226     0.0197
     24  C14        4.3920   -1.1810    6.8190 C.ar  1226  2DD1226     0.1250
     25  S1         4.4500   -2.9140    6.5140 S.O2  1226  2DD1226     0.0935
     26  O6         5.6020   -3.2320    5.7310 O.2   1226  2DD1226    -0.1503
     27  O7         3.2710   -3.3040    5.7710 O.2   1226  2DD1226    -0.1503
     28  N4         4.4500   -3.6960    7.8910 N.3   1226  2DD1226     0.0392
@<TRIPOS>BOND
     1    26    25    2
     2    23    22   ar
     3    23    24   ar
     4    27    25    2
     5    22    19   ar
     6    25    24    1
     7    25    28    1
     8    24    21   ar
     9    19    18    1
    10    19    20   ar
    11    18    17    1
    12    21    20   ar
    13    17    15   am
    14    16    15    2
    15    15    14    1
    16     1     2    1
    17     7     3    1
    18    14    13    1
    19    14    10    1
    20     2     3   ar
    21     2     8   ar
    22     3     4   ar
    23     8     9   ar
    24     4     5   ar
    25    13    12    2
    26     9     5   ar
    27     9    10    1
    28     5     6    1
    29    10    11    2
    30    12    11    1
