@<TRIPOS>MOLECULE
2byj_PLP_A_1.pdb
 15 15 0 0 0
SMALL
GASTEIGER

@<TRIPOS>ATOM
      1  N1        55.2980   46.3500   19.2970 N.ar  500  PLP500     -0.2452
      2  C2        55.9140   47.5620   19.5170 C.ar  500  PLP500      0.0978
      3  C2A       55.8480   48.1700   20.8910 C.3   500  PLP500      0.0555
      4  C3        56.5870   48.1920   18.4660 C.ar  500  PLP500      0.2049
      5  O3        57.2130   49.3940   18.6560 O.3   500  PLP500     -0.2857
      6  C4        56.6370   47.6150   17.1980 C.ar  500  PLP500      0.0182
      7  C4A       57.4000   48.3520   16.1270 C.3   500  PLP500      0.0342
      8  C5        56.0120   46.3800   16.9920 C.ar  500  PLP500      0.0261
      9  C6        55.3420   45.7660   18.0480 C.ar  500  PLP500      0.0965
     10  C5A       55.9830   45.6760   15.6560 C.3   500  PLP500      0.1815
     11  O4P       57.2430   45.4860   15.0700 O.3   500  PLP500     -0.2653
     12  P         57.2680   44.9810   13.5390 P.3   500  PLP500      0.5329
     13  O1P       58.5630   44.3070   13.3090 O.3   500  PLP500     -0.1145
     14  O2P       56.1150   43.9950   13.2650 O.3   500  PLP500     -0.1145
     15  O3P       57.1210   46.2010   12.6160 O.2   500  PLP500     -0.2224
@<TRIPOS>BOND
     1    15    12    2
     2    14    12    1
     3    13    12    1
     4    12    11    1
     5    11    10    1
     6    10     8    1
     7     7     6    1
     8     8     6   ar
     9     8     9   ar
    10     6     4   ar
    11     9     1   ar
    12     4     5    1
    13     4     2   ar
    14     1     2   ar
    15     2     3    1
