@<TRIPOS>MOLECULE
2byl_PLP_A_1.pdb
 15 15 0 0 0
SMALL
GASTEIGER

@<TRIPOS>ATOM
      1  N1        55.3360   46.3610   19.3920 N.ar  500  PLP500     -0.2452
      2  C2        55.9200   47.5870   19.6030 C.ar  500  PLP500      0.0978
      3  C2A       55.7320   48.2470   20.9310 C.3   500  PLP500      0.0555
      4  C3        56.6650   48.1810   18.5660 C.ar  500  PLP500      0.2049
      5  O3        57.2610   49.4070   18.7240 O.3   500  PLP500     -0.2857
      6  C4        56.8140   47.5190   17.3360 C.ar  500  PLP500      0.0182
      7  C4A       57.6670   48.2060   16.3100 C.3   500  PLP500      0.0342
      8  C5        56.2190   46.2770   17.1260 C.ar  500  PLP500      0.0261
      9  C6        55.4660   45.7160   18.1710 C.ar  500  PLP500      0.0965
     10  C5A       56.2650   45.5150   15.8110 C.3   500  PLP500      0.1815
     11  O4P       57.5010   45.3750   15.1720 O.3   500  PLP500     -0.2653
     12  P         57.5700   44.9020   13.6110 P.3   500  PLP500      0.5329
     13  O1P       58.8640   44.1520   13.5300 O.3   500  PLP500     -0.1145
     14  O2P       56.3740   43.9800   13.2890 O.3   500  PLP500     -0.1145
     15  O3P       57.5660   46.2150   12.8410 O.2   500  PLP500     -0.2224
@<TRIPOS>BOND
     1    15    12    2
     2    14    12    1
     3    13    12    1
     4    12    11    1
     5    11    10    1
     6    10     8    1
     7     7     6    1
     8     8     6   ar
     9     8     9   ar
    10     6     4   ar
    11     9     1   ar
    12     4     5    1
    13     4     2   ar
    14     1     2   ar
    15     2     3    1
