@<TRIPOS>MOLECULE
2byo_HXA_A_1.pdb
 24 23 0 0 0
SMALL
GASTEIGER

@<TRIPOS>ATOM
      1  C1        10.3720    7.7520    4.6910 C.2   1215  HXA1215     0.3649
      2  O1        10.8690    6.6570    4.3310 O.co2 1215  HXA1215    -0.2457
      3  O2         9.1390    7.9390    4.7960 O.co2 1215  HXA1215    -0.2457
      4  C2        11.3180    8.8960    4.9970 C.3   1215  HXA1215     0.1141
      5  C3        10.9010    9.6520    6.2620 C.3   1215  HXA1215     0.0118
      6  C4        12.1160   10.2290    6.9990 C.3   1215  HXA1215     0.0006
      7  C5        12.1770   11.7590    6.9720 C.3   1215  HXA1215     0.0000
      8  C6        11.8780   12.3890    8.3370 C.3   1215  HXA1215     0.0000
      9  C7        10.6010   13.2180    8.3270 C.3   1215  HXA1215     0.0000
     10  C8         9.9300   13.2150    9.6950 C.3   1215  HXA1215     0.0000
     11  C9         8.6620   14.0710    9.6840 C.3   1215  HXA1215     0.0000
     12  C10        7.3730   13.2470    9.7300 C.3   1215  HXA1215     0.0000
     13  C11        6.7770   12.9730    8.3460 C.3   1215  HXA1215     0.0000
     14  C12        5.5370   13.8210    8.0530 C.3   1215  HXA1215     0.0000
     15  C13        4.2420   13.1770    8.5630 C.3   1215  HXA1215     0.0000
     16  C14        3.3880   12.5650    7.4460 C.3   1215  HXA1215     0.0000
     17  C15        2.0120   13.2270    7.3480 C.3   1215  HXA1215     0.0000
     18  C16        1.1410   12.5090    6.3210 C.3   1215  HXA1215     0.0000
     19  C17       -0.0100   13.3800    5.8290 C.3   1215  HXA1215     0.0000
     20  C18       -1.1900   12.5110    5.3820 C.3   1215  HXA1215     0.0000
     21  C19       -2.1050   13.2180    4.3840 C.3   1215  HXA1215     0.0000
     22  C20       -3.1290   14.1010    5.0900 C.3   1215  HXA1215     0.0000
     23  C21       -4.0770   14.7660    4.0930 C.3   1215  HXA1215     0.0000
     24  C22       -4.7380   16.0220    4.6330 C.3   1215  HXA1215     0.0000
@<TRIPOS>BOND
     1    23    24    1
     2    23    22    1
     3     2     1   ar
     4    21    22    1
     5    21    20    1
     6     1     3   ar
     7     1     4    1
     8     4     5    1
     9    20    19    1
    10    19    18    1
    11     5     6    1
    12    18    17    1
    13     7     6    1
    14     7     8    1
    15    17    16    1
    16    16    15    1
    17    14    13    1
    18    14    15    1
    19     9     8    1
    20     9    10    1
    21    13    12    1
    22    11    10    1
    23    11    12    1
