@<TRIPOS>MOLECULE
2byo_LNL_A_1.pdb
 20 19 0 0 0
SMALL
GASTEIGER

@<TRIPOS>ATOM
      1  O1        13.3460    3.5970    9.2580 O.co2 1216  LNL1216    -0.2457
      2  C1        12.5710    2.9720   10.0200 C.2   1216  LNL1216     0.3649
      3  O2        12.9060    1.8920   10.5640 O.co2 1216  LNL1216    -0.2457
      4  C2        11.1920    3.5560   10.2830 C.3   1216  LNL1216     0.1141
      5  C3        10.1980    2.4900   10.7610 C.3   1216  LNL1216     0.0118
      6  C4         8.7670    3.0210   10.9000 C.3   1216  LNL1216     0.0006
      7  C5         8.6250    4.0760   12.0040 C.3   1216  LNL1216     0.0000
      8  C6         7.5650    3.7340   13.0560 C.3   1216  LNL1216     0.0000
      9  C7         6.2500    4.4850   12.8470 C.3   1216  LNL1216     0.0000
     10  C8         5.6110    4.8330   14.1890 C.3   1216  LNL1216     0.0003
     11  C9         4.1820    5.3680   14.0220 C.3   1216  LNL1216     0.0047
     12  C10        3.8050    6.5540   14.9220 C.3   1216  LNL1216     0.0257
     13  C11        4.7900    6.8080   16.0470 C.2   1216  LNL1216    -0.0307
     14  C12        4.4500    6.6340   17.3290 C.2   1216  LNL1216    -0.0307
     15  C13        5.4230    6.8880   18.4710 C.3   1216  LNL1216     0.0257
     16  C14        6.3770    8.0580   18.2060 C.3   1216  LNL1216     0.0047
     17  C15        6.4700    9.0240   19.3900 C.3   1216  LNL1216     0.0003
     18  C16        7.6270   10.0030   19.1890 C.3   1216  LNL1216     0.0000
     19  C17        7.2490   11.4640   19.4560 C.3   1216  LNL1216     0.0000
     20  C18        8.1830   12.4330   18.7490 C.3   1216  LNL1216     0.0000
@<TRIPOS>BOND
     1     1     2   ar
     2     2     4    1
     3     2     3   ar
     4     4     5    1
     5     5     6    1
     6     6     7    1
     7     7     8    1
     8     9     8    1
     9     9    10    1
    10    11    10    1
    11    11    12    1
    12    12    13    1
    13    13    14    2
    14    14    15    1
    15    16    15    1
    16    16    17    1
    17    20    19    1
    18    18    17    1
    19    18    19    1
