@<TRIPOS>MOLECULE
2byq_EPJ_A_1.pdb
 14 16 0 0 0
SMALL
GASTEIGER

@<TRIPOS>ATOM
      1  C1        66.9200   48.5580  -10.5320 C.3   300  EPJ300      0.0413
      2  C2        65.5340   48.8870  -11.1080 C.3   300  EPJ300      0.0232
      3  C3        64.7450   49.4270   -9.9270 C.3   300  EPJ300      0.0732
      4  C4        65.2650   50.8370   -9.7280 C.3   300  EPJ300      0.0188
      5  C5        66.6890   50.6180   -9.2150 C.3   300  EPJ300      0.0191
      6  C6        66.7770   49.1030   -9.1200 C.3   300  EPJ300      0.0768
      7  N1        65.4070   48.7430   -8.8640 N.3   300  EPJ300     -0.2205
      8  C7        67.2240   47.0890  -10.6370 C.ar  300  EPJ300     -0.0019
      9  C8        67.1290   46.4450  -11.8830 C.ar  300  EPJ300     -0.0003
     10  C9        67.4030   45.0860  -11.9920 C.ar  300  EPJ300      0.0305
     11  C10       67.7720   44.3900  -10.8450 C.ar  300  EPJ300      0.1383
     12 CL         68.1370   42.6540  -10.9620 Cl    300  EPJ300     -0.0613
     13  N2        67.8670   44.9990   -9.6390 N.ar  300  EPJ300     -0.2328
     14  C11       67.6050   46.3190   -9.5210 C.ar  300  EPJ300      0.0956
@<TRIPOS>BOND
     1    10     9   ar
     2    10    11   ar
     3     9     8   ar
     4     2     1    1
     5     2     3    1
     6    12    11    1
     7    11    13   ar
     8     8     1    1
     9     8    14   ar
    10     1     6    1
    11     3     4    1
    12     3     7    1
    13     4     5    1
    14    13    14   ar
    15     5     6    1
    16     6     7    1
