@<TRIPOS>MOLECULE
2byr_MLK_A_1.pdb
 49 56 0 0 0
SMALL
GASTEIGER

@<TRIPOS>ATOM
      1  O8         1.5840   -0.6630  -13.7100 O.2   301  MLK301     -0.2741
      2  C8         0.7370   -1.4040  -13.2060 C.2   301  MLK301      0.2356
      3  C9        -0.6400   -0.9300  -12.7930 C.3   301  MLK301      0.0951
      4  C10       -1.2670   -2.1550  -12.1550 C.3   301  MLK301      0.0865
      5  C12       -1.5590   -1.9620  -10.6730 C.3   301  MLK301      0.0101
      6  C11       -0.2420   -3.2260  -12.3790 C.2   301  MLK301      0.2351
      7  O11       -0.4140   -4.3850  -12.0290 O.2   301  MLK301     -0.2741
      8  N7         0.8570   -2.7130  -12.9310 N.am  301  MLK301     -0.2079
      9  C6         1.8590   -3.5330  -13.4650 C.ar  301  MLK301      0.0668
     10  C5         1.6090   -4.3790  -14.5430 C.ar  301  MLK301      0.0155
     11  C4         2.6230   -5.1890  -15.0590 C.ar  301  MLK301      0.0013
     12  C3         3.9060   -5.1730  -14.5040 C.ar  301  MLK301      0.0003
     13  C2         4.2030   -4.3400  -13.4160 C.ar  301  MLK301      0.0077
     14  C1         3.2140   -3.5150  -12.8720 C.ar  301  MLK301      0.0897
     15  C13        3.5180   -2.6160  -11.7180 C.2   301  MLK301      0.3424
     16  O13        2.6420   -2.1510  -11.0110 O.2   301  MLK301     -0.2448
     17  O14        4.8980   -2.2900  -11.4480 O.3   301  MLK301     -0.4454
     18  C15        5.2610   -1.3970  -10.4120 C.3   301  MLK301      0.2100
     19  C16        6.7590   -1.1620  -10.5160 C.3   301  MLK301      0.0577
     20  C21        7.4080   -2.5490  -10.3590 C.3   301  MLK301      0.0075
     21  C20        8.2990   -2.8860  -11.5330 C.3   301  MLK301      0.0298
     22  C19        9.3140   -1.7620  -11.7750 C.3   301  MLK301      0.1166
     23  O19       10.2520   -1.6750  -10.7080 O.3   301  MLK301     -0.3535
     24  C22       11.1090   -2.8000  -10.5380 C.3   301  MLK301      0.1740
     25  C18        8.6330   -0.3930  -12.0050 C.3   301  MLK301      0.0436
     26  C17        7.1110   -0.4720  -11.8490 C.3   301  MLK301      0.0382
     27  C26        8.8590    0.7140  -10.9780 C.3   301  MLK301      0.0926
     28  N23        8.6310    0.2010   -9.5920 N.3   301  MLK301     -0.2715
     29  C24        8.9990    1.1820   -8.5410 C.3   301  MLK301      0.0722
     30  C25       10.5030    1.3300   -8.3990 C.3   301  MLK301      0.0188
     31  C23        7.2500   -0.2820   -9.3590 C.3   301  MLK301      0.0757
     32  C30        9.1290    0.1090  -13.3880 C.3   301  MLK301      0.0086
     33  C33       10.6630    0.2380  -13.4670 C.3   301  MLK301      0.0051
     34  C34       10.9540    1.6530  -13.9540 C.3   301  MLK301      0.0546
     35  C35       11.0500    2.6480  -12.8030 C.3   301  MLK301      0.1201
     36  O35       11.9670    3.7050  -13.1060 O.3   301  MLK301     -0.3534
     37  C37       13.3480    3.3480  -12.9130 C.3   301  MLK301      0.1740
     38  C36        9.7040    3.2830  -12.4110 C.3   301  MLK301      0.0627
     39  C31        8.6480    1.4790  -13.8880 C.3   301  MLK301      0.0580
     40  C38        9.7620    1.9270  -14.8300 C.3   301  MLK301      0.1200
     41  O38        9.7240    3.2820  -15.2950 O.3   301  MLK301     -0.3534
     42  C39        8.6740    3.4930  -16.2410 C.3   301  MLK301      0.1740
     43  C32        8.4300    2.4780  -12.7400 C.3   301  MLK301      0.1601
     44  O32        7.4410    3.4120  -13.1300 O.3   301  MLK301     -0.2228
     45  C27        7.8750    1.7800  -11.4960 C.3   301  MLK301      0.1900
     46  O27        7.5510    2.8070  -10.5520 O.3   301  MLK301     -0.2192
     47  C28        6.6240    0.9730  -11.8330 C.3   301  MLK301      0.1469
     48  O28        6.0390    1.3400  -13.0720 O.3   301  MLK301     -0.3509
     49  C29        4.6950    0.8990  -13.2120 C.3   301  MLK301      0.1741
@<TRIPOS>BOND
     1    42    41    1
     2    41    40    1
     3    11    10   ar
     4    11    12   ar
     5    40    34    1
     6    40    39    1
     7    10     9   ar
     8    12    13   ar
     9    34    33    1
    10    34    35    1
    11    39    32    1
    12    39    43    1
    13     1     2    2
    14    33    32    1
    15     9     8    1
    16     9    14   ar
    17    13    14   ar
    18    32    25    1
    19    49    48    1
    20     2     8   am
    21     2     3    1
    22    44    43    1
    23    36    37    1
    24    36    35    1
    25    48    47    1
    26     8     6   am
    27    14    15    1
    28    35    38    1
    29     3     4    1
    30    43    38    1
    31    43    45    1
    32     6     4    1
    33     6     7    2
    34     4     5    1
    35    25    26    1
    36    25    22    1
    37    25    27    1
    38    26    47    1
    39    26    19    1
    40    47    45    1
    41    22    21    1
    42    22    23    1
    43    15    17    1
    44    15    16    2
    45    21    20    1
    46    45    27    1
    47    45    46    1
    48    17    18    1
    49    27    28    1
    50    23    24    1
    51    19    18    1
    52    19    20    1
    53    19    31    1
    54    28    31    1
    55    28    29    1
    56    29    30    1
