@<TRIPOS>MOLECULE
2bys_LOB_A_1.pdb
 25 27 0 0 0
SMALL
GASTEIGER

@<TRIPOS>ATOM
      1  O1        -5.8150   22.5840    6.1490 O.2   301  LOB301     -0.2913
      2  C3        -5.8710   23.8000    6.0880 C.2   301  LOB301      0.1744
      3  C1        -5.2930   24.6120    7.2290 C.ar  301  LOB301      0.0347
      4  C2        -4.7700   23.9560    8.3510 C.ar  301  LOB301      0.0028
      5  C5        -4.2310   24.6830    9.4140 C.ar  301  LOB301      0.0001
      6  C6        -4.2090   26.0760    9.3730 C.ar  301  LOB301      0.0000
      7  C7        -4.7210   26.7400    8.2640 C.ar  301  LOB301      0.0001
      8  C4        -5.2540   26.0090    7.2010 C.ar  301  LOB301      0.0028
      9  C8        -6.4790   24.4100    4.8370 C.3   301  LOB301      0.0851
     10  C9        -7.9930   24.2070    4.6420 C.3   301  LOB301      0.0652
     11  C12       -8.4510   22.7860    4.9150 C.3   301  LOB301      0.0165
     12  C15       -9.9070   22.6750    4.5290 C.3   301  LOB301      0.0028
     13  C13      -10.0290   22.7100    3.0170 C.3   301  LOB301      0.0161
     14  C11       -9.2690   23.8540    2.3380 C.3   301  LOB301      0.0604
     15  N1        -8.3160   24.5730    3.2340 N.3   301  LOB301     -0.2735
     16  C22       -8.3140   26.0140    3.0040 C.3   301  LOB301      0.0896
     17  C14       -8.4900   23.3200    1.1190 C.3   301  LOB301      0.0534
     18  C16       -8.0770   24.4360    0.1550 C.3   301  LOB301      0.1756
     19  O2        -6.7000   24.7440    0.3740 O.3   301  LOB301     -0.2183
     20  C17       -8.2640   24.1150   -1.2910 C.ar  301  LOB301      0.0077
     21  C18       -7.8610   22.8970   -1.8380 C.ar  301  LOB301     -0.0018
     22  C20       -8.0450   22.6310   -3.1970 C.ar  301  LOB301     -0.0002
     23  C21       -8.6260   23.5850   -4.0310 C.ar  301  LOB301     -0.0000
     24  C10       -9.0150   24.8120   -3.4920 C.ar  301  LOB301     -0.0002
     25  C19       -8.8300   25.0750   -2.1340 C.ar  301  LOB301     -0.0018
@<TRIPOS>BOND
     1    23    24   ar
     2    23    22   ar
     3    24    25   ar
     4    22    21   ar
     5    25    20   ar
     6    21    20   ar
     7    20    18    1
     8    18    19    1
     9    18    17    1
    10    17    14    1
    11    14    13    1
    12    14    15    1
    13    16    15    1
    14    13    12    1
    15    15    10    1
    16    12    11    1
    17    10     9    1
    18    10    11    1
    19     9     2    1
    20     2     1    2
    21     2     3    1
    22     8     3   ar
    23     8     7   ar
    24     3     4   ar
    25     7     6   ar
    26     4     5   ar
    27     6     5   ar
