@<TRIPOS>MOLECULE
2byx_DAO_A_1.pdb
 13 12 0 0 0
SMALL
GASTEIGER

@<TRIPOS>ATOM
      1  O1         4.6950   54.2240  104.8460 O.2   1407  DAO1407    -0.2883
      2  C1         5.3680   54.7320  105.7640 C.2   1407  DAO1407     0.2074
      3  C2         4.6320   55.1370  107.0270 C.3   1407  DAO1407     0.0722
      4  C3         3.7280   56.3280  106.8010 C.3   1407  DAO1407     0.0082
      5  C4         4.5340   57.5540  106.4380 C.3   1407  DAO1407     0.0005
      6  C5         3.6290   58.6620  105.9420 C.3   1407  DAO1407     0.0000
      7  C6         4.4250   59.9150  105.6300 C.3   1407  DAO1407     0.0000
      8  C7         4.6370   60.7760  106.8690 C.3   1407  DAO1407     0.0000
      9  C8         3.3120   61.3490  107.3740 C.3   1407  DAO1407     0.0000
     10  C9         3.5380   62.5070  108.3320 C.3   1407  DAO1407     0.0000
     11  C10        2.2390   63.2270  108.6670 C.3   1407  DAO1407     0.0000
     12  C11        1.3580   62.4140  109.5890 C.3   1407  DAO1407     0.0000
     13  C12        1.8870   62.3170  111.0030 C.3   1407  DAO1407     0.0000
@<TRIPOS>BOND
     1     1     2    2
     2     7     6    1
     3     7     8    1
     4     2     3    1
     5     6     5    1
     6     5     4    1
     7     4     3    1
     8     8     9    1
     9     9    10    1
    10    10    11    1
    11    11    12    1
    12    12    13    1
