@<TRIPOS>MOLECULE
2byz_DAO_A_1.pdb
 13 12 0 0 0
SMALL
GASTEIGER

@<TRIPOS>ATOM
      1  O1        28.2280    6.8110   94.2000 O.2   1407  DAO1407    -0.2883
      2  C1        27.2360    6.9160   94.9480 C.2   1407  DAO1407     0.2074
      3  C2        27.4530    7.6180   96.2760 C.3   1407  DAO1407     0.0722
      4  C3        28.1870    6.7360   97.2590 C.3   1407  DAO1407     0.0082
      5  C4        27.3460    5.5240   97.6060 C.3   1407  DAO1407     0.0005
      6  C5        28.1730    4.4360   98.2530 C.3   1407  DAO1407     0.0000
      7  C6        27.2740    3.3290   98.7740 C.3   1407  DAO1407     0.0000
      8  C7        26.8050    3.6340  100.1890 C.3   1407  DAO1407     0.0000
      9  C8        27.9430    3.4300  101.1790 C.3   1407  DAO1407     0.0000
     10  C9        27.6350    4.0220  102.5420 C.3   1407  DAO1407     0.0000
     11  C10       28.7160    3.6530  103.5490 C.3   1407  DAO1407     0.0000
     12  C11       28.5210    4.3660  104.8810 C.3   1407  DAO1407     0.0000
     13  C12       28.7920    5.8560  104.8310 C.3   1407  DAO1407     0.0000
@<TRIPOS>BOND
     1     1     2    2
     2     2     3    1
     3     3     4    1
     4     4     5    1
     5     5     6    1
     6     6     7    1
     7     7     8    1
     8     8     9    1
     9     9    10    1
    10    10    11    1
    11    11    12    1
    12    13    12    1
