@<TRIPOS>MOLECULE
2bz0_G2P_A_1.pdb
 32 34 0 0 0
SMALL
GASTEIGER

@<TRIPOS>ATOM
      1  PG        22.2530   -9.1270  -95.2940 P.3   1176  G2P1176     0.5389
      2  O1G       21.5400  -10.3670  -95.6520 O.3   1176  G2P1176    -0.1143
      3  O2G       23.5540   -9.0640  -95.9010 O.2   1176  G2P1176    -0.2220
      4  O3G       22.5020   -9.1520  -93.8010 O.3   1176  G2P1176    -0.1143
      5  O3B       21.2730   -7.8510  -95.6280 O.3   1176  G2P1176    -0.2026
      6  PB        21.5950   -6.2160  -95.4040 P.3   1176  G2P1176     0.3895
      7  O1B       20.9010   -5.3060  -96.3750 O.2   1176  G2P1176    -0.2544
      8  O2B       22.8070   -5.7890  -94.8750 O.3   1176  G2P1176    -0.1388
      9  C3A       20.5600   -6.1010  -93.9340 C.3   1176  G2P1176     0.2357
     10  PA        18.9390   -5.3280  -94.2220 P.3   1176  G2P1176     0.3820
     11  O1A       17.7860   -6.0710  -93.5960 O.3   1176  G2P1176    -0.1392
     12  O2A       18.8330   -4.5780  -95.4160 O.2   1176  G2P1176    -0.2548
     13  O5'       19.1350   -4.2500  -93.0440 O.3   1176  G2P1176    -0.2896
     14  C5'       20.1580   -3.2650  -93.1360 C.3   1176  G2P1176     0.1836
     15  C4'       19.5850   -1.8550  -93.2130 C.3   1176  G2P1176     0.1800
     16  O4'       18.1260   -1.8510  -93.1390 O.3   1176  G2P1176    -0.3326
     17  C3'       20.1290   -1.0120  -92.0700 C.3   1176  G2P1176     0.2158
     18  O3'       20.6800    0.2080  -92.6270 O.3   1176  G2P1176    -0.2175
     19  C2'       18.9090   -0.8490  -91.1480 C.3   1176  G2P1176     0.2310
     20  O2'       18.8680    0.4600  -90.5460 O.3   1176  G2P1176    -0.2158
     21  C1'       17.6830   -1.0530  -92.0320 C.3   1176  G2P1176     0.2293
     22  N9        16.5300   -1.7900  -91.3850 N.pl3 1176  G2P1176    -0.2354
     23  C8        16.5010   -2.9050  -90.5270 C.3   1176  G2P1176     0.2246
     24  N7        15.3080   -3.2830  -90.1510 N.2   1176  G2P1176    -0.2322
     25  C5        14.4470   -2.3590  -90.8010 C.2   1176  G2P1176     0.2182
     26  C6        12.9640   -2.2140  -90.8080 C.1   1176  G2P1176     0.2372
     27  O6        12.1100   -2.9020  -90.2170 O.2   1176  G2P1176    -0.2069
     28  N1        12.5270   -1.1210  -91.6220 N.2   1176  G2P1176    -0.2485
     29  C2        13.3680   -0.2510  -92.3540 C.1   1176  G2P1176     0.2531
     30  N2        12.8010    0.7340  -93.0770 N.pl3 1176  G2P1176    -0.0226
     31  N3        14.7290   -0.3840  -92.3470 N.2   1176  G2P1176    -0.3074
     32  C4        15.2070   -1.4470  -91.5590 C.2   1176  G2P1176     0.2300
@<TRIPOS>BOND
     1     7     6    2
     2     3     1    2
     3     2     1    1
     4     5     6    1
     5     5     1    1
     6    12    10    2
     7     6     8    1
     8     6     9    1
     9     1     4    1
    10    10     9    1
    11    10    11    1
    12    10    13    1
    13    15    16    1
    14    15    14    1
    15    15    17    1
    16    16    21    1
    17    14    13    1
    18    30    29    1
    19    18    17    1
    20    29    31    2
    21    29    28    2
    22    31    32    2
    23    17    19    1
    24    21    22    1
    25    21    19    1
    26    28    26    2
    27    32    22    1
    28    32    25    1
    29    22    23    1
    30    19    20    1
    31    26    25    1
    32    26    27    2
    33    25    24    2
    34    23    24    1
