@<TRIPOS>MOLECULE
2bz3_DAO_A_1.pdb
 13 12 0 0 0
SMALL
GASTEIGER

@<TRIPOS>ATOM
      1  O1        28.3070    6.7880   94.5520 O.2   1407  DAO1407    -0.2883
      2  C1        27.2960    6.8640   95.2840 C.2   1407  DAO1407     0.2074
      3  C2        27.4800    7.5280   96.6370 C.3   1407  DAO1407     0.0722
      4  C3        28.2470    6.6420   97.5920 C.3   1407  DAO1407     0.0082
      5  C4        27.4280    5.4140   97.9320 C.3   1407  DAO1407     0.0005
      6  C5        28.2530    4.3800   98.6540 C.3   1407  DAO1407     0.0000
      7  C6        27.3630    3.2740   99.1990 C.3   1407  DAO1407     0.0000
      8  C7        26.8730    3.6050  100.6020 C.3   1407  DAO1407     0.0000
      9  C8        28.0390    3.6130  101.5840 C.3   1407  DAO1407     0.0000
     10  C9        27.6940    4.2880  102.9020 C.3   1407  DAO1407     0.0000
     11  C10       28.5600    3.7370  104.0350 C.3   1407  DAO1407     0.0000
     12  C11       28.4090    4.5420  105.3260 C.3   1407  DAO1407     0.0000
     13  C12       29.0000    5.9350  105.2680 C.3   1407  DAO1407     0.0000
@<TRIPOS>BOND
     1     1     2    2
     2     2     3    1
     3     3     4    1
     4     4     5    1
     5     5     6    1
     6     6     7    1
     7     7     8    1
     8     8     9    1
     9     9    10    1
    10    10    11    1
    11    11    12    1
    12    13    12    1
