@<TRIPOS>MOLECULE
2bz5_AB4_A_1.pdb
 30 33 0 0 0
SMALL
GASTEIGER

@<TRIPOS>ATOM
      1 CL22       30.7790    5.1300   47.6290 Cl    1226  AB41226    -0.0808
      2  C10       32.0620    6.0630   48.3490 C.ar  1226  AB41226     0.0766
      3  C19       32.8640    6.7680   47.4550 C.ar  1226  AB41226     0.0136
      4  C23       33.9220    7.5180   47.9410 C.ar  1226  AB41226     0.0123
      5  C20       34.2150    7.5640   49.3040 C.ar  1226  AB41226     0.0591
      6 CL24       35.5620    8.5580   49.8150 Cl    1226  AB41226    -0.0822
      7  C7        33.4020    6.8580   50.1980 C.ar  1226  AB41226     0.0325
      8  C2        32.3100    6.1140   49.7320 C.ar  1226  AB41226     0.1384
      9  S1        31.3230    5.1880   50.9100 S.O2  1226  AB41226     0.0937
     10  O8        31.9200    5.4920   52.2090 O.2   1226  AB41226    -0.1483
     11  O9        31.4600    3.7320   50.5550 O.2   1226  AB41226    -0.1483
     12  N5        29.7300    5.6210   50.7910 N.pl3 1226  AB41226    -0.0965
     13  C14       29.2480    6.7910   51.2040 C.ar  1226  AB41226     0.0912
     14  C12       29.2220    7.8510   50.2890 C.ar  1226  AB41226     0.0213
     15  C21       28.7640    6.9670   52.5150 C.ar  1226  AB41226     0.0213
     16  C18       28.2670    8.2300   52.9010 C.ar  1226  AB41226     0.0434
     17  C11       28.2580    9.3110   51.9760 C.ar  1226  AB41226     0.1958
     18  O25       27.7650   10.5350   52.3710 O.3   1226  AB41226    -0.2866
     19  C3        28.7230    9.1260   50.6550 C.ar  1226  AB41226     0.0434
     20  C4        28.7470   10.1810   49.6850 C.ar  1226  AB41226     0.0421
     21  C6        29.9620   10.7290   49.1790 C.ar  1226  AB41226     0.0032
     22  C27       31.2260   10.2620   49.5750 C.ar  1226  AB41226     0.0001
     23  C29       32.4330   10.8150   49.1200 C.ar  1226  AB41226     0.0000
     24  C30       32.3990   11.8410   48.1580 C.ar  1226  AB41226     0.0000
     25  C28       31.1460   12.3460   47.7200 C.ar  1226  AB41226     0.0000
     26  C15       29.9440   11.7860   48.2280 C.ar  1226  AB41226     0.0002
     27  C17       28.7110   12.2600   47.7590 C.ar  1226  AB41226     0.0033
     28  C16       27.5090   11.7170   48.2540 C.ar  1226  AB41226     0.0420
     29  C13       27.5330   10.7090   49.2060 C.ar  1226  AB41226     0.1957
     30  O26       26.3400   10.2560   49.6440 O.3   1226  AB41226    -0.2866
@<TRIPOS>BOND
     1     3     4   ar
     2     3     2   ar
     3     1     2    1
     4    25    24   ar
     5    25    26   ar
     6    27    26   ar
     7    27    28   ar
     8     4     5   ar
     9    24    23   ar
    10    26    21   ar
    11    28    29   ar
    12     2     8   ar
    13    23    22   ar
    14    21    22   ar
    15    21    20   ar
    16    29    30    1
    17    29    20   ar
    18     5     6    1
    19     5     7   ar
    20    20    19    1
    21     8     7   ar
    22     8     9    1
    23    14    19   ar
    24    14    13   ar
    25    11     9    2
    26    19    17   ar
    27    12     9    1
    28    12    13    1
    29     9    10    2
    30    13    15   ar
    31    17    18    1
    32    17    16   ar
    33    15    16   ar
