@<TRIPOS>MOLECULE
2bz9_HEM_A_1.pdb
 43 50 0 0 0
SMALL
GASTEIGER

@<TRIPOS>ATOM
      1 FE         -9.0470   63.1630   -0.6260 Fe    1449  HEM1449     0.0000
      2  CHA      -10.6650   66.0670   -1.3130 C.2   1449  HEM1449     0.0000
      3  CHB       -8.4990   64.2390    2.5470 C.2   1449  HEM1449     0.0000
      4  CHC       -7.3950   60.2480    0.0880 C.2   1449  HEM1449     0.0000
      5  CHD       -9.5300   62.0880   -3.8250 C.2   1449  HEM1449     0.0000
      6  NA        -9.5020   64.8450    0.4270 N.2   1449  HEM1449     0.0000
      7  C1A      -10.1830   65.9380   -0.0410 C.2   1449  HEM1449     0.0000
      8  C2A      -10.3020   66.9260    1.0310 C.2   1449  HEM1449     0.0000
      9  C3A       -9.6940   66.4190    2.1030 C.2   1449  HEM1449     0.0000
     10  C4A       -9.1830   65.1030    1.7460 C.2   1449  HEM1449     0.0000
     11  CMA       -9.5390   67.0680    3.4810 C.3   1449  HEM1449     0.0000
     12  CAA      -11.0130   68.2930    0.8920 C.3   1449  HEM1449     0.0000
     13  CBA      -10.0690   69.4240    0.4700 C.3   1449  HEM1449     0.0000
     14  CGA      -10.7010   70.8190    0.4790 C.2   1449  HEM1449     0.0000
     15  O1A      -11.8080   70.9320    1.1280 O.co2 1449  HEM1449     0.0000
     16  O2A      -10.1240   71.7310   -0.1220 O.co2 1449  HEM1449     0.0000
     17  NB        -8.1260   62.3840    0.9900 N.ar  1449  HEM1449     0.0000
     18  C1B       -8.0140   63.0090    2.2260 C.ar  1449  HEM1449     0.0000
     19  C2B       -7.2980   62.1600    3.1470 C.ar  1449  HEM1449     0.0000
     20  C3B       -6.9670   61.0210    2.4610 C.ar  1449  HEM1449     0.0000
     21  C4B       -7.4940   61.1680    1.1190 C.ar  1449  HEM1449     0.0000
     22  CMB       -7.0040   62.5360    4.5980 C.3   1449  HEM1449     0.0000
     23  CAB       -6.1850   59.7720    2.9350 C.3   1449  HEM1449     0.0000
     24  CBB       -6.8190   59.0230    4.1170 C.3   1449  HEM1449     0.0000
     25  NC        -8.5700   61.4990   -1.6660 N.2   1449  HEM1449     0.0000
     26  C1C       -7.8870   60.4000   -1.1960 C.2   1449  HEM1449     0.0000
     27  C2C       -7.7390   59.3850   -2.2570 C.2   1449  HEM1449     0.0000
     28  C3C       -8.3200   59.8890   -3.3570 C.2   1449  HEM1449     0.0000
     29  C4C       -8.8470   61.2120   -2.9990 C.2   1449  HEM1449     0.0000
     30  CMC       -7.0200   58.0190   -2.0540 C.3   1449  HEM1449     0.0000
     31  CAC       -8.4500   59.2670   -4.7730 C.3   1449  HEM1449     0.0000
     32  CBC       -9.1960   57.9270   -4.8690 C.3   1449  HEM1449     0.0000
     33  ND        -9.9190   63.9180   -2.2360 N.ar  1449  HEM1449     0.0000
     34  C1D      -10.0360   63.3370   -3.5060 C.ar  1449  HEM1449     0.0000
     35  C2D      -10.7600   64.2440   -4.4000 C.ar  1449  HEM1449     0.0000
     36  C3D      -11.0830   65.3560   -3.6780 C.ar  1449  HEM1449     0.0000
     37  C4D      -10.5560   65.1550   -2.3490 C.ar  1449  HEM1449     0.0000
     38  CMD      -11.0810   63.9440   -5.8880 C.3   1449  HEM1449     0.0000
     39  CAD      -11.8660   66.6050   -4.1510 C.3   1449  HEM1449     0.0000
     40  CBD      -13.3350   66.5200   -3.5720 C.3   1449  HEM1449     0.0000
     41  CGD      -14.2580   67.6790   -3.9330 C.2   1449  HEM1449     0.0000
     42  O1D      -15.4430   67.4350   -4.2520 O.co2 1449  HEM1449     0.0000
     43  O2D      -13.7550   68.8290   -3.8580 O.co2 1449  HEM1449     0.0000
@<TRIPOS>BOND
     1    38    35    1
     2    32    31    1
     3    31    28    1
     4    35    36   ar
     5    35    34   ar
     6    42    41   ar
     7    39    36    1
     8    39    40    1
     9    41    43   ar
    10    41    40    1
    11     5    34    2
    12     5    29    1
    13    36    37   ar
    14    34    33   ar
    15    28    29    1
    16    28    27    2
    17    29    25    2
    18    37    33   ar
    19    37     2    2
    20    27    30    1
    21    27    26    1
    22    33     1    1
    23    25    26    1
    24    25     1    1
    25     2     7    1
    26    26     4    2
    27     1     6    1
    28     1    17    1
    29    16    14   ar
    30     7     6    2
    31     7     8    1
    32     4    21    1
    33     6    10    1
    34    13    14    1
    35    13    12    1
    36    14    15   ar
    37    12     8    1
    38    17    21   ar
    39    17    18   ar
    40     8     9    2
    41    21    20   ar
    42    10     9    1
    43    10     3    2
    44     9    11    1
    45    18     3    1
    46    18    19   ar
    47    20    23    1
    48    20    19   ar
    49    23    24    1
    50    19    22    1
