@<TRIPOS>MOLECULE
2bzd_GAL_A_1.pdb
 12 12 0 0 0
SMALL
GASTEIGER

@<TRIPOS>ATOM
      1  C1       -29.8190   59.7860   55.5760 C.3   1649  GAL1649     0.3024
      2  C2       -28.3490   59.3810   55.8000 C.3   1649  GAL1649     0.2434
      3  C3       -27.4640   59.9130   54.6650 C.3   1649  GAL1649     0.2199
      4  C4       -28.0650   59.6500   53.2710 C.3   1649  GAL1649     0.2144
      5  C5       -29.5740   59.9580   53.2410 C.3   1649  GAL1649     0.1836
      6  C6       -30.2560   59.5710   51.9330 C.3   1649  GAL1649     0.2142
      7  O1       -30.6870   59.2660   56.5650 O.3   1649  GAL1649    -0.1869
      8  O2       -27.8500   59.8600   57.0320 O.3   1649  GAL1649    -0.2148
      9  O3       -26.1660   59.3660   54.7720 O.3   1649  GAL1649    -0.2174
     10  O4       -27.8050   58.3280   52.8470 O.3   1649  GAL1649    -0.2176
     11  O5       -30.2390   59.3080   54.3080 O.3   1649  GAL1649    -0.3236
     12  O6       -31.1510   60.5890   51.5440 O.3   1649  GAL1649    -0.2176
@<TRIPOS>BOND
     1    12     6    1
     2     6     5    1
     3    10     4    1
     4     5     4    1
     5     5    11    1
     6     4     3    1
     7    11     1    1
     8     3     9    1
     9     3     2    1
    10     1     2    1
    11     1     7    1
    12     2     8    1
