@<TRIPOS>MOLECULE
2bzg_SAH_A_1.pdb
 26 28 0 0 0
SMALL
GASTEIGER

@<TRIPOS>ATOM
      1  N         22.4870   12.3830   18.4240 N.3   1246  SAH1246    -0.1208
      2  CA        21.7230   11.3160   19.1340 C.3   1246  SAH1246     0.1952
      3  CB        21.3900   10.1320   18.2080 C.3   1246  SAH1246     0.0422
      4  CG        22.5410    9.4700   17.4290 C.3   1246  SAH1246     0.0597
      5  SD        22.0530    8.0380   16.3960 S.3   1246  SAH1246    -0.1375
      6  C         22.4910   10.8880   20.3910 C.2   1246  SAH1246     0.3819
      7  O         22.0840    9.9790   21.1380 O.co2 1246  SAH1246    -0.2441
      8  OXT       23.5610   11.4680   20.6630 O.co2 1246  SAH1246    -0.2441
      9  C5'       21.6700    8.9840   14.8890 C.3   1246  SAH1246     0.0899
     10  C4'       20.2260    9.5370   14.7940 C.3   1246  SAH1246     0.1630
     11  O4'       20.0290   10.1450   13.5150 O.3   1246  SAH1246    -0.3153
     12  C3'       19.0990    8.5000   14.9190 C.3   1246  SAH1246     0.2168
     13  O3'       18.1740    8.8400   15.9520 O.3   1246  SAH1246    -0.2175
     14  C2'       18.4730    8.4510   13.5190 C.3   1246  SAH1246     0.2569
     15  O2'       17.0940    8.1130   13.5060 O.3   1246  SAH1246    -0.2130
     16  C1'       18.7010    9.8670   13.0210 C.3   1246  SAH1246     0.3185
     17  N9        18.8660   10.0560   11.5660 N.pl3 1246  SAH1246    -0.1439
     18  C8        19.5940    9.3130   10.6770 C.3   1246  SAH1246     0.3377
     19  N7        19.5780    9.9160    9.4800 N.2   1246  SAH1246    -0.2095
     20  C5        18.8590   11.0730    9.5810 C.2   1246  SAH1246     0.2526
     21  C6        18.5120   12.0830    8.7020 C.2   1246  SAH1246     0.4393
     22  N6        18.8850   12.0960    7.4200 N.pl3 1246  SAH1246     0.2180
     23  N1        17.7480   13.1200    9.1820 N.2   1246  SAH1246     0.0021
     24  C2        17.3280   13.1860   10.4980 C.3   1246  SAH1246     0.5254
     25  N3        17.6460   12.1800   11.3500 N.2   1246  SAH1246    -0.0055
     26  C4        18.4150   11.1520   10.9020 C.2   1246  SAH1246     0.3518
@<TRIPOS>BOND
     1    22    21    1
     2    21    23    2
     3    21    20    1
     4    23    24    1
     5    19    20    2
     6    19    18    1
     7    20    26    1
     8    24    25    1
     9    18    17    1
    10    26    25    2
    11    26    17    1
    12    17    16    1
    13    16    11    1
    14    16    14    1
    15    15    14    1
    16    11    10    1
    17    14    12    1
    18    10     9    1
    19    10    12    1
    20     9     5    1
    21    12    13    1
    22     5     4    1
    23     4     3    1
    24     3     2    1
    25     1     2    1
    26     2     6    1
    27     6     8   ar
    28     6     7   ar
