@<TRIPOS>MOLECULE
2bzh_HB1_B_1.pdb
 30 36 0 0 0
SMALL
GASTEIGER

@<TRIPOS>ATOM
      1  O3       -19.1780  -33.8930   -4.9380 O.3   1307  HB11307     0.0000
      2  C4       -20.2500  -33.7090   -4.7200 C.3   1307  HB11307     0.0000
      3 RU1       -22.0280  -33.3500   -4.5320 Ru    1307  HB11307     0.0000
      4  C5       -23.7050  -31.8900   -4.8500 C.2   1307  HB11307     0.0000
      5  C6       -22.4720  -31.3630   -5.3550 C.2   1307  HB11307     0.0000
      6  C7       -22.0160  -32.2110   -6.3700 C.3   1307  HB11307     0.0000
      7  C8       -22.9440  -33.2700   -6.5290 C.2   1307  HB11307     0.0000
      8  C9       -23.9880  -33.0640   -5.5900 C.2   1307  HB11307     0.0000
      9  N3       -21.8380  -32.8510   -2.4550 N.pl3 1307  HB11307     0.0000
     10  C2       -21.5200  -31.6600   -1.8710 C.2   1307  HB11307     0.0000
     11  N1       -22.5230  -35.1790   -3.6510 N.pl3 1307  HB11307     0.0000
     12  C11      -22.9370  -36.4470   -3.9370 C.3   1307  HB11307     0.0000
     13  C16      -23.2060  -37.1770   -2.7290 C.2   1307  HB11307     0.0000
     14  C15      -23.6240  -38.5050   -2.7980 C.2   1307  HB11307     0.0000
     15  C14      -23.7480  -39.0640   -4.0570 C.2   1307  HB11307     0.0000
     16  C13      -23.4870  -38.3320   -5.2240 C.2   1307  HB11307     0.0000
     17  C12      -23.0860  -37.0150   -5.1850 C.2   1307  HB11307     0.0000
     18  C17      -22.9440  -36.2740   -1.6600 C.ar  1307  HB11307     0.0000
     19  C10      -22.5570  -35.0730   -2.3220 C.ar  1307  HB11307     0.0000
     20  C18      -22.9680  -36.2080   -0.2590 C.ar  1307  HB11307     0.0000
     21  C19      -23.3610  -37.2390    0.7500 C.1   1307  HB11307     0.0000
     22  O1       -23.7250  -38.3880    0.5880 O.2   1307  HB11307     0.0000
     23  C21      -22.6340  -35.0210    0.4260 C.ar  1307  HB11307     0.0000
     24  C20      -22.8090  -35.2610    1.8630 C.1   1307  HB11307     0.0000
     25  N2       -23.2230  -36.5940    1.9830 N.2   1307  HB11307     0.0000
     26  O2       -22.6430  -34.5160    2.8070 O.2   1307  HB11307     0.0000
     27  C22      -22.2380  -33.7990   -0.2400 C.ar  1307  HB11307     0.0000
     28  C3       -22.1920  -33.8810   -1.6510 C.ar  1307  HB11307     0.0000
     29  C23      -21.8590  -32.5490    0.3500 C.2   1307  HB11307     0.0000
     30  C1       -21.5140  -31.4940   -0.4710 C.2   1307  HB11307     0.0000
@<TRIPOS>BOND
     1     7     6    1
     2     7     8    2
     3     6     5    1
     4     6     3    1
     5     8     4    1
     6     5     4    2
     7    16    17    2
     8    16    15    1
     9    17    12    1
    10     1     2    1
    11     2     3    1
    12     3    11    1
    13     3     9    1
    14    15    14    2
    15    12    11    1
    16    12    13    1
    17    11    19    1
    18    14    13    1
    19    13    18    2
    20     9    10    1
    21     9    28    1
    22    19    18   ar
    23    19    28   ar
    24    10    30    2
    25    18    20   ar
    26    28    27   ar
    27    30    29    1
    28    20    23   ar
    29    20    21    1
    30    27    29    2
    31    27    23   ar
    32    23    24    1
    33    22    21    2
    34    21    25    2
    35    24    25    2
    36    24    26    2
