@<TRIPOS>MOLECULE
2bzi_DW2_B_1.pdb
 31 37 0 0 0
SMALL
GASTEIGER

@<TRIPOS>ATOM
      1  O11      -39.5830    0.5940    4.0830 O.3   1306  DW21306     0.0000
      2  C10      -39.9970   -0.4310    4.0140 C.3   1306  DW21306     0.0000
      3 RU18      -40.6680   -2.3200    3.8920 Ru    1306  DW21306     0.0000
      4  C12      -39.0380   -3.2360    4.8960 C.3   1306  DW21306     0.0000
      5  C13      -39.9400   -2.7500    5.8440 C.2   1306  DW21306     0.0000
      6  C14      -41.1570   -3.4050    5.6700 C.2   1306  DW21306     0.0000
      7  C16      -41.0080   -4.2980    4.6080 C.2   1306  DW21306     0.0000
      8  C17      -39.7000   -4.1990    4.1330 C.2   1306  DW21306     0.0000
      9  N21      -42.5490   -1.8630    3.1820 N.pl3 1306  DW21306     0.0000
     10  C6       -43.6630   -1.6210    3.9050 C.2   1306  DW21306     0.0000
     11  C5       -44.8860   -1.3730    3.2480 C.2   1306  DW21306     0.0000
     12  C4       -44.9650   -1.3980    1.8400 C.2   1306  DW21306     0.0000
     13  N19      -40.3680   -2.3830    1.8610 N.ar  1306  DW21306     0.0000
     14  C23      -39.4090   -2.6220    0.8750 C.ar  1306  DW21306     0.0000
     15  C28      -39.9800   -2.5370   -0.4100 C.ar  1306  DW21306     0.0000
     16  C27      -39.1890   -2.7470   -1.5500 C.3   1306  DW21306     0.0000
     17  C26      -37.8220   -3.0490   -1.3910 C.2   1306  DW21306     0.0000
     18  C25      -37.2800   -3.1240   -0.1000 C.2   1306  DW21306     0.0000
     19  C24      -38.0630   -2.9170    1.0350 C.2   1306  DW21306     0.0000
     20  O15      -37.0210   -3.2370   -2.4840 O.2   1306  DW21306     0.0000
     21  C29      -41.3320   -2.2490   -0.2280 C.ar  1306  DW21306     0.0000
     22  C22      -41.5020   -2.1680    1.1460 C.ar  1306  DW21306     0.0000
     23  C7       -42.6590   -1.8990    1.8110 C.ar  1306  DW21306     0.0000
     24  C3       -43.8240   -1.6760    1.0770 C.ar  1306  DW21306     0.0000
     25  C30      -42.4920   -2.0400   -0.9960 C.ar  1306  DW21306     0.0000
     26  C2       -43.7170   -1.7550   -0.3390 C.ar  1306  DW21306     0.0000
     27  C31      -42.7490   -2.0390   -2.3740 C.1   1306  DW21306     0.0000
     28  O8       -41.9740   -2.2400   -3.2940 O.2   1306  DW21306     0.0000
     29  N20      -44.0740   -1.7620   -2.5830 N.2   1306  DW21306     0.0000
     30  C1       -44.6700   -1.5990   -1.3500 C.1   1306  DW21306     0.0000
     31  O9       -45.8540   -1.3330   -1.2220 O.2   1306  DW21306     0.0000
@<TRIPOS>BOND
     1    28    27    2
     2    29    27    2
     3    29    30    2
     4    20    17    1
     5    27    25    1
     6    16    17    1
     7    16    15    1
     8    17    18    2
     9    30    31    2
    10    30    26    1
    11    25    26   ar
    12    25    21   ar
    13    15    21   ar
    14    15    14   ar
    15    26    24   ar
    16    21    22   ar
    17    18    19    1
    18    14    19    2
    19    14    13   ar
    20    24    23   ar
    21    24    12    2
    22    22    23   ar
    23    22    13   ar
    24    23     9    1
    25    12    11    1
    26    13     3    1
    27     9     3    1
    28     9    10    1
    29    11    10    2
    30     3     2    1
    31     3     4    1
    32     2     1    1
    33     8     7    2
    34     8     4    1
    35     7     6    1
    36     4     5    1
    37     6     5    2
