@<TRIPOS>MOLECULE
2bzj_ME3_A_1.pdb
 36 42 0 0 0
SMALL
GASTEIGER

@<TRIPOS>ATOM
      1  O5       -21.6320  -34.2440   -6.5120 O.2   1306  ME31306     0.0000
      2  C24      -22.6730  -34.5870   -5.9380 C.2   1306  ME31306     0.0000
      3  O4       -23.3060  -35.7410   -6.2500 O.3   1306  ME31306     0.0000
      4  C25      -22.4240  -36.6940   -6.8410 C.3   1306  ME31306     0.0000
      5  C26      -23.1570  -38.0290   -7.0410 C.3   1306  ME31306     0.0000
      6  C6       -23.1930  -33.7340   -4.8560 C.2   1306  ME31306     0.0000
      7  C7       -22.3870  -32.6770   -4.4650 C.3   1306  ME31306     0.0000
      8  C8       -23.0280  -31.9650   -3.4350 C.2   1306  ME31306     0.0000
      9  C9       -24.2810  -32.5920   -3.2200 C.2   1306  ME31306     0.0000
     10  C5       -24.4050  -33.7200   -4.0700 C.2   1306  ME31306     0.0000
     11 RU1       -22.5980  -34.0070   -2.7490 Ru    1306  ME31306     0.0000
     12  C4       -20.7890  -34.3730   -2.7660 C.3   1306  ME31306     0.0000
     13  O3       -19.6940  -34.5220   -2.9110 O.3   1306  ME31306     0.0000
     14  N1       -22.5370  -33.6490   -0.6680 N.pl3 1306  ME31306     0.0000
     15  C10      -22.8980  -34.7290   -0.0030 C.ar  1306  ME31306     0.0000
     16  C3       -23.2640  -35.9200   -0.6800 C.ar  1306  ME31306     0.0000
     17  N3       -23.1930  -35.9150   -2.0630 N.pl3 1306  ME31306     0.0000
     18  C22      -23.6490  -37.0330    0.0920 C.ar  1306  ME31306     0.0000
     19  C23      -24.0040  -38.2110   -0.6490 C.2   1306  ME31306     0.0000
     20  C1       -23.9350  -38.2040   -2.0350 C.2   1306  ME31306     0.0000
     21  C2       -23.5330  -37.0480   -2.7340 C.2   1306  ME31306     0.0000
     22  C21      -23.6530  -36.8410    1.5350 C.ar  1306  ME31306     0.0000
     23  C20      -24.0190  -37.7810    2.5840 C.1   1306  ME31306     0.0000
     24  O2       -24.3950  -38.9140    2.4560 O.2   1306  ME31306     0.0000
     25  N2       -23.8790  -37.1270    3.8080 N.2   1306  ME31306     0.0000
     26  C19      -23.4460  -35.8160    3.6490 C.1   1306  ME31306     0.0000
     27  O1       -23.2410  -34.9940    4.5270 O.2   1306  ME31306     0.0000
     28  C18      -23.3080  -35.6480    2.1680 C.ar  1306  ME31306     0.0000
     29  C17      -22.9010  -34.5440    1.4070 C.ar  1306  ME31306     0.0000
     30  C16      -22.4790  -33.2080    1.5670 C.2   1306  ME31306     0.0000
     31  C11      -22.2520  -32.6870    0.2550 C.3   1306  ME31306     0.0000
     32  C12      -21.8350  -31.3780    0.0610 C.2   1306  ME31306     0.0000
     33  C13      -21.6080  -30.5990    1.1950 C.2   1306  ME31306     0.0000
     34  C14      -21.8310  -31.1230    2.4810 C.2   1306  ME31306     0.0000
     35  O6       -21.6170  -30.3360    3.5780 O.2   1306  ME31306     0.0000
     36  C15      -22.2620  -32.4120    2.6760 C.2   1306  ME31306     0.0000
@<TRIPOS>BOND
     1     5     4    1
     2     4     3    1
     3     1     2    2
     4     3     2    1
     5     2     6    1
     6     6     7    1
     7     6    10    2
     8     7     8    1
     9     7    11    1
    10    10     9    1
    11     8     9    2
    12    13    12    1
    13    12    11    1
    14    11    17    1
    15    11    14    1
    16    21    17    1
    17    21    20    2
    18    17    16    1
    19    20    19    1
    20    16    15   ar
    21    16    18   ar
    22    14    15    1
    23    14    31    1
    24    19    18    2
    25    15    29   ar
    26    32    31    1
    27    32    33    2
    28    18    22   ar
    29    31    30    1
    30    33    34    1
    31    29    30    2
    32    29    28   ar
    33    22    28   ar
    34    22    23    1
    35    30    36    1
    36    28    26    1
    37    24    23    2
    38    34    36    2
    39    34    35    1
    40    23    25    2
    41    26    25    2
    42    26    27    2
