@<TRIPOS>MOLECULE
2bzk_ANP_B_1.pdb
 31 33 0 0 0
SMALL
GASTEIGER

@<TRIPOS>ATOM
      1  PG        16.4180   28.7830   -0.8760 P.3   1306  ANP1306     0.4884
      2  O1G       15.5280   27.5770   -1.1100 O.2   1306  ANP1306    -0.2331
      3  O2G       15.6760   30.1260   -0.9200 O.3   1306  ANP1306    -0.1240
      4  O3G       17.3320   28.5900    0.3080 O.3   1306  ANP1306    -0.1240
      5  PB        19.2800   28.7270   -2.0550 P.3   1306  ANP1306     0.4669
      6  O1B       19.6380   27.5360   -1.1990 O.3   1306  ANP1306    -0.1253
      7  O2B       19.8060   28.7490   -3.4850 O.2   1306  ANP1306    -0.2351
      8  N3B       17.5340   28.7380   -2.2400 N.3   1306  ANP1306    -0.0163
      9  PA        21.1720   30.8180   -1.0880 P.3   1306  ANP1306     0.2220
     10  O1A       22.1900   30.1530   -2.0030 O.2   1306  ANP1306    -0.5170
     11  O2A       21.5080   31.0510    0.3890 O.3   1306  ANP1306    -0.4370
     12  O3A       19.7050   30.0890   -1.2460 O.3   1306  ANP1306    -0.2360
     13  O5'       20.8610   32.2950   -1.6810 O.3   1306  ANP1306    -0.3111
     14  C5'       20.3730   32.5350   -3.0120 C.3   1306  ANP1306     0.1813
     15  C4'       21.0680   33.7550   -3.6350 C.3   1306  ANP1306     0.1821
     16  O4'       20.7960   34.9910   -2.9530 O.3   1306  ANP1306    -0.3135
     17  C3'       22.5930   33.6700   -3.6290 C.3   1306  ANP1306     0.2184
     18  O3'       23.0850   32.8270   -4.6660 O.3   1306  ANP1306    -0.2174
     19  C2'       23.0780   35.1200   -3.7170 C.3   1306  ANP1306     0.2570
     20  O2'       23.4710   35.5970   -5.0140 O.3   1306  ANP1306    -0.2130
     21  C1'       21.8820   35.9220   -3.2150 C.3   1306  ANP1306     0.3186
     22  N9        22.3810   36.6830   -2.0260 N.pl3 1306  ANP1306    -0.1439
     23  C8        22.8860   37.9460   -2.0670 C.3   1306  ANP1306     0.3377
     24  N7        23.2630   38.3540   -0.8310 N.2   1306  ANP1306    -0.2095
     25  C5        23.0020   37.3310   -0.0050 C.2   1306  ANP1306     0.2526
     26  C6        23.1790   37.0990    1.4240 C.2   1306  ANP1306     0.4393
     27  N6        23.7140   38.0910    2.1800 N.pl3 1306  ANP1306     0.2180
     28  N1        22.7820   35.8750    1.8980 N.2   1306  ANP1306     0.0021
     29  C2        22.2480   34.8770    1.1420 C.3   1306  ANP1306     0.5254
     30  N3        22.0720   35.0400   -0.1750 N.2   1306  ANP1306    -0.0055
     31  C4        22.4300   36.2140   -0.7780 C.2   1306  ANP1306     0.3518
@<TRIPOS>BOND
     1    20    19    1
     2    18    17    1
     3    19    17    1
     4    19    21    1
     5    15    17    1
     6    15    14    1
     7    15    16    1
     8     7     5    2
     9    21    16    1
    10    21    22    1
    11    14    13    1
    12     8     5    1
    13     8     1    1
    14    23    22    1
    15    23    24    1
    16     5    12    1
    17     5     6    1
    18    22    31    1
    19    10     9    2
    20    13     9    1
    21    12     9    1
    22     2     1    2
    23     9    11    1
    24     3     1    1
    25     1     4    1
    26    24    25    2
    27    31    30    2
    28    31    25    1
    29    30    29    1
    30    25    26    1
    31    29    28    1
    32    26    28    2
    33    26    27    1
