@<TRIPOS>MOLECULE
2bzn_IMP_A_1.pdb
 23 25 0 0 0
SMALL
GASTEIGER

@<TRIPOS>ATOM
      1  P         15.3410   -2.0910   18.1450 P.3   1338  IMP1338     0.5327
      2  O1P       16.4250   -3.0440   17.8030 O.3   1338  IMP1338    -0.1145
      3  O2P       14.0110   -2.8310   18.2830 O.3   1338  IMP1338    -0.1145
      4  O3P       15.2250   -0.9990   17.0890 O.2   1338  IMP1338    -0.2224
      5  O5'       15.6390   -1.3890   19.5420 O.3   1338  IMP1338    -0.2675
      6  C5'       15.6570   -2.1940   20.7020 C.3   1338  IMP1338     0.1860
      7  C4'       15.8980   -1.2840   21.8950 C.3   1338  IMP1338     0.1823
      8  O4'       14.8080   -0.3840   22.0300 O.3   1338  IMP1338    -0.3135
      9  C3'       16.0650   -1.9750   23.2640 C.3   1338  IMP1338     0.2184
     10  O3'       17.3740   -2.4640   23.4830 O.3   1338  IMP1338    -0.2174
     11  C2'       15.7420   -0.7860   24.1560 C.3   1338  IMP1338     0.2570
     12  O2'       16.8840    0.0030   24.3760 O.3   1338  IMP1338    -0.2130
     13  C1'       14.7120    0.0170   23.3640 C.3   1338  IMP1338     0.3186
     14  N9        13.3610   -0.1990   23.9330 N.pl3 1338  IMP1338    -0.1435
     15  C8        12.7670   -1.3530   24.3640 C.3   1338  IMP1338     0.3382
     16  N7        11.5490   -1.0320   24.8410 N.2   1338  IMP1338    -0.2054
     17  C5        11.3420    0.2970   24.7740 C.2   1338  IMP1338     0.2446
     18  C6        10.2710    1.1470   25.1010 C.1   1338  IMP1338     0.1792
     19  O6         9.1650    0.7960   25.5640 O.2   1338  IMP1338    -0.2203
     20  N1        10.4200    2.4800   24.8630 N.2   1338  IMP1338    -0.1458
     21  C2        11.5810    2.9900   24.2890 C.3   1338  IMP1338     0.4017
     22  N3        12.6180    2.1390   23.9440 N.2   1338  IMP1338    -0.0334
     23  C4        12.4920    0.8230   24.1940 C.2   1338  IMP1338     0.3528
@<TRIPOS>BOND
     1     4     1    2
     2     2     1    1
     3     1     3    1
     4     1     5    1
     5     5     6    1
     6     6     7    1
     7     7     8    1
     8     7     9    1
     9     8    13    1
    10     9    10    1
    11     9    11    1
    12    13    14    1
    13    13    11    1
    14    14    23    1
    15    14    15    1
    16    22    23    2
    17    22    21    1
    18    11    12    1
    19    23    17    1
    20    21    20    1
    21    15    16    1
    22    17    16    2
    23    17    18    1
    24    20    18    2
    25    18    19    2
