@<TRIPOS>MOLECULE
2bzs_CB1_A_1.pdb
 18 19 0 0 0
SMALL
GASTEIGER

@<TRIPOS>ATOM
      1  C         25.1520   13.3390    3.8930 C.ar  235  CB1235      0.0496
      2  C1        24.0280   13.9420    3.2930 C.ar  235  CB1235      0.1490
      3  C2        24.1390   14.5260    2.0340 C.ar  235  CB1235      0.0804
      4  C4        25.3270   14.5220    1.3480 C.ar  235  CB1235      0.0225
      5  C5        26.4440   13.9360    1.8930 C.ar  235  CB1235      0.0709
      6  C8        26.3860   13.3270    3.2450 C.ar  235  CB1235      0.1577
      7  N         22.8130   13.9430    4.0090 N.pl3 235  CB1235      0.0579
      8  O1        22.7430   13.2700    5.0460 O.2   235  CB1235     -0.1261
      9  O2        21.8460   14.6300    3.6240 O.2   235  CB1235     -0.1261
     10  C3        23.0170   15.1430    1.2760 C.2   235  CB1235      0.2858
     11  N1        22.8410   16.4370    1.2660 N.am  235  CB1235     -0.0837
     12  O         22.2840   14.4060    0.6200 O.2   235  CB1235     -0.2666
     13  N6        27.5770   14.0310    1.1310 N.pl3 235  CB1235     -0.3028
     14  C7        28.0630   14.5930   -0.1660 C.3   235  CB1235      0.1123
     15  C9        28.9680   14.4100    1.1600 C.3   235  CB1235      0.1123
     16  N3        27.4830   12.6760    3.8400 N.pl3 235  CB1235      0.0590
     17  O3        28.5510   12.4760    3.2900 O.2   235  CB1235     -0.1261
     18  O4        27.3580   12.1800    4.9270 O.2   235  CB1235     -0.1261
@<TRIPOS>BOND
     1    14    13    1
     2    14    15    1
     3    12    10    2
     4    13    15    1
     5    13     5    1
     6    11    10   am
     7    10     3    1
     8     4     5   ar
     9     4     3   ar
    10     5     6   ar
    11     3     2   ar
    12     6    16    1
    13     6     1   ar
    14    17    16    2
    15     2     1   ar
    16     2     7    1
    17     9     7    2
    18    16    18    2
    19     7     8    2
