@<TRIPOS>MOLECULE
2c01_ATP_X_1.pdb
 29 28 0 0 0
SMALL
GASTEIGER

@<TRIPOS>ATOM
      1  C4'       12.6070   10.9420   12.5200 C.3   1136  ATP1136     0.1785
      2  O4'       11.4720   10.0450   12.5480 O.3   1136  ATP1136    -0.3137
      3  C2'       13.2990    8.6160   11.7340 C.3   1136  ATP1136     0.2612
      4  O2'       14.4110    8.5850   12.7970 O.3   1136  ATP1136    -0.2129
      5  C1'       11.9350    8.7420   12.4310 C.3   1136  ATP1136     0.3188
      6  N9        10.8860    8.0110   11.7100 N.pl3 1136  ATP1136    -0.1439
      7  C8        10.7170    7.6370   10.3290 C.3   1136  ATP1136     0.3377
      8  N7         9.6150    6.9570   10.1140 N.2   1136  ATP1136    -0.2095
      9  C5         8.9120    6.9160   11.2490 C.2   1136  ATP1136     0.2526
     10  C6         7.6480    6.4070   11.7430 C.2   1136  ATP1136     0.4393
     11  N6         6.8480    5.8150   10.8640 N.pl3 1136  ATP1136     0.2180
     12  N1         7.2990    6.5660   13.0400 N.2   1136  ATP1136     0.0021
     13  C2         8.0630    7.1110   13.9860 C.3   1136  ATP1136     0.5254
     14  N3         9.3840    7.6880   13.6370 N.2   1136  ATP1136    -0.0055
     15  C4         9.6390    7.5580   12.3280 C.2   1136  ATP1136     0.3518
     16  O1G       14.7860   10.6640   11.3810 O.3   1136  ATP1136     0.0000
     17  PB        14.0990   14.3820    8.7880 P.3   1136  ATP1136     0.5373
     18  O1B       15.2750   13.6030    8.4000 O.3   1136  ATP1136    -0.1143
     19  O2B       14.7660   14.8860   10.0000 O.3   1136  ATP1136    -0.1143
     20  O3B       13.4720   15.5210    7.9640 O.2   1136  ATP1136    -0.2221
     21  PA        11.5820   13.6090    9.9630 P.3   1136  ATP1136     0.3032
     22  O1A       11.4820   15.0120   10.3790 O.3   1136  ATP1136    -0.1409
     23  O2A       10.3860   13.0330    9.2400 O.3   1136  ATP1136    -0.1409
     24  O3A       12.9250   13.3400    9.1020 O.3   1136  ATP1136    -0.2226
     25  O5'       11.8980   12.7020   11.2230 O.3   1136  ATP1136    -0.2124
     26  C5'       12.1470   12.3960   12.2410 C.3   1136  ATP1136     0.2179
     27  PG        11.4250   13.7170    9.8740 P.3   1136  ATP1136     0.4227
     28  O2G       10.1140   14.5160   10.2790 O.3   1136  ATP1136    -0.1409
     29  O3G       12.2050   13.4140   11.1320 O.3   1136  ATP1136    -0.1727
@<TRIPOS>BOND
     1    20    17    2
     2    18    17    1
     3    17    24    1
     4    17    19    1
     5    24    21    1
     6    23    27    1
     7    27    28    1
     8    27    22    1
     9    21    29    1
    10     8     7    1
    11     8     9    2
    12    28    22    1
    13     7     6    1
    14    11    10    1
    15    29    25    1
    16    25    26    1
    17     9    10    1
    18     9    15    1
    19     6    15    1
    20     6     5    1
    21     3     5    1
    22     3     4    1
    23    10    12    2
    24    15    14    2
    25     5     2    1
    26     1     2    1
    27    12    13    1
    28    14    13    1
