@<TRIPOS>MOLECULE
2c02_ADP_A_1.pdb
 27 29 0 0 0
SMALL
GASTEIGER

@<TRIPOS>ATOM
      1  PB        13.2450   14.5830    7.0130 P.3   1135  ADP1135     0.5373
      2  O1B       14.8210   14.7350    6.5590 O.3   1135  ADP1135    -0.1143
      3  O2B       12.6990   15.7960    7.4900 O.3   1135  ADP1135    -0.1143
      4  O3B       12.3660   13.9890    6.0000 O.2   1135  ADP1135    -0.2221
      5  PA        12.8750   13.6970    9.5600 P.3   1135  ADP1135     0.2231
      6  O1A       13.4860   14.8140   10.2580 O.3   1135  ADP1135    -0.4370
      7  O2A       11.3940   13.8220    9.6560 O.2   1135  ADP1135    -0.5169
      8  O3A       13.3020   13.5830    8.1350 O.3   1135  ADP1135    -0.2261
      9  O5'       13.2040   12.2420   10.3010 O.3   1135  ADP1135    -0.3111
     10  C5'       12.8480   12.0590   11.7630 C.3   1135  ADP1135     0.1813
     11  C4'       13.2280   10.6840   12.3010 C.3   1135  ADP1135     0.1821
     12  O4'       12.0780    9.9380   12.7490 O.3   1135  ADP1135    -0.3135
     13  C3'       13.9120    9.6970   11.3560 C.3   1135  ADP1135     0.2184
     14  O3'       15.2420   10.0890   11.0820 O.3   1135  ADP1135    -0.2174
     15  C2'       13.6490    8.3420   12.1190 C.3   1135  ADP1135     0.2570
     16  O2'       14.6630    8.0620   13.1230 O.3   1135  ADP1135    -0.2130
     17  C1'       12.2250    8.4970   12.6970 C.3   1135  ADP1135     0.3186
     18  N9        11.1080    7.8310   11.8270 N.pl3 1135  ADP1135    -0.1439
     19  C8        11.0350    7.5720   10.4690 C.3   1135  ADP1135     0.3377
     20  N7         9.8730    6.9750   10.1600 N.2   1135  ADP1135    -0.2095
     21  C5         9.1910    6.8430   11.2990 C.2   1135  ADP1135     0.2526
     22  C6         7.8430    6.2510   11.5480 C.2   1135  ADP1135     0.4393
     23  N6         7.0110    5.7120   10.6370 N.pl3 1135  ADP1135     0.2180
     24  N1         7.3780    6.2580   12.9220 N.2   1135  ADP1135     0.0021
     25  C2         8.1220    6.7850   14.0060 C.3   1135  ADP1135     0.5254
     26  N3         9.3920    7.3380   13.7380 N.2   1135  ADP1135    -0.0055
     27  C4         9.9540    7.3850   12.4130 C.2   1135  ADP1135     0.3518
@<TRIPOS>BOND
     1     4     1    2
     2     2     1    1
     3     1     3    1
     4     1     8    1
     5     8     5    1
     6     5     7    2
     7     5     6    1
     8     5     9    1
     9    20    19    1
    10    20    21    2
    11     9    10    1
    12    19    18    1
    13    23    22    1
    14    14    13    1
    15    21    22    1
    16    21    27    1
    17    13    15    1
    18    13    11    1
    19    22    24    2
    20    10    11    1
    21    18    27    1
    22    18    17    1
    23    15    17    1
    24    15    16    1
    25    11    12    1
    26    27    26    2
    27    17    12    1
    28    24    25    1
    29    26    25    1
