@<TRIPOS>MOLECULE
2c03_GDP_A_1.pdb
 43 45 0 0 0
SMALL
GASTEIGER

@<TRIPOS>ATOM
      1  PB        15.8650   32.9780   81.3720 P.3   1296  GDP1296     0.4808
      2  O1B       15.3100   32.1640   82.4750 O.2   1296  GDP1296    -0.2271
      3  O2B       14.9450   34.1170   81.0510 O.3   1296  GDP1296    -0.3023
      4  O3B       17.2700   33.3380   81.7670 O.3   1296  GDP1296    -0.3023
      5  O3A       15.9460   32.1160   80.0180 O.3   1296  GDP1296    -0.1862
      6  PA        15.0120   30.9370   79.4610 P.3   1296  GDP1296     0.4834
      7  O1A       13.6040   31.4160   79.3490 O.2   1296  GDP1296    -0.2269
      8  O2A       15.3080   29.7230   80.2800 O.3   1296  GDP1296    -0.3022
      9  O5'       15.7070   30.7830   78.0150 O.3   1296  GDP1296    -0.2837
     10  C5'       15.6020   31.8310   77.0410 C.3   1296  GDP1296     0.0879
     11  C4'       15.6000   31.2260   75.6410 C.3   1296  GDP1296     0.1132
     12  O4'       16.8200   30.5210   75.3960 O.3   1296  GDP1296    -0.3474
     13  C3'       14.5040   30.1830   75.4360 C.3   1296  GDP1296     0.1133
     14  O3'       13.9750   30.3210   74.1200 O.3   1296  GDP1296    -0.3864
     15  C2'       15.2140   28.8470   75.5330 C.3   1296  GDP1296     0.1266
     16  O2'       14.5810   27.7830   74.8190 O.3   1296  GDP1296    -0.3849
     17  C1'       16.5210   29.2190   74.8910 C.3   1296  GDP1296     0.1617
     18  N9        17.6640   28.3750   75.2290 N.pl3 1296  GDP1296    -0.2241
     19  C8        18.2080   28.2720   76.4630 C.2   1296  GDP1296     0.1451
     20  N7        19.2960   27.4760   76.4350 N.2   1296  GDP1296    -0.3865
     21  C5        19.4370   27.0790   75.1690 C.2   1296  GDP1296     0.2296
     22  C6        20.4250   26.2420   74.4820 C.2   1296  GDP1296     0.2859
     23  O6        21.3620   25.7080   75.1300 O.2   1296  GDP1296    -0.2668
     24  N1        20.2570   26.0780   73.1630 N.am  1296  GDP1296    -0.2418
     25  C2        19.2490   26.6590   72.4730 C.2   1296  GDP1296     0.2395
     26  N2        19.1850   26.4280   71.1490 N.pl3 1296  GDP1296    -0.3206
     27  N3        18.3250   27.4550   73.0450 N.2   1296  GDP1296    -0.3551
     28  C4        18.3800   27.6840   74.3590 C.2   1296  GDP1296     0.2272
     29 HOB2       14.1990   34.2270   81.5160 H     1296  GDP1296     0.2220
     30 HOB3       17.5790   33.0600   82.5370 H     1296  GDP1296     0.2220
     31 HOA2       15.9040   29.7770   80.9240 H     1296  GDP1296     0.2220
     32  H5'       14.6840   32.4010   77.1940 H     1296  GDP1296     0.0592
     33 H5''       16.4480   32.5150   77.1450 H     1296  GDP1296     0.0592
     34  H4'       15.4760   32.0320   74.9040 H     1296  GDP1296     0.0647
     35  H3'       13.7260   30.2720   76.2080 H     1296  GDP1296     0.0647
     36 HO3'       13.2850   29.6830   74.0070 H     1296  GDP1296     0.2100
     37  H2'       15.3740   28.5800   76.5870 H     1296  GDP1296     0.0663
     38 HO2'       13.7070   27.6200   75.2460 H     1296  GDP1296     0.2101
     39  H1'       16.3840   29.2570   73.8020 H     1296  GDP1296     0.0841
     40  H8        17.8160   28.7510   77.3500 H     1296  GDP1296     0.1149
     41  HN1       20.9270   25.4700   72.6590 H     1296  GDP1296     0.1589
     42 HN21       18.4470   26.8450   70.5990 H     1296  GDP1296     0.1459
     43 HN22       19.8560   25.8340   70.7120 H     1296  GDP1296     0.1459
@<TRIPOS>BOND
     1    42    26    1
     2    43    26    1
     3    26    25    1
     4    25    27    2
     5    25    24    1
     6    41    24    1
     7    27    28    2
     8    24    22   am
     9    39    17    1
    10    36    14    1
    11    14    13    1
    12    28    21    1
    13    28    18    1
    14    22    23    2
    15    22    21    1
    16    16    38    1
    17    16    15    1
    18    17    18    1
    19    17    12    1
    20    17    15    1
    21    34    11    1
    22    21    20    2
    23    18    19    1
    24    12    11    1
    25    13    15    1
    26    13    11    1
    27    13    35    1
    28    15    37    1
    29    11    10    1
    30    20    19    2
    31    19    40    1
    32    10    33    1
    33    10    32    1
    34    10     9    1
    35     9     6    1
    36     7     6    2
    37     6     5    1
    38     6     8    1
    39     5     1    1
    40     8    31    1
    41     3     1    1
    42     3    29    1
    43     1     4    1
    44     1     2    2
    45     4    30    1
