@<TRIPOS>MOLECULE
2c05_B4P_A_1.pdb
 31 33 0 0 0
SMALL
GASTEIGER

@<TRIPOS>ATOM
      1  O3A       16.8420   12.6040    6.4570 O.2   1136  B4P1136    -0.2221
      2  PB        16.1620   12.5380    7.8500 P.3   1136  B4P1136     0.5373
      3  O1B       15.9930   11.1240    8.2460 O.3   1136  B4P1136    -0.1143
      4  O2B       17.0280   13.1540    8.8440 O.3   1136  B4P1136    -0.1143
      5  O3B       14.8120   13.2470    7.7060 O.3   1136  B4P1136    -0.2258
      6  PG        13.9080   14.2190    8.5030 P.3   1136  B4P1136     0.2277
      7  O1G       13.7570   15.4560    7.7590 O.2   1136  B4P1136    -0.5168
      8  O2G       14.5890   14.4910    9.7910 O.3   1136  B4P1136    -0.4368
      9  O3G       12.4590   13.9280    8.6890 O.3   1136  B4P1136    -0.2700
     10  PD        11.6440   13.8640    9.9180 P.3   1136  B4P1136     0.2189
     11  O1D       11.6890   15.0660   10.7430 O.3   1136  B4P1136    -0.4371
     12  O2D       10.2420   13.5550    9.6050 O.2   1136  B4P1136    -0.5170
     13  O5F       12.2570   12.5130   10.6480 O.3   1136  B4P1136    -0.3112
     14  C5F       12.0390   12.1300   12.0710 C.3   1136  B4P1136     0.1813
     15  C4F       12.7730   10.8110   12.3390 C.3   1136  B4P1136     0.1821
     16  O4F       11.8490    9.7970   12.7430 O.3   1136  B4P1136    -0.3135
     17  C3F       13.5510   10.1340   11.1940 C.3   1136  B4P1136     0.2184
     18  O3F       14.8140   10.7460   10.9890 O.3   1136  B4P1136    -0.2174
     19  C2F       13.5410    8.6290   11.6280 C.3   1136  B4P1136     0.2570
     20  O2F       14.7140    8.2910   12.4080 O.3   1136  B4P1136    -0.2130
     21  C1F       12.2210    8.4450   12.3910 C.3   1136  B4P1136     0.3186
     22  N9B       11.1130    7.7290   11.5890 N.pl3 1136  B4P1136    -0.1439
     23  C8B       11.0350    7.3640   10.2650 C.3   1136  B4P1136     0.3377
     24  N7B        9.8680    6.7540   10.0280 N.2   1136  B4P1136    -0.2095
     25  C5B        9.2160    6.7310   11.1810 C.2   1136  B4P1136     0.2526
     26  C6B        7.9080    6.1880   11.4980 C.2   1136  B4P1136     0.4393
     27  N6B        7.0740    5.5830   10.6470 N.pl3 1136  B4P1136     0.2180
     28  N1B        7.4760    6.3150   12.8470 N.2   1136  B4P1136     0.0021
     29  C2B        8.2230    6.9180   13.8520 C.3   1136  B4P1136     0.5254
     30  N3B        9.4610    7.4250   13.5190 N.2   1136  B4P1136    -0.0055
     31  C4B        9.9820    7.3480   12.2130 C.2   1136  B4P1136     0.3518
@<TRIPOS>BOND
     1     1     2    2
     2     5     2    1
     3     5     6    1
     4     7     6    2
     5     2     3    1
     6     2     4    1
     7     6     9    1
     8     6     8    1
     9     9    10    1
    10    12    10    2
    11    10    13    1
    12    10    11    1
    13    24    23    1
    14    24    25    2
    15    23    22    1
    16    27    26    1
    17    13    14    1
    18    18    17    1
    19    25    26    1
    20    25    31    1
    21    17    19    1
    22    17    15    1
    23    26    28    2
    24    22    31    1
    25    22    21    1
    26    19    21    1
    27    19    20    1
    28    14    15    1
    29    31    30    2
    30    15    16    1
    31    21    16    1
    32    28    29    1
    33    30    29    1
