@<TRIPOS>MOLECULE
2c0c_NAP_A_1.pdb
 48 52 0 0 0
SMALL
GASTEIGER

@<TRIPOS>ATOM
      1  PA        42.9120   11.8130    2.7910 P.3   1363  NAP1363     0.2189
      2  O1A       43.2850   11.8660    4.2000 O.3   1363  NAP1363    -0.4371
      3  O2A       41.7980   12.6340    2.2520 O.2   1363  NAP1363    -0.5170
      4  O5B       42.5440   10.3020    2.5210 O.3   1363  NAP1363    -0.3112
      5  C5B       42.0120    9.9360    1.2860 C.3   1363  NAP1363     0.1813
      6  C4B       40.5000    9.8100    1.3670 C.3   1363  NAP1363     0.1820
      7  O4B       39.9920    9.6160    0.0250 O.3   1363  NAP1363    -0.3136
      8  C3B       39.9550    8.5920    2.1290 C.3   1363  NAP1363     0.2157
      9  O3B       39.9070    8.7020    3.5340 O.3   1363  NAP1363    -0.2175
     10  C2B       38.5760    8.4080    1.4390 C.3   1363  NAP1363     0.2314
     11  O2B       37.5870    9.2620    1.9560 O.3   1363  NAP1363    -0.2630
     12  C1B       38.8280    8.7870   -0.0070 C.3   1363  NAP1363     0.3158
     13  N9A       39.2940    7.6450   -0.8790 N.pl3 1363  NAP1363    -0.1439
     14  C8A       40.3050    6.7380   -0.6640 C.3   1363  NAP1363     0.3377
     15  N7A       40.4610    5.8930   -1.7030 N.2   1363  NAP1363    -0.2095
     16  C5A       39.5370    6.2730   -2.6150 C.2   1363  NAP1363     0.2526
     17  C6A       39.2420    5.7950   -3.8720 C.2   1363  NAP1363     0.4393
     18  N6A       39.8880    4.7650   -4.3780 N.pl3 1363  NAP1363     0.2180
     19  N1A       38.2310    6.4060   -4.5710 N.2   1363  NAP1363     0.0021
     20  C2A       37.5420    7.4800   -4.0350 C.3   1363  NAP1363     0.5254
     21  N3A       37.8280    7.9950   -2.7760 N.2   1363  NAP1363    -0.0055
     22  C4A       38.8250    7.3940   -2.1150 C.2   1363  NAP1363     0.3518
     23  O3        44.2560   11.9570    1.9810 O.3   1363  NAP1363    -0.2703
     24  PN        45.1010   13.2450    1.5080 P.3   1363  NAP1363     0.2189
     25  O1N       46.5220   12.8920    1.5120 O.2   1363  NAP1363    -0.5170
     26  O2N       44.5710   14.3790    2.2970 O.3   1363  NAP1363    -0.4371
     27  O5D       44.7210   13.5180   -0.0210 O.3   1363  NAP1363    -0.3112
     28  C5D       43.4080   13.9210   -0.4230 C.3   1363  NAP1363     0.1813
     29  C4D       43.4420   14.4920   -1.8430 C.3   1363  NAP1363     0.1799
     30  O4D       44.1200   15.7540   -1.8420 O.3   1363  NAP1363    -0.3327
     31  C3D       44.2690   13.6310   -2.8140 C.3   1363  NAP1363     0.2158
     32  O3D       43.7730   13.7220   -4.0980 O.3   1363  NAP1363    -0.2175
     33  C2D       45.5680   14.3380   -2.8750 C.3   1363  NAP1363     0.2309
     34  O2D       46.3380   14.1240   -4.0180 O.3   1363  NAP1363    -0.2158
     35  C1D       45.1460   15.7770   -2.7860 C.3   1363  NAP1363     0.2263
     36  N1N       46.1710   16.7180   -2.3520 N.pl3 1363  NAP1363    -0.2787
     37  C2N       46.6210   17.6120   -3.2820 C.3   1363  NAP1363     0.1244
     38  C3N       47.5950   18.5240   -3.0280 C.2   1363  NAP1363     0.0544
     39  C7N       47.9560   19.5300   -4.0710 C.2   1363  NAP1363     0.2818
     40  O7N       49.1110   20.2270   -3.8790 O.2   1363  NAP1363    -0.2670
     41  N7N       47.1960   19.7180   -5.1400 N.am  1363  NAP1363    -0.0839
     42  C4N       48.1460   18.5580   -1.7510 C.2   1363  NAP1363     0.0033
     43  C5N       47.7120   17.6320   -0.8170 C.2   1363  NAP1363     0.0157
     44  C6N       46.7030   16.7280   -1.1180 C.2   1363  NAP1363     0.0633
     45  P2B       36.0250    9.0800    1.8490 P.3   1363  NAP1363     0.5328
     46  O1X       35.5500   10.4540    1.6070 O.3   1363  NAP1363    -0.1145
     47  O2X       35.8920    8.1690    0.6850 O.2   1363  NAP1363    -0.2224
     48  O3X       35.4360    8.4680    3.0900 O.3   1363  NAP1363    -0.1145
@<TRIPOS>BOND
     1    41    39   am
     2    19    20    1
     3    19    17    2
     4    18    17    1
     5    32    31    1
     6    39    40    2
     7    39    38    1
     8    20    21    1
     9    34    33    1
    10    17    16    1
    11    37    38    1
    12    37    36    1
    13    38    42    2
    14    33    31    1
    15    33    35    1
    16    31    29    1
    17    35    36    1
    18    35    30    1
    19    21    22    2
    20    16    22    1
    21    16    15    2
    22    36    44    1
    23    22    13    1
    24    29    30    1
    25    29    28    1
    26    42    43    1
    27    15    14    1
    28    44    43    2
    29    13    14    1
    30    13    12    1
    31    28    27    1
    32    27    24    1
    33    12     7    1
    34    12    10    1
    35     7     6    1
    36    47    45    2
    37     5     6    1
    38     5     4    1
    39     6     8    1
    40    10    11    1
    41    10     8    1
    42    24    25    2
    43    24    23    1
    44    24    26    1
    45    46    45    1
    46    45    11    1
    47    45    48    1
    48    23     1    1
    49     8     9    1
    50     3     1    2
    51     4     1    1
    52     1     2    1
