@<TRIPOS>MOLECULE
2c0i_L1G_A_1.pdb
 44 50 0 0 0
SMALL
GASTEIGER

@<TRIPOS>ATOM
      1  C1         3.3210   63.1800   12.9070 C.2   1506  L1G1506     0.1227
      2  C2         4.3210   63.9430   12.2930 C.3   1506  L1G1506     0.2639
      3  C3         2.0910   63.6290   13.6070 C.ar  1506  L1G1506     0.0213
      4  N1         3.5970   61.8670   12.7230 N.2   1506  L1G1506    -0.0914
      5  C4         5.2240   63.0320   11.7340 C.2   1506  L1G1506     0.3405
      6  C5         4.5870   65.3110   12.1450 C.2   1506  L1G1506     0.4081
      7  C6         1.1750   64.3710   12.8640 C.ar  1506  L1G1506     0.0396
      8  C7         1.8110   63.2760   14.9350 C.ar  1506  L1G1506     0.0029
      9  N2         4.7760   61.8010   11.9920 N.pl3 1506  L1G1506    -0.0839
     10  N3         6.3190   63.4300   11.0610 N.2   1506  L1G1506    -0.0088
     11  N4         5.6860   65.6380   11.4690 N.2   1506  L1G1506    -0.0027
     12  N5         3.8090   66.3360   12.6160 N.pl3 1506  L1G1506     0.2118
     13  C8        -0.0340   64.7730   13.4390 C.ar  1506  L1G1506     0.1539
     14  C9         0.6170   63.7220   15.5070 C.ar  1506  L1G1506     0.0197
     15  C10        5.3800   60.4620   11.6560 C.3   1506  L1G1506     0.1874
     16  C11        6.5420   64.7370   10.9400 C.3   1506  L1G1506     0.5248
     17  C12       -0.2970   64.4750   14.7580 C.ar  1506  L1G1506     0.1075
     18  O1        -0.9720   65.5140   12.7900 O.3   1506  L1G1506    -0.4701
     19  C13        4.3660   59.5930   10.9080 C.3   1506  L1G1506     0.0504
     20  C14        5.8450   59.7590   12.9500 C.3   1506  L1G1506     0.0504
     21  N6        -1.5200   64.8930   15.2680 N.am  1506  L1G1506    -0.1711
     22  C15       -0.6060   66.3210   11.6770 C.3   1506  L1G1506     0.2525
     23  C16        4.9340   58.2130   10.6310 C.3   1506  L1G1506     0.0201
     24  C17        6.3810   58.3540   12.6580 C.3   1506  L1G1506     0.0201
     25  C18       -1.7110   65.2680   16.5310 C.2   1506  L1G1506     0.2850
     26  C19        5.3250   57.5180   11.9360 C.3   1506  L1G1506     0.0579
     27  C20       -3.0880   65.5980   16.9730 C.ar  1506  L1G1506     0.1161
     28  O2        -0.8000   65.3360   17.3380 O.2   1506  L1G1506    -0.2664
     29  N7         5.8270   56.1220   11.6570 N.3   1506  L1G1506    -0.2716
     30  N8        -3.4210   66.5150   17.9180 N.ar  1506  L1G1506    -0.3216
     31  C21       -4.2220   64.9580   16.5040 C.ar  1506  L1G1506     0.0233
     32  C22        6.3590   55.5010   12.8850 C.3   1506  L1G1506     0.0896
     33  C23        6.8600   56.1300   10.6140 C.3   1506  L1G1506     0.0896
     34  C24       -4.7690   66.5430   18.1120 C.ar  1506  L1G1506     0.0600
     35  C25       -2.4390   67.3790   18.6290 C.3   1506  L1G1506     0.1306
     36  C26       -5.2690   65.5830   17.2530 C.ar  1506  L1G1506     0.0174
     37  C27        6.7660   54.0470   12.5920 C.3   1506  L1G1506     0.0897
     38  C28        7.2500   54.6790   10.2840 C.3   1506  L1G1506     0.0897
     39  C29       -5.6300   67.2900   18.9250 C.ar  1506  L1G1506     0.0172
     40  C30       -6.6420   65.3580   17.1740 C.ar  1506  L1G1506     0.0015
     41  N9         7.7880   54.0210   11.5080 N.3   1506  L1G1506    -0.2691
     42  C31       -7.0120   67.0650   18.8750 C.ar  1506  L1G1506     0.0015
     43  C32       -7.5110   66.0930   18.0010 C.ar  1506  L1G1506     0.0001
     44  C33        8.1550   52.6150   11.2000 C.3   1506  L1G1506     0.0897
@<TRIPOS>BOND
     1    38    33    1
     2    38    41    1
     3    33    29    1
     4    23    19    1
     5    23    26    1
     6    19    15    1
     7    16    10    1
     8    16    11    1
     9    10     5    2
    10    44    41    1
    11    11     6    2
    12    41    37    1
    13    15     9    1
    14    15    20    1
    15    29    26    1
    16    29    32    1
    17    22    18    1
    18     5     9    1
    19     5     2    1
    20    26    24    1
    21     9     4    1
    22     6     2    1
    23     6    12    1
    24     2     1    1
    25    37    32    1
    26    24    20    1
    27     4     1    2
    28    18    13    1
    29     7    13   ar
    30     7     3   ar
    31     1     3    1
    32    13    17   ar
    33     3     8   ar
    34    17    21    1
    35    17    14   ar
    36     8    14   ar
    37    21    25   am
    38    31    27   ar
    39    31    36   ar
    40    25    27    1
    41    25    28    2
    42    27    30   ar
    43    40    36   ar
    44    40    43   ar
    45    36    34   ar
    46    30    34   ar
    47    30    35    1
    48    43    42   ar
    49    34    39   ar
    50    42    39   ar
