@<TRIPOS>MOLECULE
2c0k_HEM_A_1.pdb
 43 50 0 0 0
SMALL
GASTEIGER

@<TRIPOS>ATOM
      1 FE          1.4110   14.4370  -13.7130 Fe    1152  HEM1152     0.0000
      2  CHA        1.7310   16.3580  -16.6290 C.2   1152  HEM1152     0.0000
      3  CHB        2.1070   11.5530  -15.5760 C.2   1152  HEM1152     0.0000
      4  CHC        1.2970   12.4010  -10.8460 C.2   1152  HEM1152     0.0000
      5  CHD        0.5960   17.1380  -11.9020 C.2   1152  HEM1152     0.0000
      6  NA         1.9310   14.0460  -15.7270 N.ar  1152  HEM1152     0.0000
      7  C1A        1.8460   14.9780  -16.7700 C.ar  1152  HEM1152     0.0000
      8  C2A        1.9010   14.2390  -18.0290 C.ar  1152  HEM1152     0.0000
      9  C3A        1.9950   12.9210  -17.7410 C.ar  1152  HEM1152     0.0000
     10  C4A        2.0190   12.7670  -16.2830 C.ar  1152  HEM1152     0.0000
     11  CMA        2.0900   11.7800  -18.7950 C.3   1152  HEM1152     0.0000
     12  CAA        1.7860   14.8350  -19.4540 C.3   1152  HEM1152     0.0000
     13  CBA        3.0250   15.6150  -19.8710 C.3   1152  HEM1152     0.0000
     14  CGA        2.8390   15.9960  -21.3350 C.2   1152  HEM1152     0.0000
     15  O1A        3.8800   16.1360  -22.0520 O.co2 1152  HEM1152     0.0000
     16  O2A        1.6350   16.1260  -21.7940 O.co2 1152  HEM1152     0.0000
     17  NB         1.6290   12.3210  -13.2780 N.2   1152  HEM1152     0.0000
     18  C1B        1.9280   11.3480  -14.2020 C.2   1152  HEM1152     0.0000
     19  C2B        2.0600   10.0810  -13.4840 C.2   1152  HEM1152     0.0000
     20  C3B        1.8230   10.3200  -12.1690 C.2   1152  HEM1152     0.0000
     21  C4B        1.5670   11.7380  -12.0240 C.2   1152  HEM1152     0.0000
     22  CMB        2.3590    8.6950  -14.1380 C.3   1152  HEM1152     0.0000
     23  CAB        1.8530    9.2920  -10.9950 C.2   1152  HEM1152     0.0000
     24  CBB        1.2100    8.1320  -11.0800 C.2   1152  HEM1152     0.0000
     25  NC         1.0730   14.6920  -11.7500 N.ar  1152  HEM1152     0.0000
     26  C1C        0.9810   13.7330  -10.7390 C.ar  1152  HEM1152     0.0000
     27  C2C        0.4730   14.3840   -9.5510 C.ar  1152  HEM1152     0.0000
     28  C3C        0.2660   15.6940   -9.8430 C.ar  1152  HEM1152     0.0000
     29  C4C        0.6390   15.9110  -11.2330 C.ar  1152  HEM1152     0.0000
     30  CMC        0.1910   13.6870   -8.2100 C.3   1152  HEM1152     0.0000
     31  CAC       -0.2670   16.7870   -8.8760 C.2   1152  HEM1152     0.0000
     32  CBC       -1.5340   16.7530   -8.4560 C.2   1152  HEM1152     0.0000
     33  ND         1.2610   16.4580  -14.2010 N.2   1152  HEM1152     0.0000
     34  C1D        0.7620   17.3780  -13.2650 C.2   1152  HEM1152     0.0000
     35  C2D        0.4420   18.6110  -13.9600 C.2   1152  HEM1152     0.0000
     36  C3D        0.8120   18.3790  -15.4160 C.2   1152  HEM1152     0.0000
     37  C4D        1.3020   17.0130  -15.4910 C.2   1152  HEM1152     0.0000
     38  CMD       -0.1390   19.9150  -13.3440 C.3   1152  HEM1152     0.0000
     39  CAD        0.6260   19.3730  -16.5870 C.3   1152  HEM1152     0.0000
     40  CBD       -0.7930   19.1960  -17.1260 C.3   1152  HEM1152     0.0000
     41  CGD       -0.9450   19.8370  -18.4880 C.2   1152  HEM1152     0.0000
     42  O1D       -1.8830   19.4380  -19.2290 O.co2 1152  HEM1152     0.0000
     43  O2D       -0.1570   20.7650  -18.8180 O.co2 1152  HEM1152     0.0000
@<TRIPOS>BOND
     1    15    14   ar
     2    16    14   ar
     3    14    13    1
     4    13    12    1
     5    12     8    1
     6    42    41   ar
     7    43    41   ar
     8    11     9    1
     9    41    40    1
    10     8     9   ar
    11     8     7   ar
    12     9    10   ar
    13    40    39    1
    14     7     2    2
    15     7     6   ar
    16     2    37    1
    17    39    36    1
    18    10     6   ar
    19    10     3    2
    20     6     1    1
    21     3    18    1
    22    37    36    1
    23    37    33    2
    24    36    35    2
    25    18    19    1
    26    18    17    2
    27    33     1    1
    28    33    34    1
    29    22    19    1
    30    35    38    1
    31    35    34    1
    32     1    17    1
    33     1    25    1
    34    19    20    2
    35    17    21    1
    36    34     5    2
    37    20    21    1
    38    20    23    1
    39    21     4    2
    40     5    29    1
    41    25    29   ar
    42    25    26   ar
    43    29    28   ar
    44    24    23    2
    45     4    26    1
    46    26    27   ar
    47    28    27   ar
    48    28    31    1
    49    27    30    1
    50    31    32    2
