@<TRIPOS>MOLECULE
2c0o_L2G_A_1.pdb
 46 52 0 0 0
SMALL
GASTEIGER

@<TRIPOS>ATOM
      1  C1         2.9600   63.1120   13.1380 C.2   1506  L2G1506     0.1227
      2  C2         3.9680   63.9010   12.5360 C.3   1506  L2G1506     0.2639
      3  C3         1.7120   63.5930   13.7790 C.ar  1506  L2G1506     0.0213
      4  N1         3.2810   61.8140   12.9140 N.2   1506  L2G1506    -0.0914
      5  C4         4.9090   63.0450   12.0100 C.2   1506  L2G1506     0.3405
      6  C5         4.1730   65.2680   12.4440 C.2   1506  L2G1506     0.4081
      7  C6         0.8310   64.3810   13.0540 C.ar  1506  L2G1506     0.0396
      8  C7         1.3660   63.1700   15.0500 C.ar  1506  L2G1506     0.0029
      9  N2         4.4370   61.8310   12.1490 N.pl3 1506  L2G1506    -0.0839
     10  N3         5.9940   63.5380   11.3690 N.2   1506  L2G1506    -0.0088
     11  N4         5.2890   65.7390   11.8220 N.2   1506  L2G1506    -0.0027
     12  N5         3.2780   66.1210   12.9560 N.pl3 1506  L2G1506     0.2118
     13  C8        -0.3790   64.7980   13.6180 C.ar  1506  L2G1506     0.1539
     14  C9         0.1430   63.5880   15.6080 C.ar  1506  L2G1506     0.0197
     15  C10        5.0530   60.4790   11.9040 C.3   1506  L2G1506     0.1874
     16  C11        6.2010   64.8700   11.3050 C.3   1506  L2G1506     0.5248
     17  C12       -0.7050   64.4440   14.8840 C.ar  1506  L2G1506     0.1075
     18  O1        -1.2180   65.5770   12.9080 O.3   1506  L2G1506    -0.4701
     19  C13        5.4850   59.8440   13.2290 C.3   1506  L2G1506     0.0504
     20  C14        4.0780   59.5490   11.1760 C.3   1506  L2G1506     0.0504
     21  N6        -1.9570   64.8220   15.3980 N.am  1506  L2G1506    -0.1711
     22  C15       -0.7880   66.1220   11.6700 C.3   1506  L2G1506     0.2525
     23  C16        6.1350   58.4770   12.9930 C.3   1506  L2G1506     0.0201
     24  C17        4.7330   58.1750   10.9210 C.3   1506  L2G1506     0.0201
     25  C18       -2.0980   65.3620   16.6060 C.2   1506  L2G1506     0.2850
     26  C19        5.1790   57.5330   12.2510 C.3   1506  L2G1506     0.0579
     27  C20       -3.4920   65.6730   17.0870 C.ar  1506  L2G1506     0.1161
     28  O2        -1.1420   65.5740   17.3410 O.2   1506  L2G1506    -0.2664
     29  N7         5.8480   56.2190   12.0270 N.3   1506  L2G1506    -0.2711
     30  N8        -3.8510   66.6410   18.0360 N.ar  1506  L2G1506    -0.3216
     31  C21       -4.6610   65.0280   16.6740 C.ar  1506  L2G1506     0.0233
     32  C22        6.2480   56.0600   10.6380 C.3   1506  L2G1506     0.0939
     33  C23        4.9450   55.1310   12.3780 C.3   1506  L2G1506     0.0939
     34  C24       -5.2010   66.6080   18.2070 C.ar  1506  L2G1506     0.0600
     35  C25       -2.9350   67.5510   18.7270 C.3   1506  L2G1506     0.1306
     36  C26       -5.6490   65.6570   17.3920 C.ar  1506  L2G1506     0.0174
     37  C27        7.0960   54.7920   10.5080 C.3   1506  L2G1506     0.1107
     38  C28        5.7480   53.8470   12.4190 C.3   1506  L2G1506     0.1107
     39  C29       -6.0950   67.3580   19.0180 C.ar  1506  L2G1506     0.0172
     40  C30       -7.0130   65.3780   17.3380 C.ar  1506  L2G1506     0.0015
     41  N9         6.2760   53.6670   11.0550 N.am  1506  L2G1506    -0.2767
     42  C31       -7.4530   67.0830   18.9860 C.ar  1506  L2G1506     0.0015
     43  C32       -7.9170   66.0980   18.1440 C.ar  1506  L2G1506     0.0001
     44  C33        6.1020   52.5220   10.3710 C.2   1506  L2G1506     0.2262
     45  C34        5.3030   51.4370   11.0680 C.3   1506  L2G1506     0.0948
     46  O3         6.5680   52.3620    9.2640 O.2   1506  L2G1506    -0.2749
@<TRIPOS>BOND
     1    46    44    2
     2    44    41   am
     3    44    45    1
     4    37    32    1
     5    37    41    1
     6    32    29    1
     7    24    20    1
     8    24    26    1
     9    41    38    1
    10    20    15    1
    11    16    10    1
    12    16    11    1
    13    10     5    2
    14    22    18    1
    15    11     6    2
    16    15     9    1
    17    15    19    1
    18     5     9    1
    19     5     2    1
    20    29    26    1
    21    29    33    1
    22     9     4    1
    23    26    23    1
    24    33    38    1
    25     6     2    1
    26     6    12    1
    27     2     1    1
    28    18    13    1
    29     4     1    2
    30    23    19    1
    31     7    13   ar
    32     7     3   ar
    33     1     3    1
    34    13    17   ar
    35     3     8   ar
    36    17    21    1
    37    17    14   ar
    38     8    14   ar
    39    21    25   am
    40    25    27    1
    41    25    28    2
    42    31    27   ar
    43    31    36   ar
    44    27    30   ar
    45    40    36   ar
    46    40    43   ar
    47    36    34   ar
    48    30    34   ar
    49    30    35    1
    50    43    42   ar
    51    34    39   ar
    52    42    39   ar
