@<TRIPOS>MOLECULE
2c0r_PLP_A_1.pdb
 15 15 0 0 0
SMALL
GASTEIGER

@<TRIPOS>ATOM
      1  N1        14.9000   49.8590    3.8990 N.ar  363  PLP363     -0.2452
      2  C2        14.7980   48.7610    3.0990 C.ar  363  PLP363      0.0978
      3  C2A       15.6850   48.7280    1.8560 C.3   363  PLP363      0.0555
      4  C3        13.9510   47.7410    3.4190 C.ar  363  PLP363      0.2049
      5  O3        13.8850   46.6130    2.6620 O.3   363  PLP363     -0.2857
      6  C4        13.2510   47.8130    4.6120 C.ar  363  PLP363      0.0182
      7  C4A       12.3020   46.6710    4.9800 C.3   363  PLP363      0.0342
      8  C5        13.3080   48.9680    5.3630 C.ar  363  PLP363      0.0261
      9  C6        14.1900   49.9580    5.0670 C.ar  363  PLP363      0.0965
     10  C5A       12.4110   49.1370    6.5970 C.3   363  PLP363      0.1815
     11  O4P       12.8950   48.3300    7.6650 O.3   363  PLP363     -0.2653
     12  P         12.1780   48.2940    9.0880 P.3   363  PLP363      0.5329
     13  O1P       13.0900   47.4830    9.9650 O.3   363  PLP363     -0.1145
     14  O2P       10.8510   47.6150    8.8220 O.2   363  PLP363     -0.2224
     15  O3P       12.0200   49.7090    9.5180 O.3   363  PLP363     -0.1145
@<TRIPOS>BOND
     1     3     2    1
     2     5     4    1
     3     2     4   ar
     4     2     1   ar
     5     4     6   ar
     6     1     9   ar
     7     6     7    1
     8     6     8   ar
     9     9     8   ar
    10     8    10    1
    11    10    11    1
    12    11    12    1
    13    14    12    2
    14    12    15    1
    15    12    13    1
