@<TRIPOS>MOLECULE
2c0t_L3G_A_1.pdb
 43 49 0 0 0
SMALL
GASTEIGER

@<TRIPOS>ATOM
      1  C1         3.2690   63.0830   12.8330 C.2   1506  L3G1506     0.1227
      2  C2         4.2970   63.8450   12.2510 C.3   1506  L3G1506     0.2639
      3  C3         2.0140   63.5110   13.5350 C.ar  1506  L3G1506     0.0213
      4  N1         3.6040   61.7730   12.6710 N.2   1506  L3G1506    -0.0914
      5  C4         5.2640   62.9700   11.7340 C.2   1506  L3G1506     0.3405
      6  C5         4.5600   65.1930   12.1320 C.2   1506  L3G1506     0.4081
      7  C6         1.1510   64.3450   12.8300 C.ar  1506  L3G1506     0.0396
      8  C7         1.6890   63.0680   14.8510 C.ar  1506  L3G1506     0.0029
      9  N2         4.8330   61.7450   11.9350 N.pl3 1506  L3G1506    -0.0838
     10  N3         6.3770   63.3820   11.0940 N.2   1506  L3G1506    -0.0088
     11  N4         5.6980   65.5810   11.5280 N.2   1506  L3G1506    -0.0027
     12  N5         3.7480   66.1730   12.6390 N.pl3 1506  L3G1506     0.2118
     13  C8        -0.0630   64.7350   13.4110 C.ar  1506  L3G1506     0.1539
     14  C9         0.4750   63.4990   15.4480 C.ar  1506  L3G1506     0.0197
     15  C11        6.5790   64.7020   11.0090 C.3   1506  L3G1506     0.5248
     16  C12       -0.3740   64.3680   14.7110 C.ar  1506  L3G1506     0.1075
     17  O1        -0.9190   65.5820   12.7550 O.3   1506  L3G1506    -0.4701
     18  C13        7.5540   54.6830   10.7940 C.3   1506  L3G1506     0.1435
     19  C14        5.4660   53.7480   11.4940 C.3   1506  L3G1506     0.1435
     20  N6        -1.6120   64.7650   15.2400 N.am  1506  L3G1506    -0.1711
     21  C15       -0.6400   66.0470   11.4340 C.3   1506  L3G1506     0.2525
     22  C16        7.0130   56.1280   10.7260 C.3   1506  L3G1506     0.0481
     23  C17        4.7620   55.1320   11.4560 C.3   1506  L3G1506     0.0481
     24  C18       -1.7880   65.2090   16.4760 C.2   1506  L3G1506     0.2850
     25  C19        5.8030   56.2500   11.6500 C.3   1506  L3G1506     0.0625
     26  C20       -3.1960   65.4890   16.8790 C.ar  1506  L3G1506     0.1161
     27  O2        -0.8610   65.4030   17.2610 O.2   1506  L3G1506    -0.2664
     28  N7         5.3140   57.6330   11.7630 N.3   1506  L3G1506    -0.2735
     29  N8        -3.5840   66.3830   17.8100 N.ar  1506  L3G1506    -0.3216
     30  C21       -4.3040   64.8310   16.3440 C.ar  1506  L3G1506     0.0233
     31  C22        4.9750   58.2620   10.4920 C.3   1506  L3G1506     0.0763
     32  C23        6.2210   58.3050   12.7190 C.3   1506  L3G1506     0.0763
     33  C24       -4.9220   66.3650   17.9620 C.ar  1506  L3G1506     0.0600
     34  C25       -2.6650   67.2470   18.6170 C.3   1506  L3G1506     0.1306
     35  C26       -5.3810   65.4320   17.0590 C.ar  1506  L3G1506     0.0174
     36  C27        4.4320   59.6390   10.7980 C.3   1506  L3G1506     0.0664
     37  C28        5.8340   59.7890   12.9260 C.3   1506  L3G1506     0.0664
     38  C29       -5.8090   67.0880   18.7740 C.ar  1506  L3G1506     0.0172
     39  C30       -6.7530   65.1710   16.9490 C.ar  1506  L3G1506     0.0015
     40  C10        5.4290   60.4520   11.6100 C.3   1506  L3G1506     0.1901
     41  C31       -7.1750   66.8440   18.6680 C.ar  1506  L3G1506     0.0015
     42  C32       -7.6470   65.8820   17.7620 C.ar  1506  L3G1506     0.0001
     43  O3         6.4980   53.7560   10.4870 O.3   1506  L3G1506    -0.3537
@<TRIPOS>BOND
     1    43    18    1
     2    43    19    1
     3    31    36    1
     4    31    28    1
     5    22    18    1
     6    22    25    1
     7    36    40    1
     8    15    10    1
     9    15    11    1
    10    10     5    2
    11    21    17    1
    12    23    19    1
    13    23    25    1
    14    11     6    2
    15    40     9    1
    16    40    37    1
    17    25    28    1
    18     5     9    1
    19     5     2    1
    20    28    32    1
    21     9     4    1
    22     6     2    1
    23     6    12    1
    24     2     1    1
    25     4     1    2
    26    32    37    1
    27    17    13    1
    28     7    13   ar
    29     7     3   ar
    30     1     3    1
    31    13    16   ar
    32     3     8   ar
    33    16    20    1
    34    16    14   ar
    35     8    14   ar
    36    20    24   am
    37    30    26   ar
    38    30    35   ar
    39    24    26    1
    40    24    27    2
    41    26    29   ar
    42    39    35   ar
    43    39    42   ar
    44    35    33   ar
    45    42    41   ar
    46    29    33   ar
    47    29    34    1
    48    33    38   ar
    49    41    38   ar
