@<TRIPOS>MOLECULE
2c11_FUL_D_1.pdb
 10 10 0 0 0
SMALL
GASTEIGER

@<TRIPOS>ATOM
      1  C1       142.5550   84.7170   -0.4230 C.3   1734  FUL1734     0.1776
      2  C2       141.7000   85.8550    0.1470 C.3   1734  FUL1734     0.2141
      3  O2       140.6350   85.3050    0.9100 O.3   1734  FUL1734    -0.2176
      4  C3       142.5470   86.7920    1.0350 C.3   1734  FUL1734     0.2172
      5  O3       141.7910   87.9520    1.3670 O.3   1734  FUL1734    -0.2175
      6  C4       143.8530   87.2230    0.3400 C.3   1734  FUL1734     0.2116
      7  O4       143.5810   88.2290   -0.6250 O.3   1734  FUL1734    -0.2177
      8  C5       144.5730   86.0190   -0.3180 C.3   1734  FUL1734     0.1483
      9  C6       145.7540   86.4110   -1.1910 C.3   1734  FUL1734     0.0349
     10  O5       143.6540   85.2610   -1.1440 O.3   1734  FUL1734    -0.3508
@<TRIPOS>BOND
     1     9     8    1
     2    10     1    1
     3    10     8    1
     4     7     6    1
     5     1     2    1
     6     8     6    1
     7     2     3    1
     8     2     4    1
     9     6     4    1
    10     4     5    1
