@<TRIPOS>MOLECULE
2c12_SPM_B_1.pdb
 14 13 0 0 0
SMALL
GASTEIGER

@<TRIPOS>ATOM
      1  N1        85.1770   30.6880  208.3880 N.3   1433  SPM1433    -0.1313
      2  C2        84.1350   31.0140  207.4440 C.3   1433  SPM1433     0.1108
      3  C3        83.2400   32.0270  208.1210 C.3   1433  SPM1433     0.0393
      4  C4        81.8660   32.0710  207.4960 C.3   1433  SPM1433     0.0902
      5  N5        81.9390   33.1230  206.5190 N.3   1433  SPM1433    -0.2180
      6  C6        80.8780   34.0800  206.4620 C.3   1433  SPM1433     0.0887
      7  C7        81.0600   34.9760  205.2490 C.3   1433  SPM1433     0.0203
      8  C8        80.4490   34.3450  204.0140 C.3   1433  SPM1433     0.0203
      9  C9        80.0730   35.3930  202.9780 C.3   1433  SPM1433     0.0887
     10  N10       79.2110   34.7690  202.0030 N.3   1433  SPM1433    -0.2180
     11  C11       79.2750   35.2270  200.6430 C.3   1433  SPM1433     0.0902
     12  C12       78.2460   34.5720  199.7270 C.3   1433  SPM1433     0.0393
     13  C13       77.1700   35.5300  199.2250 C.3   1433  SPM1433     0.1108
     14  N14       77.0620   35.3860  197.7800 N.3   1433  SPM1433    -0.1313
@<TRIPOS>BOND
     1    14    13    1
     2    13    12    1
     3    12    11    1
     4    11    10    1
     5    10     9    1
     6     9     8    1
     7     8     7    1
     8     7     6    1
     9     6     5    1
    10     5     4    1
    11     2     3    1
    12     2     1    1
    13     4     3    1
