@<TRIPOS>MOLECULE
2c13_PGE_B_1.pdb
 10 9 0 0 0
SMALL
GASTEIGER

@<TRIPOS>ATOM
      1  C1       105.2490   41.5990   -0.7260 C.3   1339  PGE1339     0.2140
      2  O1       105.4850   43.0060   -0.8570 O.3   1339  PGE1339    -0.2176
      3  C2       106.0270   40.7820   -1.7750 C.3   1339  PGE1339     0.1777
      4  O2       106.3390   39.4810   -1.2470 O.3   1339  PGE1339    -0.3483
      5  C3       105.7120   38.4030   -1.9700 C.3   1339  PGE1339     0.1742
      6  C4       105.8950   37.0320   -1.2950 C.3   1339  PGE1339     0.1742
      7  O4       106.3290   35.1610    2.7910 O.3   1339  PGE1339    -0.2176
      8  C6       107.0950   36.0680    1.9710 C.3   1339  PGE1339     0.2140
      9  C5       106.9490   35.8140    0.4620 C.3   1339  PGE1339     0.1777
     10  O3       106.8810   37.0510   -0.2490 O.3   1339  PGE1339    -0.3483
@<TRIPOS>BOND
     1     5     6    1
     2     5     4    1
     3     3     4    1
     4     3     1    1
     5     6    10    1
     6     2     1    1
     7    10     9    1
     8     9     8    1
     9     8     7    1
