@<TRIPOS>MOLECULE
2c1a_I5S_A_1.pdb
 28 30 0 0 0
SMALL
GASTEIGER

@<TRIPOS>ATOM
      1 CL1        12.9800   14.4640   -0.2000 Cl    1351  I5S1351    -0.0822
      2  C2        13.4670   13.2150    0.8600 C.ar  1351  I5S1351     0.0577
      3  C3        12.8060   13.0070    2.0610 C.ar  1351  I5S1351     0.0111
      4  C4        13.2320   11.9960    2.9010 C.ar  1351  I5S1351    -0.0010
      5  C5        14.3410   11.2320    2.5390 C.ar  1351  I5S1351     0.0073
      6  C6        14.7610   10.1120    3.4440 C.3   1351  I5S1351     0.1686
      7  O7        13.7410    9.1450    3.1360 O.3   1351  I5S1351    -0.3475
      8  C8        14.2370    7.8400    3.2240 C.3   1351  I5S1351     0.1614
      9  C9        13.1630    6.7670    3.0450 C.3   1351  I5S1351     0.1207
     10  N10       11.8370    7.2790    2.6380 N.3   1351  I5S1351    -0.2138
     11  C13       11.0990    7.8460    3.7530 C.3   1351  I5S1351     0.1096
     12  C14        9.5890    7.8320    3.4420 C.3   1351  I5S1351     0.1342
     13  N15        8.9710    8.6680    4.4780 N.3   1351  I5S1351    -0.0763
     14  S16        8.7360   10.2570    4.1790 S.O2  1351  I5S1351     0.0769
     15  O17        8.4880   10.6990    5.4780 O.2   1351  I5S1351    -0.1516
     16  O18        9.7340   10.7660    3.3120 O.2   1351  I5S1351    -0.1516
     17  C19        7.3110   10.2930    3.1490 C.ar  1351  I5S1351     0.1236
     18  C20        7.4900   10.4080    1.7910 C.ar  1351  I5S1351     0.0200
     19  C21        6.4020   10.4050    0.8900 C.ar  1351  I5S1351     0.0014
     20  C22        5.1240   10.3480    1.3600 C.ar  1351  I5S1351     0.0016
     21  C23        4.8920   10.2740    2.7480 C.ar  1351  I5S1351     0.0205
     22  C24        3.5630   10.2000    3.2420 C.ar  1351  I5S1351     0.0989
     23  N25        3.3130   10.1080    4.5290 N.ar  1351  I5S1351    -0.2423
     24  C26        4.3100   10.1000    5.4270 C.ar  1351  I5S1351     0.0989
     25  C27        5.6460   10.1750    5.0400 C.ar  1351  I5S1351     0.0220
     26  C28        5.9830   10.2650    3.6710 C.ar  1351  I5S1351     0.0217
     27  C29       14.9900   11.4290    1.3290 C.ar  1351  I5S1351    -0.0010
     28  C30       14.5620   12.4350    0.4890 C.ar  1351  I5S1351     0.0111
@<TRIPOS>BOND
     1     1     2    1
     2    28     2   ar
     3    28    27   ar
     4     2     3   ar
     5    19    20   ar
     6    19    18   ar
     7    27     5   ar
     8    20    21   ar
     9    18    17   ar
    10     3     4   ar
    11     5     4   ar
    12     5     6    1
    13    10     9    1
    14    10    11    1
    15    21    22   ar
    16    21    26   ar
    17     9     8    1
    18     7     8    1
    19     7     6    1
    20    17    26   ar
    21    17    14    1
    22    22    23   ar
    23    16    14    2
    24    12    11    1
    25    12    13    1
    26    26    25   ar
    27    14    13    1
    28    14    15    2
    29    23    24   ar
    30    25    24   ar
