@<TRIPOS>MOLECULE
2c1b_CQP_A_1.pdb
 29 32 0 0 0
SMALL
GASTEIGER

@<TRIPOS>ATOM
      1 CL1        12.6650   14.1950   -0.1330 Cl    1351  CQP1351    -0.0822
      2  C2        13.2450   12.7580    0.5420 C.ar  1351  CQP1351     0.0577
      3  C3        14.0250   11.9220   -0.2550 C.ar  1351  CQP1351     0.0111
      4  C4        14.5520   10.7540    0.2910 C.ar  1351  CQP1351    -0.0010
      5  C5        14.3060   10.4030    1.6290 C.ar  1351  CQP1351     0.0073
      6  C6        14.9490    9.1530    2.1380 C.3   1351  CQP1351     0.1685
      7  O7        14.3120    8.6760    3.3390 O.3   1351  CQP1351    -0.3500
      8  C8        13.5600    7.4940    3.0620 C.3   1351  CQP1351     0.1344
      9  C10       12.9710    7.0150    4.5000 C.3   1351  CQP1351     0.1182
     10  N10       11.9460    8.3050    4.8150 N.3   1351  CQP1351    -0.2153
     11  C13       11.2540    8.5020    3.4830 C.3   1351  CQP1351     0.0946
     12  C14        9.8230    7.9390    3.5500 C.3   1351  CQP1351     0.1328
     13  N15        9.0270    8.5410    4.6020 N.3   1351  CQP1351    -0.0763
     14  S16        8.4960   10.0900    4.5320 S.O2  1351  CQP1351     0.0769
     15  O17        9.4500   10.9570    3.9800 O.2   1351  CQP1351    -0.1516
     16  O18        8.1120   10.3760    5.8610 O.2   1351  CQP1351    -0.1516
     17  C19        7.2260   10.1130    3.4510 C.ar  1351  CQP1351     0.1236
     18  C20        7.5180   10.2640    2.0960 C.ar  1351  CQP1351     0.0200
     19  C21        6.5270   10.3200    1.0980 C.ar  1351  CQP1351     0.0014
     20  C22        5.1920   10.2040    1.4400 C.ar  1351  CQP1351     0.0016
     21  C23        4.8390   10.0630    2.8030 C.ar  1351  CQP1351     0.0205
     22  C24        3.4600    9.9370    3.1700 C.ar  1351  CQP1351     0.0989
     23  N25        3.0440    9.7730    4.4140 N.ar  1351  CQP1351    -0.2423
     24  C26        3.9990    9.7300    5.4010 C.ar  1351  CQP1351     0.0989
     25  C27        5.3690    9.8210    5.1730 C.ar  1351  CQP1351     0.0220
     26  C28        5.8450   10.0030    3.8310 C.ar  1351  CQP1351     0.0217
     27  C29       13.5070   11.2510    2.4190 C.ar  1351  CQP1351    -0.0010
     28  C31       12.0980    7.8580    2.3790 C.3   1351  CQP1351     0.0500
     29  C30       12.9890   12.4240    1.8830 C.ar  1351  CQP1351     0.0111
@<TRIPOS>BOND
     1     3     4   ar
     2     3     2   ar
     3     1     2    1
     4     4     5   ar
     5     2    29   ar
     6    19    20   ar
     7    19    18   ar
     8    20    21   ar
     9     5     6    1
    10     5    27   ar
    11    29    27   ar
    12    18    17   ar
    13     6     7    1
    14    28     8    1
    15    28    11    1
    16    21    22   ar
    17    21    26   ar
    18     8     7    1
    19     8     9    1
    20    22    23   ar
    21    17    26   ar
    22    17    14    1
    23    11    12    1
    24    11    10    1
    25    12    13    1
    26    26    25   ar
    27    15    14    2
    28    23    24   ar
    29     9    10    1
    30    14    13    1
    31    14    16    2
    32    25    24   ar
