@<TRIPOS>MOLECULE
2c1d_HEC_A_1.pdb
 43 50 0 0 0
SMALL
GASTEIGER

@<TRIPOS>ATOM
      1 FE          9.0280  -23.1510   72.4060 Fe    1291  HEC1291     0.0000
      2  CHA        7.6280  -24.1510   69.3560 C.2   1291  HEC1291     0.0000
      3  CHB       10.9880  -20.9780   70.7870 C.2   1291  HEC1291     0.0000
      4  CHC       10.0780  -22.0230   75.4180 C.2   1291  HEC1291     0.0000
      5  CHD        7.5850  -25.8860   73.9070 C.2   1291  HEC1291     0.0000
      6  NA         9.2650  -22.6880   70.4410 N.ar  1291  HEC1291     0.0000
      7  C1A        8.6190  -23.2050   69.3440 C.ar  1291  HEC1291     0.0000
      8  C2A        9.1210  -22.5460   68.1750 C.ar  1291  HEC1291     0.0000
      9  C3A       10.0480  -21.6680   68.5760 C.ar  1291  HEC1291     0.0000
     10  C4A       10.1400  -21.7180   70.0160 C.ar  1291  HEC1291     0.0000
     11  CMA       10.8650  -20.7160   67.6950 C.3   1291  HEC1291     0.0000
     12  CAA        8.6450  -22.8400   66.7390 C.3   1291  HEC1291     0.0000
     13  CBA        9.2090  -24.1910   66.3440 C.3   1291  HEC1291     0.0000
     14  CGA        8.6610  -24.7330   65.0330 C.2   1291  HEC1291     0.0000
     15  O1A        7.5470  -24.3640   64.5960 O.co2 1291  HEC1291     0.0000
     16  O2A        9.4010  -25.5730   64.4520 O.co2 1291  HEC1291     0.0000
     17  NB        10.3400  -21.7620   72.9980 N.2   1291  HEC1291     0.0000
     18  C1B       10.9840  -20.8860   72.1550 C.2   1291  HEC1291     0.0000
     19  C2B       11.6120  -19.8650   72.9820 C.2   1291  HEC1291     0.0000
     20  C3B       11.3690  -20.1570   74.2650 C.2   1291  HEC1291     0.0000
     21  C4B       10.5590  -21.3670   74.2990 C.2   1291  HEC1291     0.0000
     22  CMB       12.4800  -18.7110   72.4390 C.3   1291  HEC1291     0.0000
     23  CAB       11.8450  -19.3420   75.5120 C.3   1291  HEC1291     0.0000
     24  CBB       11.4670  -18.0280   75.4350 C.3   1291  HEC1291     0.0000
     25  NC         8.8680  -23.8710   74.3250 N.ar  1291  HEC1291     0.0000
     26  C1C        9.3090  -23.1820   75.4320 C.ar  1291  HEC1291     0.0000
     27  C2C        8.9460  -23.9630   76.5990 C.ar  1291  HEC1291     0.0000
     28  C3C        8.1440  -24.9790   76.1980 C.ar  1291  HEC1291     0.0000
     29  C4C        8.1650  -24.9750   74.7440 C.ar  1291  HEC1291     0.0000
     30  CMC        9.1220  -23.4450   78.0450 C.3   1291  HEC1291     0.0000
     31  CAC        7.4530  -26.0760   77.0780 C.2   1291  HEC1291     0.0000
     32  CBC        6.6790  -25.6980   78.1200 C.2   1291  HEC1291     0.0000
     33  ND         7.8030  -24.7610   71.7160 N.2   1291  HEC1291     0.0000
     34  C1D        7.2890  -25.7340   72.5700 C.2   1291  HEC1291     0.0000
     35  C2D        6.3560  -26.5640   71.8340 C.2   1291  HEC1291     0.0000
     36  C3D        6.3450  -26.0130   70.4190 C.2   1291  HEC1291     0.0000
     37  C4D        7.2830  -24.9020   70.4370 C.2   1291  HEC1291     0.0000
     38  CMD        5.5240  -27.7590   72.3360 C.3   1291  HEC1291     0.0000
     39  CAD        5.5240  -26.5190   69.2220 C.3   1291  HEC1291     0.0000
     40  CBD        6.2990  -27.5880   68.5140 C.3   1291  HEC1291     0.0000
     41  CGD        5.5950  -28.0240   67.2310 C.2   1291  HEC1291     0.0000
     42  O1D        5.7720  -29.2110   66.8230 O.co2 1291  HEC1291     0.0000
     43  O2D        4.8920  -27.1830   66.6290 O.co2 1291  HEC1291     0.0000
@<TRIPOS>BOND
     1    16    14   ar
     2    15    14   ar
     3    14    13    1
     4    13    12    1
     5    43    41   ar
     6    12     8    1
     7    42    41   ar
     8    41    40    1
     9    11     9    1
    10     8     9   ar
    11     8     7   ar
    12    40    39    1
    13     9    10   ar
    14    39    36    1
    15     7     2    2
    16     7     6   ar
    17     2    37    1
    18    10     6   ar
    19    10     3    2
    20    36    37    1
    21    36    35    2
    22    37    33    2
    23     6     1    1
    24     3    18    1
    25    33     1    1
    26    33    34    1
    27    35    38    1
    28    35    34    1
    29    18    19    1
    30    18    17    2
    31     1    17    1
    32     1    25    1
    33    22    19    1
    34    34     5    2
    35    19    20    2
    36    17    21    1
    37     5    29    1
    38    20    21    1
    39    20    23    1
    40    21     4    2
    41    25    29   ar
    42    25    26   ar
    43    29    28   ar
    44     4    26    1
    45    26    27   ar
    46    24    23    1
    47    28    27   ar
    48    28    31    1
    49    27    30    1
    50    31    32    2
