@<TRIPOS>MOLECULE
2c1e_III_C_1.pdb
 49 49 0 0 0
SMALL
GASTEIGER

@<TRIPOS>ATOM
      1  C1        41.1310   28.1250   21.9360 C.2     1  PHQ1        0.4219
      2  O1        40.0310   27.6070   21.7830 O.2     1  PHQ1       -0.2245
      3  O2        42.0140   28.4730   20.9490 O.3     1  PHQ1       -0.4285
      4  C2        41.6180   28.2100   19.5740 C.3     1  PHQ1        0.2368
      5  C3        42.6770   28.6400   18.5400 C.ar    1  PHQ1        0.0213
      6  C4        42.3730   28.4280   17.1390 C.ar    1  PHQ1       -0.0007
      7  C5        43.3210   28.8130   16.1130 C.ar    1  PHQ1       -0.0002
      8  C6        44.5840   29.4140   16.4850 C.ar    1  PHQ1       -0.0000
      9  C7        44.9010   29.6310   17.8810 C.ar    1  PHQ1       -0.0002
     10  C8        43.9540   29.2470   18.9070 C.ar    1  PHQ1       -0.0007
     11  N         41.4870   29.0220   22.8450 N.am    2  ASP2       -0.1605
     12  CA        40.8320   29.1250   24.1420 C.3     2  ASP2        0.1873
     13  C         40.2840   30.5150   24.4360 C.2     2  ASP2        0.2623
     14  O         40.8350   31.5260   23.9980 O.2     2  ASP2       -0.2715
     15  CB        41.7960   28.7230   25.2640 C.3     2  ASP2        0.1451
     16  CG        42.1750   27.2590   25.2090 C.2     2  ASP2        0.3671
     17  OD1       41.2660   26.4230   25.0320 O.co2   2  ASP2       -0.2456
     18  OD2       43.3750   26.9390   25.3550 O.co2   2  ASP2       -0.2456
     19  N         39.1790   30.5450   25.1730 N.am    3  GLU3       -0.1963
     20  CA        38.5390   31.7850   25.5850 C.3     3  GLU3        0.1733
     21  C         38.2530   31.6000   27.0730 C.2     3  GLU3        0.2616
     22  O         38.2000   30.4670   27.5530 O.2     3  GLU3       -0.2715
     23  CB        37.2300   32.0090   24.8150 C.3     3  GLU3        0.0429
     24  CG        37.3830   31.9840   23.2960 C.3     3  GLU3        0.1163
     25  CD        36.1240   32.4230   22.5600 C.2     3  GLU3        0.3649
     26  OE1       35.0180   31.9710   22.9240 O.co2   3  GLU3       -0.2457
     27  OE2       36.2420   33.2180   21.6050 O.co2   3  GLU3       -0.2457
     28  N         38.0840   32.6980   27.8050 N.am    4  VAL4       -0.1963
     29  CA        37.8090   32.6110   29.2380 C.3     4  VAL4        0.1743
     30  C         36.3500   32.8880   29.5680 C.2     4  VAL4        0.2792
     31  O         35.6190   33.4720   28.7670 O.2     4  VAL4       -0.2698
     32  CB        38.6820   33.5950   30.0470 C.3     4  VAL4        0.0290
     33  CG1       40.1450   33.2010   29.9410 C.3     4  VAL4        0.0023
     34  CG2       38.4660   35.0130   29.5440 C.3     4  VAL4        0.0023
     35  N3        35.7600   32.2980   30.5700 N.am    5  AA15       -0.1056
     36  C4        34.2080   33.4720   32.1170 C.2     5  AA15        0.2438
     37  O5        33.1510   33.5390   32.7410 O.2     5  AA15       -0.2733
     38  N6        34.5100   32.3870   31.3210 N.am    5  AA15       -0.1756
     39  C7        33.5440   31.2700   31.2330 C.3     5  AA15        0.2302
     40  C8        33.1070   30.8950   29.8360 C.2     5  AA15        0.3866
     41  O9        32.9030   31.8120   29.0030 O.co2   5  AA15       -0.2437
     42  O10       32.9210   29.6670   29.5850 O.co2   5  AA15       -0.2437
     43  C11       35.1800   34.6460   32.2730 C.3     5  AA15        0.0985
     44  C12       34.5560   36.0150   32.6790 C.3     5  AA15        0.1192
     45  C15       34.0470   36.8250   31.5110 C.2     5  AA15        0.3175
     46  O16       34.3610   36.5650   30.3480 O.2     5  AA15       -0.2501
     47  O17       33.2320   37.8380   31.8800 O.3     5  AA15       -0.4485
     48  C18       32.7080   38.6560   30.8070 C.3     5  AA15        0.2086
     49  C19       31.8110   39.7430   31.4350 C.3     5  AA15        0.0513
@<TRIPOS>BOND
     1     7     8   ar
     2     7     6   ar
     3     8     9   ar
     4     6     5   ar
     5     9    10   ar
     6     5    10   ar
     7     5     4    1
     8     4     3    1
     9     3     1    1
    10    27    25   ar
    11     2     1    2
    12     1    11   am
    13    25    26   ar
    14    25    24    1
    15    11    12    1
    16    24    23    1
    17    14    13    2
    18    12    13    1
    19    12    15    1
    20    13    19   am
    21    23    20    1
    22    17    16   ar
    23    19    20    1
    24    16    15    1
    25    16    18   ar
    26    20    21    1
    27    21    22    2
    28    21    28   am
    29    28    29    1
    30    31    30    2
    31    41    40   ar
    32    29    30    1
    33    29    32    1
    34    34    32    1
    35    30    35   am
    36    42    40   ar
    37    40    39    1
    38    33    32    1
    39    46    45    2
    40    35    38    1
    41    48    49    1
    42    48    47    1
    43    39    38    1
    44    38    36   am
    45    45    47    1
    46    45    44    1
    47    36    43    1
    48    36    37    2
    49    43    44    1
