@<TRIPOS>MOLECULE
2c1h_DSB_A_1.pdb
 14 13 0 0 0
SMALL
GASTEIGER

@<TRIPOS>ATOM
      1  C1        97.5710    1.9620   11.7090 C.2   1330  DSB1330     0.3649
      2  O2        97.8820    1.0460   10.9150 O.co2 1330  DSB1330    -0.2457
      3  C2        96.7920    1.5260   12.9580 C.3   1330  DSB1330     0.1141
      4  C3        95.9590    2.6470   13.5820 C.3   1330  DSB1330     0.0118
      5  C5        95.0960    2.1050   16.0220 C.3   1330  DSB1330     0.0000
      6  O1        97.8520    3.1800   11.5740 O.co2 1330  DSB1330    -0.2457
      7  C6        94.1900    1.1400   16.8000 C.3   1330  DSB1330     0.0000
      8  C8        94.8390   -1.2190   15.6240 C.3   1330  DSB1330     0.0118
      9  C9        95.8630   -1.5080   16.7250 C.3   1330  DSB1330     0.1141
     10  C10       96.9750   -2.4200   16.2110 C.2   1330  DSB1330     0.3649
     11  O11       98.1120   -1.9180   16.0670 O.co2 1330  DSB1330    -0.2457
     12  O12       96.6610   -3.6040   15.9750 O.co2 1330  DSB1330    -0.2457
     13  C7        93.8090   -0.1510   16.0400 C.3   1330  DSB1330     0.0006
     14  C4        94.8860    2.0680   14.5080 C.3   1330  DSB1330     0.0006
@<TRIPOS>BOND
     1     2     1   ar
     2     6     1   ar
     3     1     3    1
     4     3     4    1
     5     4    14    1
     6    14     5    1
     7     8    13    1
     8     8     9    1
     9    12    10   ar
    10     5     7    1
    11    13     7    1
    12    11    10   ar
    13    10     9    1
