@<TRIPOS>MOLECULE
2c1p_FNZ_B_1.pdb
 24 26 0 0 0
SMALL
GASTEIGER

@<TRIPOS>ATOM
      1  C1        53.9600   43.1820   66.3780 C.3   1215  FNZ1215     0.1596
      2  C2        53.6350   42.3480   65.1270 C.3   1215  FNZ1215     0.1828
      3  C3        54.7240   42.5050   64.0620 C.3   1215  FNZ1215     0.0616
      4  C4        54.2980   41.8520   62.7710 C.ar  1215  FNZ1215    -0.0194
      5  C5        53.5760   42.5690   61.8070 C.ar  1215  FNZ1215    -0.0019
      6  C6        53.1390   41.9590   60.6130 C.ar  1215  FNZ1215     0.0293
      7  C7        53.4500   40.6260   60.3910 C.ar  1215  FNZ1215     0.1401
      8  C8        54.1820   39.8900   61.3190 C.ar  1215  FNZ1215     0.0293
      9  C9        54.5960   40.5110   62.5120 C.ar  1215  FNZ1215    -0.0019
     10  C10       55.3160   42.8550   67.0090 C.ar  1215  FNZ1215     0.0025
     11  C11       55.7220   41.5310   67.2640 C.ar  1215  FNZ1215    -0.0016
     12  C12       56.9980   41.2330   67.7970 C.ar  1215  FNZ1215     0.0100
     13  C13       57.8780   42.3020   68.0710 C.ar  1215  FNZ1215     0.0684
     14  C14       57.4840   43.6350   67.8560 C.ar  1215  FNZ1215     0.0100
     15  C15       56.2050   43.8850   67.3310 C.ar  1215  FNZ1215    -0.0016
     16  C16       59.2030   42.0370   68.5760 C.1   1215  FNZ1215     0.1004
     17  C17       50.8890   43.0990   68.0360 C.ar  1215  FNZ1215     0.2210
     18  C18       52.8040   42.5920   68.6190 C.ar  1215  FNZ1215     0.1975
     19  O2        53.5110   40.9660   65.4840 O.3   1215  FNZ1215    -0.2203
     20  F7        53.0300   40.0210   59.2360 F     1215  FNZ1215    -0.2042
     21  N1        60.2530   41.8330   68.9720 N.1   1215  FNZ1215    -0.1908
     22  N2        52.8370   43.0320   67.3340 N.ar  1215  FNZ1215    -0.2252
     23  N3        51.5760   43.3620   66.9520 N.ar  1215  FNZ1215    -0.1448
     24  N4        51.5800   42.6540   69.0700 N.ar  1215  FNZ1215    -0.2007
@<TRIPOS>BOND
     1    20     7    1
     2     7     6   ar
     3     7     8   ar
     4     6     5   ar
     5     8     9   ar
     6     5     4   ar
     7     9     4   ar
     8     4     3    1
     9     3     2    1
    10     2    19    1
    11     2     1    1
    12     1    10    1
    13     1    22    1
    14    23    22   ar
    15    23    17   ar
    16    10    11   ar
    17    10    15   ar
    18    11    12   ar
    19    15    14   ar
    20    22    18   ar
    21    12    13   ar
    22    14    13   ar
    23    17    24   ar
    24    13    16    1
    25    16    21    3
    26    18    24   ar
