@<TRIPOS>MOLECULE
2c1q_BTN_A_1.pdb
 16 17 0 0 0
SMALL
GASTEIGER

@<TRIPOS>ATOM
      1  C11       -6.8880   12.4590    8.9790 C.2   1126  BTN1126     0.3649
      2  O11       -7.9430   11.7630    8.9240 O.co2 1126  BTN1126    -0.2457
      3  O12       -6.6640   13.2550    8.0460 O.co2 1126  BTN1126    -0.2457
      4  C10       -5.9290   12.3860   10.1680 C.3   1126  BTN1126     0.1141
      5  C9        -4.6170   13.1360    9.9140 C.3   1126  BTN1126     0.0118
      6  C8        -3.6740   12.1340    9.2320 C.3   1126  BTN1126     0.0015
      7  C7        -2.3490   12.7340    8.7960 C.3   1126  BTN1126     0.0129
      8  C2        -1.5610   11.7360    7.9390 C.3   1126  BTN1126     0.0729
      9  S1        -1.0550   10.3450    8.7830 S.3   1126  BTN1126    -0.1369
     10  C6         0.1290   10.0140    7.4760 C.3   1126  BTN1126     0.0848
     11  C5         0.6350   11.3050    6.9030 C.3   1126  BTN1126     0.1509
     12  N1         1.8540   11.5970    7.6180 N.2   1126  BTN1126    -0.1859
     13  C3         1.6650   12.6270    8.4250 C.1   1126  BTN1126     0.2386
     14  O3         2.6810   13.1150    9.2310 O.2   1126  BTN1126    -0.2023
     15  N2         0.4150   13.1100    8.3640 N.2   1126  BTN1126    -0.1860
     16  C4        -0.3270   12.4060    7.3470 C.3   1126  BTN1126     0.1500
@<TRIPOS>BOND
     1    11    16    1
     2    11    10    1
     3    11    12    1
     4    16     8    1
     5    16    15    1
     6    10     9    1
     7    12    13    2
     8     8     9    1
     9     8     7    1
    10     3     1   ar
    11    15    13    2
    12    13    14    2
    13     7     6    1
    14     2     1   ar
    15     1     4    1
    16     6     5    1
    17     5     4    1
