@<TRIPOS>MOLECULE
2c1s_BSO_A_1.pdb
 17 18 0 0 0
SMALL
GASTEIGER

@<TRIPOS>ATOM
      1  C11       31.0440   11.3960   15.0980 C.2   1125  BSO1125     0.3649
      2  O11       31.0300   12.4400   14.4060 O.co2 1125  BSO1125    -0.2457
      3  O12       30.3320   10.4010   14.8710 O.co2 1125  BSO1125    -0.2457
      4  C10       31.9670   11.3090   16.3330 C.3   1125  BSO1125     0.1141
      5  C9        33.2870   12.1120   16.2590 C.3   1125  BSO1125     0.0118
      6  C8        34.2510   11.3950   15.3210 C.3   1125  BSO1125     0.0016
      7  C7        35.4820   12.2860   15.0590 C.3   1125  BSO1125     0.0155
      8  C2        36.4340   11.5600   14.0810 C.3   1125  BSO1125     0.1046
      9  S1        37.2440   10.1030   14.7610 S.O   1125  BSO1125     0.0449
     10  C6        38.4340   10.0060   13.3930 C.3   1125  BSO1125     0.1190
     11  C5        38.7850   11.4720   13.0680 C.3   1125  BSO1125     0.1536
     12  N1        39.9370   11.8770   13.8870 N.2   1125  BSO1125    -0.1859
     13  C3        39.5840   12.8460   14.7400 C.1   1125  BSO1125     0.2386
     14  O3        40.4060   13.3610   15.5040 O.2   1125  BSO1125    -0.2023
     15  N2        38.3020   13.2210   14.6370 N.2   1125  BSO1125    -0.1859
     16  C4        37.6390   12.4190   13.5640 C.3   1125  BSO1125     0.1526
     17  O10       36.2470    8.9910   14.5780 O.2   1125  BSO1125    -0.2558
@<TRIPOS>BOND
     1    11    10    1
     2    11    16    1
     3    11    12    1
     4    10     9    1
     5    16     8    1
     6    16    15    1
     7    12    13    2
     8     8     9    1
     9     8     7    1
    10     2     1   ar
    11    17     9    2
    12    15    13    2
    13    13    14    2
    14     3     1   ar
    15     7     6    1
    16     1     4    1
    17     6     5    1
    18     5     4    1
