@<TRIPOS>MOLECULE
2c1u_HEC_A_1.pdb
 43 50 0 0 0
SMALL
GASTEIGER

@<TRIPOS>ATOM
      1 FE         29.0980   -9.1430   16.6670 Fe    401  HEC401      0.0000
      2  CHA       25.8600   -8.0610   16.4390 C.2   401  HEC401      0.0000
      3  CHB       28.4390  -10.6330   19.5900 C.2   401  HEC401      0.0000
      4  CHC       32.1530  -10.7420   16.6010 C.2   401  HEC401      0.0000
      5  CHD       30.0820   -7.2270   14.0230 C.2   401  HEC401      0.0000
      6  NA        27.4070   -9.3350   17.8190 N.2   401  HEC401      0.0000
      7  C1A       26.1990   -8.7150   17.6150 C.2   401  HEC401      0.0000
      8  C2A       25.3800   -8.9230   18.8120 C.2   401  HEC401      0.0000
      9  C3A       26.1190   -9.6540   19.6810 C.2   401  HEC401      0.0000
     10  C4A       27.4130   -9.9100   19.0510 C.2   401  HEC401      0.0000
     11  CMA       25.7360  -10.1760   21.1070 C.3   401  HEC401      0.0000
     12  CAA       23.9260   -8.3870   19.0150 C.3   401  HEC401      0.0000
     13  CBA       23.9570   -7.2540   20.0410 C.3   401  HEC401      0.0000
     14  CGA       22.5900   -6.8040   20.5320 C.2   401  HEC401      0.0000
     15  O1A       22.3570   -5.5750   20.5460 O.co2 401  HEC401      0.0000
     16  O2A       21.7420   -7.6050   20.9460 O.co2 401  HEC401      0.0000
     17  NB        30.1370  -10.4500   17.8400 N.ar  401  HEC401      0.0000
     18  C1B       29.6330  -10.9940   18.9880 C.ar  401  HEC401      0.0000
     19  C2B       30.4880  -12.0810   19.4140 C.ar  401  HEC401      0.0000
     20  C3B       31.5600  -12.1080   18.6300 C.ar  401  HEC401      0.0000
     21  C4B       31.3150  -11.1070   17.5890 C.ar  401  HEC401      0.0000
     22  CMB       30.1900  -12.8280   20.7400 C.3   401  HEC401      0.0000
     23  CAB       32.7690  -13.0690   18.6910 C.3   401  HEC401      0.0000
     24  CBB       32.3020  -14.5320   18.4080 C.3   401  HEC401      0.0000
     25  NC        30.7950   -9.0130   15.5470 N.2   401  HEC401      0.0000
     26  C1C       31.9710   -9.7270   15.7060 C.2   401  HEC401      0.0000
     27  C2C       32.8320   -9.4770   14.5670 C.2   401  HEC401      0.0000
     28  C3C       32.3300   -8.3600   13.9660 C.2   401  HEC401      0.0000
     29  C4C       30.9940   -8.1280   14.5020 C.2   401  HEC401      0.0000
     30  CMC       34.3300   -9.8870   14.5560 C.3   401  HEC401      0.0000
     31  CAC       32.9450   -7.4880   12.8460 C.3   401  HEC401      0.0000
     32  CBC       33.7510   -8.1610   11.7200 C.3   401  HEC401      0.0000
     33  ND        28.1440   -7.8380   15.4660 N.ar  401  HEC401      0.0000
     34  C1D       28.7510   -7.2310   14.3650 C.ar  401  HEC401      0.0000
     35  C2D       27.7350   -6.5970   13.5780 C.ar  401  HEC401      0.0000
     36  C3D       26.4120   -6.8610   14.2950 C.ar  401  HEC401      0.0000
     37  C4D       26.7510   -7.6500   15.4630 C.ar  401  HEC401      0.0000
     38  CMD       27.9400   -5.8210   12.2700 C.3   401  HEC401      0.0000
     39  CAD       25.0080   -6.4070   13.8320 C.3   401  HEC401      0.0000
     40  CBD       24.3960   -7.6380   13.1450 C.3   401  HEC401      0.0000
     41  CGD       22.9820   -7.3880   12.7090 C.2   401  HEC401      0.0000
     42  O1D       22.8060   -7.2190   11.4860 O.co2 401  HEC401      0.0000
     43  O2D       22.0470   -7.3180   13.5760 O.co2 401  HEC401      0.0000
@<TRIPOS>BOND
     1    42    41   ar
     2    32    31    1
     3    38    35    1
     4    41    40    1
     5    41    43   ar
     6    31    28    1
     7    40    39    1
     8    35    36   ar
     9    35    34   ar
    10    39    36    1
    11    28    29    1
    12    28    27    2
    13     5    34    2
    14     5    29    1
    15    36    37   ar
    16    34    33   ar
    17    29    25    2
    18    30    27    1
    19    27    26    1
    20    37    33   ar
    21    37     2    2
    22    33     1    1
    23    25    26    1
    24    25     1    1
    25    26     4    2
    26     2     7    1
    27     4    21    1
    28     1     6    1
    29     1    17    1
    30    21    17   ar
    31    21    20   ar
    32     7     6    2
    33     7     8    1
    34     6    10    1
    35    17    18   ar
    36    24    23    1
    37    20    23    1
    38    20    19   ar
    39     8    12    1
    40     8     9    2
    41    18    19   ar
    42    18     3    1
    43    12    13    1
    44    10     3    2
    45    10     9    1
    46    19    22    1
    47     9    11    1
    48    13    14    1
    49    14    15   ar
    50    14    16   ar
