@<TRIPOS>MOLECULE
2c1v_HEC_A_1.pdb
 43 50 0 0 0
SMALL
GASTEIGER

@<TRIPOS>ATOM
      1 FE         20.1330   74.8090   13.9750 Fe    401  HEC401      0.0000
      2  CHA       21.1830   77.8610   12.9500 C.2   401  HEC401      0.0000
      3  CHB       23.1290   74.2400   15.4150 C.2   401  HEC401      0.0000
      4  CHC       18.7770   72.2710   15.7870 C.2   401  HEC401      0.0000
      5  CHD       17.3410   75.0600   12.1360 C.2   401  HEC401      0.0000
      6  NA        21.8270   75.8550   14.1010 N.2   401  HEC401      0.0000
      7  C1A       22.1090   77.0740   13.5520 C.2   401  HEC401      0.0000
      8  C2A       23.5030   77.3790   13.7720 C.2   401  HEC401      0.0000
      9  C3A       24.0570   76.3330   14.4200 C.2   401  HEC401      0.0000
     10  C4A       23.0040   75.3880   14.6640 C.2   401  HEC401      0.0000
     11  CMA       25.5090   76.1790   14.8990 C.3   401  HEC401      0.0000
     12  CAA       24.1730   78.6600   13.3050 C.3   401  HEC401      0.0000
     13  CBA       25.1030   78.4570   12.1310 C.3   401  HEC401      0.0000
     14  CGA       25.3400   79.7120   11.3250 C.2   401  HEC401      0.0000
     15  O1A       24.6380   80.7640   11.5500 O.co2 401  HEC401      0.0000
     16  O2A       26.2170   79.6540   10.4140 O.co2 401  HEC401      0.0000
     17  NB        20.7920   73.5510   15.4060 N.ar  401  HEC401      0.0000
     18  C1B       22.0650   73.4900   15.9030 C.ar  401  HEC401      0.0000
     19  C2B       22.0530   72.5630   17.0170 C.ar  401  HEC401      0.0000
     20  C3B       20.8630   71.9800   17.0730 C.ar  401  HEC401      0.0000
     21  C4B       20.0450   72.6220   16.0830 C.ar  401  HEC401      0.0000
     22  CMB       23.3560   72.2070   17.7790 C.3   401  HEC401      0.0000
     23  CAB       20.3780   70.8930   18.0820 C.3   401  HEC401      0.0000
     24  CBB       20.4640   71.4510   19.5340 C.3   401  HEC401      0.0000
     25  NC        18.3740   73.8690   13.9830 N.2   401  HEC401      0.0000
     26  C1C       18.0040   72.7840   14.7670 C.2   401  HEC401      0.0000
     27  C2C       16.7230   72.2960   14.3410 C.2   401  HEC401      0.0000
     28  C3C       16.3380   73.0550   13.3100 C.2   401  HEC401      0.0000
     29  C4C       17.3490   74.0410   13.0720 C.2   401  HEC401      0.0000
     30  CMC       16.0180   71.0890   14.9520 C.3   401  HEC401      0.0000
     31  CAC       15.1710   72.8390   12.3800 C.3   401  HEC401      0.0000
     32  CBC       13.7580   72.7020   12.8530 C.3   401  HEC401      0.0000
     33  ND        19.4030   76.2300   12.7640 N.ar  401  HEC401      0.0000
     34  C1D       18.1710   76.1590   12.1480 C.ar  401  HEC401      0.0000
     35  C2D       17.9040   77.3900   11.4730 C.ar  401  HEC401      0.0000
     36  C3D       19.0270   78.2650   11.7700 C.ar  401  HEC401      0.0000
     37  C4D       19.9480   77.4780   12.5430 C.ar  401  HEC401      0.0000
     38  CMD       16.6560   77.7610   10.6480 C.3   401  HEC401      0.0000
     39  CAD       19.1680   79.7190   11.3040 C.3   401  HEC401      0.0000
     40  CBD       18.3450   80.6370   12.2740 C.3   401  HEC401      0.0000
     41  CGD       18.7370   82.0960   12.2490 C.2   401  HEC401      0.0000
     42  O1D       17.9630   82.9080   12.8250 O.co2 401  HEC401      0.0000
     43  O2D       19.7870   82.4630   11.7140 O.co2 401  HEC401      0.0000
@<TRIPOS>BOND
     1    16    14   ar
     2    38    35    1
     3    39    36    1
     4    39    40    1
     5    14    15   ar
     6    14    13    1
     7    35    36   ar
     8    35    34   ar
     9    43    41   ar
    10    36    37   ar
    11    13    12    1
    12     5    34    2
    13     5    29    1
    14    34    33   ar
    15    41    40    1
    16    41    42   ar
    17    31    32    1
    18    31    28    1
    19    37    33   ar
    20    37     2    2
    21    33     1    1
    22     2     7    1
    23    29    28    1
    24    29    25    2
    25    12     8    1
    26    28    27    2
    27     7     8    1
    28     7     6    2
    29     8     9    2
    30     1    25    1
    31     1     6    1
    32     1    17    1
    33    25    26    1
    34     6    10    1
    35    27    26    1
    36    27    30    1
    37     9    10    1
    38     9    11    1
    39    10     3    2
    40    26     4    2
    41    17    18   ar
    42    17    21   ar
    43     3    18    1
    44     4    21    1
    45    18    19   ar
    46    21    20   ar
    47    19    20   ar
    48    19    22    1
    49    20    23    1
    50    23    24    1
