@<TRIPOS>MOLECULE
2c1x_UDP_A_1.pdb
 25 26 0 0 0
SMALL
GASTEIGER

@<TRIPOS>ATOM
      1  N1         9.4470   -2.3240   25.3980 N.am  1457  UDP1457    -0.1766
      2  C2        10.3660   -1.3340   25.7300 C.1   1457  UDP1457     0.2845
      3  N3        11.5400   -1.2040   25.0080 N.2   1457  UDP1457    -0.2452
      4  C4        11.7990   -2.0420   23.9650 C.1   1457  UDP1457     0.2182
      5  C5        10.8770   -3.0460   23.6180 C.2   1457  UDP1457     0.1242
      6  C6         9.6630   -3.1420   24.3000 C.2   1457  UDP1457     0.0929
      7  O2        10.1750   -0.5560   26.6630 O.2   1457  UDP1457    -0.1918
      8  O4        12.8570   -1.8980   23.3350 O.2   1457  UDP1457    -0.2085
      9  C1'        8.2080   -2.4580   26.1610 C.3   1457  UDP1457     0.2401
     10  C2'        7.0550   -1.7660   25.4380 C.3   1457  UDP1457     0.2319
     11  O2'        6.9820   -0.3820   25.7290 O.3   1457  UDP1457    -0.2157
     12  C3'        5.8590   -2.5200   25.9990 C.3   1457  UDP1457     0.2158
     13  C4'        6.3970   -3.9220   26.2420 C.3   1457  UDP1457     0.1799
     14  O4'        7.8030   -3.8220   26.2070 O.3   1457  UDP1457    -0.3320
     15  O3'        5.3930   -1.9160   27.2060 O.3   1457  UDP1457    -0.2175
     16  C5'        5.9250   -4.8680   25.1350 C.3   1457  UDP1457     0.1813
     17  O5'        4.6170   -5.3060   25.4330 O.3   1457  UDP1457    -0.3111
     18  PA         3.6980   -6.0970   24.3820 P.3   1457  UDP1457     0.2231
     19  O1A        3.5510   -5.1910   23.2360 O.2   1457  UDP1457    -0.5169
     20  O2A        2.3440   -6.3520   24.9260 O.3   1457  UDP1457    -0.4370
     21  O3A        4.4880   -7.3540   23.7780 O.3   1457  UDP1457    -0.2261
     22  PB         5.1510   -8.6060   24.5600 P.3   1457  UDP1457     0.5373
     23  O1B        4.2340   -9.0580   25.6420 O.3   1457  UDP1457    -0.1143
     24  O2B        6.4130   -8.1930   25.2140 O.3   1457  UDP1457    -0.1143
     25  O3B        5.2580   -9.6560   23.5020 O.2   1457  UDP1457    -0.2221
@<TRIPOS>BOND
     1    19    18    2
     2     8     4    2
     3    25    22    2
     4     5     4    1
     5     5     6    2
     6    21    18    1
     7    21    22    1
     8     4     3    2
     9     6     1    1
    10    18    20    1
    11    18    17    1
    12    22    24    1
    13    22    23    1
    14     3     2    2
    15    16    17    1
    16    16    13    1
    17     1     2   am
    18     1     9    1
    19    10    11    1
    20    10    12    1
    21    10     9    1
    22     2     7    2
    23    12    13    1
    24    12    15    1
    25     9    14    1
    26    14    13    1
