@<TRIPOS>MOLECULE
2c1z_U2F_A_1.pdb
 36 38 0 0 0
SMALL
GASTEIGER

@<TRIPOS>ATOM
      1  C1         3.0310  -10.4010   24.8830 C.3   1457  U2F1457     0.2764
      2  O1         3.4610   -9.1200   24.4930 O.3   1457  U2F1457    -0.2856
      3  PB         4.9570   -8.6040   24.2480 P.3   1457  U2F1457     0.2208
      4  O1B        5.6410   -8.4660   25.5790 O.3   1457  U2F1457    -0.4371
      5  O2B        5.5820   -9.5040   23.1920 O.2   1457  U2F1457    -0.5170
      6  O3A        4.5570   -7.1710   23.6130 O.3   1457  U2F1457    -0.2703
      7  PA         3.6620   -5.9380   24.1900 P.3   1457  U2F1457     0.2189
      8  O1A        2.3720   -6.3550   24.8540 O.3   1457  U2F1457    -0.4371
      9  O2A        3.5430   -5.0590   22.9820 O.2   1457  U2F1457    -0.5170
     10  O5'        4.6160   -5.2470   25.2900 O.3   1457  U2F1457    -0.3112
     11  C5'        5.9810   -4.8900   25.0630 C.3   1457  U2F1457     0.1813
     12  C4'        6.3650   -3.9460   26.2050 C.3   1457  U2F1457     0.1799
     13  O4'        7.7890   -3.8220   26.3250 O.3   1457  U2F1457    -0.3320
     14  C1'        8.2150   -2.4570   26.1560 C.3   1457  U2F1457     0.2401
     15  C2'        7.0410   -1.8250   25.3990 C.3   1457  U2F1457     0.2319
     16  C3'        5.8280   -2.5420   25.9610 C.3   1457  U2F1457     0.2158
     17  O3'        5.4560   -1.9490   27.2120 O.3   1457  U2F1457    -0.2175
     18  O2'        6.9830   -0.4240   25.6440 O.3   1457  U2F1457    -0.2157
     19  N1         9.4530   -2.3320   25.3470 N.am  1457  U2F1457    -0.1766
     20  C6'       10.3540   -1.3560   25.6070 C.1   1457  U2F1457     0.2845
     21  O6'       10.1820   -0.5480   26.5500 O.2   1457  U2F1457    -0.1918
     22  N3        11.4960   -1.2370   24.8850 N.2   1457  U2F1457    -0.2452
     23  C7'       11.7330   -2.0590   23.8440 C.1   1457  U2F1457     0.2182
     24  O7'       12.7860   -1.9040   23.1760 O.2   1457  U2F1457    -0.2085
     25  C8'       10.8080   -3.0660   23.5360 C.2   1457  U2F1457     0.1242
     26  C9'        9.6530   -3.1780   24.3230 C.2   1457  U2F1457     0.0929
     27  C2         2.4800  -11.0770   23.6320 C.3   1457  U2F1457     0.2498
     28  F1         3.5020  -11.2760   22.7280 F     1457  U2F1457    -0.2290
     29  C3         1.3660  -10.2280   23.0100 C.3   1457  U2F1457     0.2220
     30  O3         0.8270  -10.9990   21.9350 O.3   1457  U2F1457    -0.2172
     31  C4         0.2830   -9.8670   24.0390 C.3   1457  U2F1457     0.2146
     32  O4        -0.6710   -8.9610   23.4640 O.3   1457  U2F1457    -0.2176
     33  C5         0.9620   -9.2430   25.2700 C.3   1457  U2F1457     0.1835
     34  C6         0.0140   -8.8470   26.3970 C.3   1457  U2F1457     0.2142
     35  O6        -0.2190  -10.0090   27.1930 O.3   1457  U2F1457    -0.2176
     36  O5         1.9490  -10.1640   25.7910 O.3   1457  U2F1457    -0.3253
@<TRIPOS>BOND
     1    30    29    1
     2    28    27    1
     3     9     7    2
     4    29    27    1
     5    29    31    1
     6    24    23    2
     7     5     3    2
     8    32    31    1
     9    25    23    1
    10    25    26    2
    11     6     7    1
    12     6     3    1
    13    27     1    1
    14    23    22    2
    15    31    33    1
    16     7     8    1
    17     7    10    1
    18     3     2    1
    19     3     4    1
    20    26    19    1
    21     2     1    1
    22     1    36    1
    23    22    20    2
    24    11    10    1
    25    11    12    1
    26    33    36    1
    27    33    34    1
    28    19    20   am
    29    19    14    1
    30    15    18    1
    31    15    16    1
    32    15    14    1
    33    20    21    2
    34    16    12    1
    35    16    17    1
    36    14    13    1
    37    12    13    1
    38    34    35    1
