@<TRIPOS>MOLECULE
2c1z_KMP_A_1.pdb
 21 23 0 0 0
SMALL
GASTEIGER

@<TRIPOS>ATOM
      1  C1         5.3060  -17.2830   24.8250 C.ar  1456  KMP1456     0.0843
      2  C2         4.6790  -16.2620   25.5490 C.ar  1456  KMP1456     0.2050
      3  C3         3.3450  -15.9590   25.2920 C.ar  1456  KMP1456     0.1158
      4  C4         2.6090  -16.6640   24.3290 C.ar  1456  KMP1456     0.1549
      5  C5         3.2330  -17.6800   23.6080 C.ar  1456  KMP1456     0.0798
      6  C6         4.5700  -17.9960   23.8640 C.ar  1456  KMP1456     0.2020
      7  C9         2.7050  -14.9410   25.9940 C.ar  1456  KMP1456     0.2433
      8  C10        1.3780  -14.6680   25.7010 C.ar  1456  KMP1456     0.2685
      9  C11        0.7660  -15.4390   24.6920 C.ar  1456  KMP1456     0.1871
     10  C14       -0.6790  -15.2490   24.3640 C.ar  1456  KMP1456     0.0381
     11  C15       -1.4260  -16.4020   24.0580 C.ar  1456  KMP1456     0.0064
     12  C16       -2.7950  -16.2940   23.7740 C.ar  1456  KMP1456     0.0421
     13  C17       -3.3990  -15.0320   23.8190 C.ar  1456  KMP1456     0.1957
     14  C18       -2.6660  -13.8940   24.1520 C.ar  1456  KMP1456     0.0421
     15  C19       -1.3030  -13.9990   24.4310 C.ar  1456  KMP1456     0.0064
     16  O12        1.3960  -16.3760   24.0960 O.2   1456  KMP1456    -0.4498
     17  O13        3.3140  -14.2960   26.8660 O.2   1456  KMP1456    -0.2828
     18  O24       -4.7220  -14.9090   23.5710 O.3   1456  KMP1456    -0.2866
     19  O27        0.7340  -13.6620   26.3860 O.3   1456  KMP1456    -0.2798
     20  O29        5.1530  -19.0020   23.1450 O.3   1456  KMP1456    -0.2864
     21  O30        5.3600  -15.5470   26.5130 O.3   1456  KMP1456    -0.2862
@<TRIPOS>BOND
     1    20     6    1
     2    18    13    1
     3     5     6   ar
     4     5     4   ar
     5    12    13   ar
     6    12    11   ar
     7    13    14   ar
     8     6     1   ar
     9    11    10   ar
    10    16     4   ar
    11    16     9   ar
    12    14    15   ar
    13     4     3   ar
    14    10    15   ar
    15    10     9    1
    16     9     8   ar
    17     1     2   ar
    18     3     2   ar
    19     3     7   ar
    20     2    21    1
    21     8     7   ar
    22     8    19    1
    23     7    17    2
