@<TRIPOS>MOLECULE
2c22_DGT_A_1.pdb
 31 33 0 0 0
SMALL
GASTEIGER

@<TRIPOS>ATOM
      1  PG        23.4280   39.9240    2.7280 P.3   1342  DGT1342     0.5373
      2  O1G       22.5840   40.8020    1.6780 O.2   1342  DGT1342    -0.2221
      3  O2G       24.2130   38.8300    1.8480 O.3   1342  DGT1342    -0.1143
      4  O3G       22.5560   39.3070    3.7550 O.3   1342  DGT1342    -0.1143
      5  O3B       24.5420   40.9200    3.3270 O.3   1342  DGT1342    -0.2258
      6  PB        25.4300   40.5770    4.6220 P.3   1342  DGT1342     0.2277
      7  O1B       26.8460   40.7100    4.2160 O.2   1342  DGT1342    -0.5168
      8  O2B       24.9410   41.4120    5.7440 O.3   1342  DGT1342    -0.4368
      9  O3A       25.1500   39.0200    4.9190 O.3   1342  DGT1342    -0.2700
     10  PA        24.7290   38.4510    6.3690 P.3   1342  DGT1342     0.2189
     11  O1A       25.0230   36.8700    6.2940 O.2   1342  DGT1342    -0.5170
     12  O2A       23.3060   38.7030    6.6810 O.3   1342  DGT1342    -0.4371
     13  O5'       25.7400   39.0430    7.4720 O.3   1342  DGT1342    -0.3112
     14  C5'       25.3340   40.1220    8.3170 C.3   1342  DGT1342     0.1812
     15  C4'       26.5380   40.8690    8.8980 C.3   1342  DGT1342     0.1772
     16  O4'       27.3780   39.9110    9.5700 O.3   1342  DGT1342    -0.3347
     17  C3'       27.3690   41.4540    7.7520 C.3   1342  DGT1342     0.1857
     18  O3'       27.9950   42.6810    8.1290 O.3   1342  DGT1342    -0.2203
     19  C2'       28.4380   40.3860    7.5410 C.3   1342  DGT1342     0.0865
     20  C1'       28.6920   39.9640    8.9890 C.3   1342  DGT1342     0.1981
     21  N9        29.3230   38.6210    8.9470 N.pl3 1342  DGT1342    -0.2374
     22  C8        28.8410   37.5980    8.2490 C.3   1342  DGT1342     0.2245
     23  N7        29.7500   36.6270    8.1860 N.2   1342  DGT1342    -0.2322
     24  C5        30.8160   37.0330    8.8710 C.2   1342  DGT1342     0.2182
     25  C6        32.0620   36.4590    9.1100 C.1   1342  DGT1342     0.2372
     26  O6        32.3660   35.3900    8.5870 O.2   1342  DGT1342    -0.2069
     27  N1        32.9960   37.1660    9.8780 N.2   1342  DGT1342    -0.2485
     28  C2        32.6570   38.4300   10.3720 C.1   1342  DGT1342     0.2531
     29  N2        33.5430   39.1030   11.1020 N.pl3 1342  DGT1342    -0.0226
     30  N3        31.4520   38.9560   10.1070 N.2   1342  DGT1342    -0.3074
     31  C4        30.5390   38.2990    9.3780 C.2   1342  DGT1342     0.2299
@<TRIPOS>BOND
     1     2     1    2
     2     3     1    1
     3     1     5    1
     4     1     4    1
     5     5     6    1
     6     7     6    2
     7     6     9    1
     8     6     8    1
     9     9    10    1
    10    11    10    2
    11    10    12    1
    12    10    13    1
    13    13    14    1
    14    19    17    1
    15    19    20    1
    16    17    18    1
    17    17    15    1
    18    23    22    1
    19    23    24    2
    20    22    21    1
    21    14    15    1
    22    26    25    2
    23    24    25    1
    24    24    31    1
    25    15    16    1
    26    21    20    1
    27    21    31    1
    28    20    16    1
    29    25    27    2
    30    31    30    2
    31    27    28    2
    32    30    28    2
    33    28    29    1
