@<TRIPOS>MOLECULE
2c25_SIA_A_1.pdb
 21 21 0 0 0
SMALL
GASTEIGER

@<TRIPOS>ATOM
      1  C1        -3.3870  -29.9440   30.9700 C.2   600  SIA600      0.4179
      2  C2        -3.6540  -29.7190   29.4930 C.3   600  SIA600      0.3155
      3  C3        -2.8580  -28.5280   28.9680 C.3   600  SIA600      0.1056
      4  C4        -1.3370  -28.7650   29.0720 C.3   600  SIA600      0.1798
      5  C5        -1.0040  -30.0030   28.2530 C.3   600  SIA600      0.1554
      6  C6        -1.8120  -31.1860   28.8270 C.3   600  SIA600      0.1734
      7  C7        -1.6800  -32.4970   28.0600 C.3   600  SIA600      0.2135
      8  C8        -2.4000  -33.6040   28.8430 C.3   600  SIA600      0.2173
      9  C9        -2.2420  -34.9270   28.1060 C.3   600  SIA600      0.2175
     10  C10        1.1260  -30.6980   27.3440 C.2   600  SIA600      0.2420
     11  C11        2.4250  -30.9200   27.5420 C.3   600  SIA600      0.0964
     12  N5         0.4290  -30.2770   28.3930 N.am  600  SIA600     -0.2020
     13  O1A       -2.8740  -29.0490   31.6730 O.co2 600  SIA600     -0.2401
     14  O1B       -3.6590  -31.0560   31.4740 O.co2 600  SIA600     -0.2401
     15  O2        -5.0630  -29.5130   29.2000 O.3   600  SIA600     -0.1830
     16  O4        -0.6540  -27.5750   28.6490 O.3   600  SIA600     -0.2210
     17  O6        -3.2270  -30.8950   28.8080 O.3   600  SIA600     -0.3220
     18  O7        -2.2440  -32.3920   26.7220 O.3   600  SIA600     -0.2176
     19  O8        -1.8700  -33.7360   30.1920 O.3   600  SIA600     -0.2175
     20  O9        -2.8070  -35.9590   28.9260 O.3   600  SIA600     -0.2175
     21  O10        0.5140  -30.9210   26.1760 O.2   600  SIA600     -0.2733
@<TRIPOS>BOND
     1    21    10    2
     2    18     7    1
     3    10    11    1
     4    10    12   am
     5     7     6    1
     6     7     8    1
     7     9     8    1
     8     9    20    1
     9     5    12    1
    10     5     6    1
    11     5     4    1
    12    16     4    1
    13    17     6    1
    14    17     2    1
    15     8    19    1
    16     3     4    1
    17     3     2    1
    18    15     2    1
    19     2     1    1
    20     1    14   ar
    21     1    13   ar
