@<TRIPOS>MOLECULE
2c27_MA8_A_1.pdb
 29 30 0 0 0
SMALL
GASTEIGER

@<TRIPOS>ATOM
      1  O1         4.1480    5.0880   16.1410 O.3   1312  MA81312    -0.3262
      2  C1         4.4670    4.3460   17.3670 C.3   1312  MA81312     0.2586
      3  C2         3.0670    6.9660   17.3850 C.3   1312  MA81312     0.2136
      4  C3         3.0080    5.9730   16.2030 C.3   1312  MA81312     0.1834
      5  O2         1.7870    7.6600   17.4840 O.3   1312  MA81312    -0.2176
      6  O3         3.4340    7.0410   19.7510 O.3   1312  MA81312    -0.2183
      7  O4         3.3840    3.4080   17.6430 O.3   1312  MA81312    -0.3262
      8  N1         4.9370    4.5910   19.7550 N.am  1312  MA81312    -0.1980
      9  C4         2.9160    6.6880   14.8690 C.3   1312  MA81312     0.2142
     10  C5         4.5930    5.3250   18.4850 C.3   1312  MA81312     0.1842
     11  C6         3.2890    6.1460   18.6520 C.3   1312  MA81312     0.2094
     12  O5         2.7430    5.7290   13.8590 O.3   1312  MA81312    -0.2176
     13  C7         2.5330    1.1420   14.7810 C.3   1312  MA81312     0.2174
     14  C8         2.2620   -0.1530   15.5980 C.3   1312  MA81312     0.2175
     15  C9         3.4170    2.2680   16.8150 C.3   1312  MA81312     0.1835
     16  C10        2.4150    2.4040   15.6590 C.3   1312  MA81312     0.2143
     17  O6         4.0820    0.8960   18.6970 O.3   1312  MA81312    -0.2176
     18  O7         2.8920   -1.4120   17.5700 O.3   1312  MA81312    -0.2175
     19  O8         1.0650    2.5370   16.2560 O.3   1312  MA81312    -0.2176
     20  O9         2.4820   -1.2660   14.7790 O.3   1312  MA81312    -0.2175
     21  C11        3.2100   -0.2520   16.8100 C.3   1312  MA81312     0.2174
     22  C12        3.0920    0.9950   17.6650 C.3   1312  MA81312     0.2143
     23  O10        1.6320    1.2280   13.6660 O.3   1312  MA81312    -0.2175
     24  C13        5.9360    5.0420   20.5610 C.2   1312  MA81312     0.2599
     25  O11        6.7830    5.7860   20.1020 O.2   1312  MA81312    -0.2717
     26  C14        6.1030    4.3900   21.9470 C.3   1312  MA81312     0.1808
     27  N2         7.1680    3.4020   21.8610 N.3   1312  MA81312    -0.1221
     28  C15        6.5520    5.4460   22.9840 C.3   1312  MA81312     0.0970
     29  S1         8.2770    6.0830   22.5000 S.3   1312  MA81312    -0.0800
@<TRIPOS>BOND
     1    23    13    1
     2    12     9    1
     3    20    14    1
     4    13    14    1
     5    13    16    1
     6     9     4    1
     7    14    21    1
     8    16    19    1
     9    16    15    1
    10     1     4    1
    11     1     2    1
    12     4     3    1
    13    21    18    1
    14    21    22    1
    15    15     7    1
    16    15    22    1
    17     2     7    1
    18     2    10    1
    19     3     5    1
    20     3    11    1
    21    22    17    1
    22    10    11    1
    23    10     8    1
    24    11     6    1
    25     8    24   am
    26    25    24    2
    27    24    26    1
    28    27    26    1
    29    26    28    1
    30    29    28    1
