@<TRIPOS>MOLECULE
2c27_COA_A_1.pdb
 26 25 0 0 0
SMALL
GASTEIGER

@<TRIPOS>ATOM
      1  O5B       18.6240    3.9720   31.9860 O.2   1314  COA1314    -0.2221
      2  P1A       17.6990    3.8630   33.2700 P.3   1314  COA1314     0.5373
      3  O1A       17.1840    2.5210   33.4090 O.3   1314  COA1314    -0.1143
      4  O2A       18.4210    4.3700   34.4710 O.3   1314  COA1314    -0.1143
      5  O3A       16.5780    4.9040   32.9440 O.3   1314  COA1314    -0.2261
      6  P2A       15.2190    5.1840   33.6190 P.3   1314  COA1314     0.2230
      7  O4A       14.8250    4.2540   34.6810 O.3   1314  COA1314    -0.4370
      8  O5A       15.1430    6.6440   33.8830 O.2   1314  COA1314    -0.5169
      9  O6A       14.2570    4.8500   32.3720 O.3   1314  COA1314    -0.3137
     10  CBP       13.1370    5.7320   30.4900 C.3   1314  COA1314     0.0645
     11  CCP       14.5060    5.3630   31.0930 C.3   1314  COA1314     0.1519
     12  CDP       12.2670    4.4270   30.4370 C.3   1314  COA1314     0.0056
     13  CEP       13.3340    6.2220   28.9680 C.3   1314  COA1314     0.0056
     14  CAP       12.4530    6.8410   31.3610 C.3   1314  COA1314     0.2312
     15  OAP       13.2460    8.0610   31.3130 O.3   1314  COA1314    -0.2131
     16  C9P       11.0040    7.1470   30.9530 C.2   1314  COA1314     0.2719
     17  O9P       10.0540    6.5220   31.4310 O.2   1314  COA1314    -0.2706
     18  N8P       10.8880    8.1790   30.0940 N.am  1314  COA1314    -0.2028
     19  C7P        9.6210    8.7720   29.6780 C.3   1314  COA1314     0.1248
     20  C6P        8.7800    7.7100   28.8530 C.3   1314  COA1314     0.1102
     21  C5P        9.5590    7.2960   27.6230 C.2   1314  COA1314     0.2432
     22  O5P       10.2380    8.1030   26.9810 O.2   1314  COA1314    -0.2733
     23  N4P        9.5750    5.9890   27.4360 N.am  1314  COA1314    -0.2044
     24  C3P       10.4080    5.3690   26.4220 C.3   1314  COA1314     0.1276
     25  C2P        9.6220    5.1270   25.1300 C.3   1314  COA1314     0.0920
     26  S1P        8.8920    6.6180   24.4720 S.3   1314  COA1314    -0.0802
@<TRIPOS>BOND
     1    26    25    1
     2    25    24    1
     3    24    23    1
     4    22    21    2
     5    23    21   am
     6    21    20    1
     7    20    19    1
     8    13    10    1
     9    19    18    1
    10    18    16   am
    11    12    10    1
    12    10    11    1
    13    10    14    1
    14    16    14    1
    15    16    17    2
    16    11     9    1
    17    15    14    1
    18     1     2    2
    19     9     6    1
    20     5     2    1
    21     5     6    1
    22     2     3    1
    23     2     4    1
    24     6     8    2
    25     6     7    1
