@<TRIPOS>MOLECULE
2c28_NUC_A_1.pdb
 18 20 0 0 0
SMALL
GASTEIGER

@<TRIPOS>ATOM
      1  O5'       24.5330   37.8000    8.8220 O.3   1342  DG1342     -0.2177
      2  C5'       25.4870   38.8510    8.7040 C.3   1342  DG1342      0.2114
      3  C4'       26.4850   38.8350    9.8550 C.3   1342  DG1342      0.1501
      4  O4'       27.2060   37.5990    9.7930 O.3   1342  DG1342     -0.3373
      5  C3'       27.5210   39.9410    9.6820 C.3   1342  DG1342      0.0367
      6  C2'       28.5680   39.2200    8.8390 C.3   1342  DG1342      0.0536
      7  C1'       28.5910   37.9510    9.6860 C.3   1342  DG1342      0.1954
      8  N9        29.4060   36.8770    9.0720 N.pl3 1342  DG1342     -0.2375
      9  C8        28.9840   35.9980    8.1650 C.3   1342  DG1342      0.2245
     10  N7        29.9920   35.2050    7.8090 N.2   1342  DG1342     -0.2322
     11  C5        31.0670   35.5820    8.4980 C.2   1342  DG1342      0.2182
     12  C6        32.3750   35.1290    8.5320 C.1   1342  DG1342      0.2372
     13  O6        32.7230   34.1880    7.8110 O.2   1342  DG1342     -0.2069
     14  N1        33.2900   35.7550    9.3870 N.2   1342  DG1342     -0.2485
     15  C2        32.8630   36.8240   10.1880 C.1   1342  DG1342      0.2531
     16  N2        33.7350   37.4250   10.9930 N.pl3 1342  DG1342     -0.0226
     17  N3        31.5880   37.2350   10.1270 N.2   1342  DG1342     -0.3074
     18  C4        30.6920   36.6500    9.3120 C.2   1342  DG1342      0.2299
@<TRIPOS>BOND
     1    10     9    1
     2    10    11    2
     3    13    12    2
     4     9     8    1
     5    11    12    1
     6    11    18    1
     7    12    14    2
     8     2     1    1
     9     2     3    1
    10     6     5    1
    11     6     7    1
    12     8    18    1
    13     8     7    1
    14    18    17    2
    15    14    15    2
    16     5     3    1
    17     7     4    1
    18     4     3    1
    19    17    15    2
    20    15    16    1
