@<TRIPOS>MOLECULE
2c29_NAP_D_1.pdb
 48 52 0 0 0
SMALL
GASTEIGER

@<TRIPOS>ATOM
      1  PA        77.2650   65.4230   28.4230 P.3   1330  NAP1330     0.2189
      2  O1A       75.8070   65.4080   28.3060 O.3   1330  NAP1330    -0.4371
      3  O2A       78.0270   66.5870   27.8280 O.2   1330  NAP1330    -0.5170
      4  O5B       77.7870   64.0230   27.8930 O.3   1330  NAP1330    -0.3112
      5  C5B       76.9070   62.9370   28.0170 C.3   1330  NAP1330     0.1813
      6  C4B       76.8550   62.2430   26.6660 C.3   1330  NAP1330     0.1820
      7  O4B       75.9980   61.1170   26.7380 O.3   1330  NAP1330    -0.3136
      8  C3B       76.3090   63.1190   25.5450 C.3   1330  NAP1330     0.2157
      9  O3B       77.3310   63.6660   24.7530 O.3   1330  NAP1330    -0.2175
     10  C2B       75.4640   62.1850   24.6910 C.3   1330  NAP1330     0.2314
     11  O2B       76.1260   62.0320   23.4330 O.3   1330  NAP1330    -0.2630
     12  C1B       75.4430   60.8690   25.4710 C.3   1330  NAP1330     0.3158
     13  N9A       74.1030   60.2570   25.6370 N.pl3 1330  NAP1330    -0.1439
     14  C8A       72.9730   60.7740   26.1630 C.3   1330  NAP1330     0.3377
     15  N7A       72.0030   59.8500   26.1420 N.2   1330  NAP1330    -0.2095
     16  C5A       72.5130   58.7260   25.6100 C.2   1330  NAP1330     0.2526
     17  C6A       71.9790   57.4720   25.3570 C.2   1330  NAP1330     0.4393
     18  N6A       70.6990   57.2070   25.6040 N.pl3 1330  NAP1330     0.2180
     19  N1A       72.7810   56.5190   24.7880 N.2   1330  NAP1330     0.0021
     20  C2A       74.1030   56.7740   24.4900 C.3   1330  NAP1330     0.5254
     21  N3A       74.6270   58.0260   24.7490 N.2   1330  NAP1330    -0.0055
     22  C4A       73.8440   58.9680   25.3060 C.2   1330  NAP1330     0.3518
     23  O3        77.5810   65.3350   30.0210 O.3   1330  NAP1330    -0.2703
     24  PN        78.9980   65.2990   30.7950 P.3   1330  NAP1330     0.2189
     25  O1N       78.9670   66.6050   31.6060 O.3   1330  NAP1330    -0.4371
     26  O2N       80.1150   65.1170   29.8730 O.2   1330  NAP1330    -0.5170
     27  O5D       78.8820   63.9930   31.6970 O.3   1330  NAP1330    -0.3112
     28  C5D       79.4670   62.7880   31.2810 C.3   1330  NAP1330     0.1813
     29  C4D       79.4630   61.8000   32.4500 C.3   1330  NAP1330     0.1799
     30  O4D       79.9950   62.4240   33.6040 O.3   1330  NAP1330    -0.3327
     31  C3D       78.0700   61.2900   32.8330 C.3   1330  NAP1330     0.2158
     32  O3D       78.1190   59.8940   33.1410 O.3   1330  NAP1330    -0.2175
     33  C2D       77.7120   62.1060   34.0540 C.3   1330  NAP1330     0.2309
     34  O2D       76.7870   61.5200   34.9590 O.3   1330  NAP1330    -0.2158
     35  C1D       79.0880   62.2610   34.6820 C.3   1330  NAP1330     0.2263
     36  N1N       79.2270   63.4190   35.5870 N.pl3 1330  NAP1330    -0.2787
     37  C2N       79.2650   64.6870   35.0920 C.3   1330  NAP1330     0.1244
     38  C3N       79.4210   65.7340   35.9900 C.2   1330  NAP1330     0.0544
     39  C7N       79.6730   67.1280   35.5150 C.2   1330  NAP1330     0.2818
     40  O7N       79.6540   68.1250   36.4900 O.2   1330  NAP1330    -0.2670
     41  N7N       79.8920   67.3610   34.2340 N.am  1330  NAP1330    -0.0839
     42  C4N       79.5270   65.5050   37.3610 C.2   1330  NAP1330     0.0033
     43  C5N       79.5240   64.1980   37.8360 C.2   1330  NAP1330     0.0157
     44  C6N       79.3630   63.1840   36.9200 C.2   1330  NAP1330     0.0633
     45  P2B       75.3820   61.7990   22.0130 P.3   1330  NAP1330     0.5328
     46  O1X       74.3010   62.8170   21.9340 O.3   1330  NAP1330    -0.1145
     47  O2X       76.3980   61.8930   20.8950 O.2   1330  NAP1330    -0.2224
     48  O3X       74.8280   60.3740   21.9190 O.3   1330  NAP1330    -0.1145
@<TRIPOS>BOND
     1    47    45    2
     2    48    45    1
     3    46    45    1
     4    45    11    1
     5    11    10    1
     6    20    21    1
     7    20    19    1
     8    10    12    1
     9    10     8    1
    10    21    22    2
    11     9     8    1
    12    19    17    2
    13    22    16    1
    14    22    13    1
    15    17    18    1
    16    17    16    1
    17    12    13    1
    18    12     7    1
    19     8     6    1
    20    16    15    2
    21    13    14    1
    22    15    14    1
    23     6     7    1
    24     6     5    1
    25     3     1    2
    26     4     5    1
    27     4     1    1
    28     2     1    1
    29     1    23    1
    30    26    24    2
    31    23    24    1
    32    24    25    1
    33    24    27    1
    34    28    27    1
    35    28    29    1
    36    29    31    1
    37    29    30    1
    38    31    32    1
    39    31    33    1
    40    30    35    1
    41    33    35    1
    42    33    34    1
    43    41    39   am
    44    35    36    1
    45    37    36    1
    46    37    38    1
    47    39    38    1
    48    39    40    2
    49    36    44    1
    50    38    42    2
    51    44    43    2
    52    42    43    1
