@<TRIPOS>MOLECULE
2c29_DQH_D_1.pdb
 22 24 0 0 0
SMALL
GASTEIGER

@<TRIPOS>ATOM
      1  C1        75.3350   68.1250   35.8510 C.ar  1331  DQH1331     0.0843
      2  C2        75.9750   67.0550   36.4560 C.ar  1331  DQH1331     0.2046
      3  C3        76.1660   67.0890   37.8420 C.ar  1331  DQH1331     0.1103
      4  C4        75.7210   68.1620   38.6140 C.ar  1331  DQH1331     0.1481
      5  C5        75.0770   69.2310   38.0050 C.ar  1331  DQH1331     0.0792
      6  C6        74.8970   69.2130   36.6240 C.ar  1331  DQH1331     0.2020
      7  C9        76.8430   65.9850   38.5850 C.2   1331  DQH1331     0.2132
      8  C10       77.5390   66.3840   39.8560 C.3   1331  DQH1331     0.2568
      9  C11       76.4620   67.0590   40.6860 C.3   1331  DQH1331     0.2259
     10  C14       76.8700   67.3820   42.0950 C.ar  1331  DQH1331     0.0236
     11  C15       77.9200   68.2410   42.5410 C.ar  1331  DQH1331     0.0028
     12  C16       78.1180   68.3800   43.9400 C.ar  1331  DQH1331     0.0452
     13  C17       77.2840   67.6960   44.8530 C.ar  1331  DQH1331     0.2342
     14  C18       76.2610   66.8790   44.3720 C.ar  1331  DQH1331     0.2341
     15  C19       76.0840   66.7360   43.0100 C.ar  1331  DQH1331     0.0447
     16  O12       75.9330   68.1820   39.9830 O.3   1331  DQH1331    -0.4713
     17  O13       76.7550   64.8320   38.2070 O.2   1331  DQH1331    -0.2883
     18  O23       75.3830   66.1770   45.1700 O.3   1331  DQH1331    -0.2832
     19  O24       77.4510   67.7890   46.2060 O.3   1331  DQH1331    -0.2831
     20  O27       78.1490   65.2460   40.4890 O.3   1331  DQH1331    -0.2104
     21  O29       74.2610   70.2560   36.0650 O.3   1331  DQH1331    -0.2864
     22  O30       76.4230   65.9950   35.6950 O.3   1331  DQH1331    -0.2863
@<TRIPOS>BOND
     1    22     2    1
     2     1     2   ar
     3     1     6   ar
     4    21     6    1
     5     2     3   ar
     6     6     5   ar
     7     3     7    1
     8     3     4   ar
     9     5     4   ar
    10    17     7    2
    11     7     8    1
    12     4    16    1
    13     8    20    1
    14     8     9    1
    15    16     9    1
    16     9    10    1
    17    10    11   ar
    18    10    15   ar
    19    11    12   ar
    20    15    14   ar
    21    12    13   ar
    22    14    13   ar
    23    14    18    1
    24    13    19    1
