@<TRIPOS>MOLECULE
2c2a_ADP_A_1.pdb
 27 29 0 0 0
SMALL
GASTEIGER

@<TRIPOS>ATOM
      1  PB        11.5220   19.2230   -3.5860 P.3   1481  ADP1481     0.5373
      2  O1B       10.0920   19.0220   -4.0410 O.2   1481  ADP1481    -0.2221
      3  O2B       12.0000   20.4040   -2.8310 O.3   1481  ADP1481    -0.1143
      4  O3B       12.3670   17.9350   -3.4920 O.3   1481  ADP1481    -0.1143
      5  PA        10.7080   19.3030   -0.6080 P.3   1481  ADP1481     0.2231
      6  O1A       11.9280   20.0930   -0.2190 O.2   1481  ADP1481    -0.5169
      7  O2A       10.2550   18.2420    0.3200 O.3   1481  ADP1481    -0.4370
      8  O3A       11.0000   18.6310   -2.1550 O.3   1481  ADP1481    -0.2261
      9  O5'        9.5800   20.3250   -0.9160 O.3   1481  ADP1481    -0.3111
     10  C5'        8.2810   19.8190   -1.3090 C.3   1481  ADP1481     0.1813
     11  C4'        7.4750   20.8360   -2.0600 C.3   1481  ADP1481     0.1821
     12  O4'        7.1910   21.9570   -1.1380 O.3   1481  ADP1481    -0.3135
     13  C3'        8.1650   21.5250   -3.2260 C.3   1481  ADP1481     0.2184
     14  O3'        8.0230   20.7020   -4.3930 O.3   1481  ADP1481    -0.2174
     15  C2'        7.3820   22.8820   -3.3410 C.3   1481  ADP1481     0.2570
     16  O2'        6.1090   22.6850   -4.0790 O.3   1481  ADP1481    -0.2130
     17  C1'        7.0960   23.2210   -1.8460 C.3   1481  ADP1481     0.3186
     18  N9         8.1180   24.2100   -1.2390 N.pl3 1481  ADP1481    -0.1439
     19  C8         9.0280   23.9420   -0.3060 C.3   1481  ADP1481     0.3377
     20  N7         9.7410   24.9820    0.0300 N.2   1481  ADP1481    -0.2095
     21  C5         9.2500   26.0020   -0.7510 C.2   1481  ADP1481     0.2526
     22  C6         9.5580   27.4160   -0.8820 C.2   1481  ADP1481     0.4393
     23  N6        10.5310   28.0460   -0.1400 N.pl3 1481  ADP1481     0.2180
     24  N1         8.8370   28.1370   -1.7730 N.2   1481  ADP1481     0.0021
     25  C2         7.8880   27.5560   -2.5030 C.3   1481  ADP1481     0.5254
     26  N3         7.5360   26.2630   -2.4580 N.2   1481  ADP1481    -0.0055
     27  C4         8.2450   25.5340   -1.5550 C.2   1481  ADP1481     0.3518
@<TRIPOS>BOND
     1    14    13    1
     2    16    15    1
     3     2     1    2
     4     1     4    1
     5     1     3    1
     6     1     8    1
     7    15    13    1
     8    15    17    1
     9    13    11    1
    10    25    26    1
    11    25    24    1
    12    26    27    2
    13     8     5    1
    14    11    10    1
    15    11    12    1
    16    17    18    1
    17    17    12    1
    18    24    22    2
    19    27    18    1
    20    27    21    1
    21    10     9    1
    22    18    19    1
    23     9     5    1
    24    22    21    1
    25    22    23    1
    26    21    20    2
    27     5     6    2
    28     5     7    1
    29    19    20    1
