@<TRIPOS>MOLECULE
2c2b_SAM_A_1.pdb
 27 29 0 0 0
SMALL
GASTEIGER

@<TRIPOS>ATOM
      1  N         47.1180   30.0720   72.3450 N.3   500  SAM500     -0.1208
      2  CA        45.7420   29.5000   72.4260 C.3   500  SAM500      0.1952
      3  C         45.7460   28.1380   73.1090 C.2   500  SAM500      0.3819
      4  O         44.6980   27.6160   73.4890 O.co2 500  SAM500     -0.2441
      5  OXT       46.7930   27.5220   73.2970 O.co2 500  SAM500     -0.2441
      6  CB        45.1230   29.3810   71.0350 C.3   500  SAM500      0.0414
      7  CG        45.0940   30.6920   70.2560 C.3   500  SAM500      0.0503
      8  SD        43.6900   31.7290   70.7270 S.3   500  SAM500     -0.1761
      9  CE        42.4160   31.0420   69.6360 C.3   500  SAM500      0.0590
     10  C5'       44.0760   33.3010   69.9220 C.3   500  SAM500      0.0806
     11  C4'       42.8190   34.1500   69.7820 C.3   500  SAM500      0.1622
     12  O4'       42.2920   34.4910   71.0530 O.3   500  SAM500     -0.3153
     13  C3'       43.0570   35.4660   69.0660 C.3   500  SAM500      0.2168
     14  O3'       43.0150   35.3100   67.6710 O.3   500  SAM500     -0.2175
     15  C2'       41.9240   36.3220   69.5920 C.3   500  SAM500      0.2569
     16  O2'       40.7900   36.2280   68.7620 O.3   500  SAM500     -0.2130
     17  C1'       41.6220   35.7340   70.9710 C.3   500  SAM500      0.3185
     18  N9        42.0830   36.7010   71.9940 N.pl3 500  SAM500     -0.1439
     19  C8        41.2740   37.3690   72.8730 C.3   500  SAM500      0.3377
     20  N7        42.0270   38.1750   73.6460 N.2   500  SAM500     -0.2095
     21  C5        43.3140   38.0470   73.2680 C.2   500  SAM500      0.2526
     22  C6        44.4900   38.6510   73.7150 C.2   500  SAM500      0.4393
     23  N6        44.4600   39.5340   74.7090 N.pl3 500  SAM500      0.2180
     24  N1        45.6950   38.3120   73.1330 N.2   500  SAM500      0.0021
     25  C2        45.7350   37.3850   72.1100 C.3   500  SAM500      0.5254
     26  N3        44.5610   36.7980   71.6660 N.2   500  SAM500     -0.0055
     27  C4        43.3670   37.1210   72.2310 C.2   500  SAM500      0.3518
@<TRIPOS>BOND
     1    14    13    1
     2    16    15    1
     3    13    15    1
     4    13    11    1
     5    15    17    1
     6     9     8    1
     7    11    10    1
     8    11    12    1
     9    10     8    1
    10     7     8    1
    11     7     6    1
    12    17    12    1
    13    17    18    1
    14     6     2    1
    15    26    25    1
    16    26    27    2
    17    18    27    1
    18    18    19    1
    19    25    24    1
    20    27    21    1
    21     1     2    1
    22     2     3    1
    23    19    20    1
    24     3     5   ar
    25     3     4   ar
    26    24    22    2
    27    21    20    2
    28    21    22    1
    29    22    23    1
