@<TRIPOS>MOLECULE
2c2c_HEM_A_1.pdb
 43 50 0 0 0
SMALL
GASTEIGER

@<TRIPOS>ATOM
      1 FE         38.9800    2.5100   36.1800 Fe    113  HEM113      0.0000
      2  CHA       37.5700    5.1300   34.4500 C.2   113  HEM113      0.0000
      3  CHB       36.3700    0.4800   35.1800 C.2   113  HEM113      0.0000
      4  CHC       40.4500   -0.1800   37.6800 C.2   113  HEM113      0.0000
      5  CHD       41.3700    4.5500   37.3900 C.2   113  HEM113      0.0000
      6  NA        37.3100    2.7400   35.0500 N.ar  113  HEM113      0.0000
      7  C1A       36.9100    3.8900   34.4600 C.ar  113  HEM113      0.0000
      8  C2A       35.7700    3.6100   33.6800 C.ar  113  HEM113      0.0000
      9  C3A       35.4300    2.3700   33.8700 C.ar  113  HEM113      0.0000
     10  C4A       36.3900    1.7900   34.7500 C.ar  113  HEM113      0.0000
     11  CMA       34.1900    1.6000   33.2500 C.3   113  HEM113      0.0000
     12  CAA       34.9700    4.6500   32.7100 C.3   113  HEM113      0.0000
     13  CBA       33.7500    5.3200   33.4600 C.3   113  HEM113      0.0000
     14  CGA       33.0200    6.3500   32.5900 C.2   113  HEM113      0.0000
     15  O1A       33.2800    6.4200   31.3700 O.co2 113  HEM113      0.0000
     16  O2A       32.1900    6.9900   33.2700 O.co2 113  HEM113      0.0000
     17  NB        38.5800    0.6200   36.3800 N.2   113  HEM113      0.0000
     18  C1B       37.3500   -0.0400   36.0800 C.2   113  HEM113      0.0000
     19  C2B       37.3800   -1.3800   36.4700 C.2   113  HEM113      0.0000
     20  C3B       38.5800   -1.5900   37.2000 C.2   113  HEM113      0.0000
     21  C4B       39.2500   -0.3800   37.0500 C.2   113  HEM113      0.0000
     22  CMB       36.2100   -2.4100   36.2900 C.3   113  HEM113      0.0000
     23  CAB       39.1100   -2.8900   37.7800 C.3   113  HEM113      0.0000
     24  CBB       39.0600   -4.1100   36.9500 C.3   113  HEM113      0.0000
     25  NC        40.6200    2.2400   37.3000 N.ar  113  HEM113      0.0000
     26  C1C       41.0300    1.0400   37.7600 C.ar  113  HEM113      0.0000
     27  C2C       42.3100    1.3000   38.5700 C.ar  113  HEM113      0.0000
     28  C3C       42.5600    2.6000   38.4500 C.ar  113  HEM113      0.0000
     29  C4C       41.4500    3.2300   37.7100 C.ar  113  HEM113      0.0000
     30  CMC       43.1100    0.1800   39.1600 C.3   113  HEM113      0.0000
     31  CAC       43.6500    3.4400   39.0500 C.2   113  HEM113      0.0000
     32  CBC       44.9200    2.9600   39.0800 C.2   113  HEM113      0.0000
     33  ND        39.4600    4.3500   35.9300 N.2   113  HEM113      0.0000
     34  C1D       40.4500    5.1300   36.5100 C.2   113  HEM113      0.0000
     35  C2D       40.4700    6.4500   36.0500 C.2   113  HEM113      0.0000
     36  C3D       39.3500    6.6400   35.3000 C.2   113  HEM113      0.0000
     37  C4D       38.7500    5.3400   35.2100 C.2   113  HEM113      0.0000
     38  CMD       41.4300    7.5100   36.7000 C.3   113  HEM113      0.0000
     39  CAD       38.9800    7.9100   34.5400 C.3   113  HEM113      0.0000
     40  CBD       39.9200    8.0500   33.3400 C.3   113  HEM113      0.0000
     41  CGD       40.1400    9.3800   32.6600 C.2   113  HEM113      0.0000
     42  O1D       39.1400   10.1900   32.7400 O.co2 113  HEM113      0.0000
     43  O2D       41.0700    9.5300   31.8400 O.co2 113  HEM113      0.0000
@<TRIPOS>BOND
     1    15    14   ar
     2    43    41   ar
     3    14    16   ar
     4    14    13    1
     5    41    42   ar
     6    41    40    1
     7    12    13    1
     8    12     8    1
     9    11     9    1
    10    40    39    1
    11     8     9   ar
    12     8     7   ar
    13     9    10   ar
    14     2     7    2
    15     2    37    1
    16     7     6   ar
    17    39    36    1
    18    10     6   ar
    19    10     3    2
    20     6     1    1
    21     3    18    1
    22    37    36    1
    23    37    33    2
    24    36    35    2
    25    33     1    1
    26    33    34    1
    27    35    34    1
    28    35    38    1
    29    18    17    2
    30    18    19    1
    31     1    17    1
    32     1    25    1
    33    22    19    1
    34    17    21    1
    35    19    20    2
    36    34     5    2
    37    24    23    1
    38    21    20    1
    39    21     4    2
    40    20    23    1
    41    25    29   ar
    42    25    26   ar
    43     5    29    1
    44     4    26    1
    45    29    28   ar
    46    26    27   ar
    47    28    27   ar
    48    28    31    1
    49    27    30    1
    50    31    32    2
