@<TRIPOS>MOLECULE
2c2d_DTP_A_1.pdb
 30 32 0 0 0
SMALL
GASTEIGER

@<TRIPOS>ATOM
      1  PG       -22.4950  -10.3020    5.6810 P.3   1001  DTP1001     0.5373
      2  O1G      -22.1970  -11.6910    6.0090 O.3   1001  DTP1001    -0.1143
      3  O2G      -21.2040   -9.6030    5.6710 O.2   1001  DTP1001    -0.2221
      4  O3G      -23.4100   -9.6430    6.7160 O.3   1001  DTP1001    -0.1143
      5  PB       -24.4820  -11.1390    3.8650 P.3   1001  DTP1001     0.2277
      6  O1B      -24.3780  -12.1510    2.8000 O.2   1001  DTP1001    -0.5168
      7  O2B      -25.5010  -10.1120    3.5170 O.3   1001  DTP1001    -0.4368
      8  O3B      -23.0910  -10.3430    4.1540 O.3   1001  DTP1001    -0.2258
      9  PA       -24.0600  -12.6960    6.7250 P.3   1001  DTP1001     0.2189
     10  O1A      -25.1740  -12.6540    7.6540 O.3   1001  DTP1001    -0.4371
     11  O2A      -23.8710  -14.1290    6.1670 O.2   1001  DTP1001    -0.5170
     12  O3A      -24.7370  -11.6740    5.4690 O.3   1001  DTP1001    -0.2700
     13  O5'      -22.9760  -12.4970    7.9110 O.3   1001  DTP1001    -0.3112
     14  C5'      -21.4440  -12.5660    7.9460 C.3   1001  DTP1001     0.1813
     15  C4'      -20.8100  -12.0880    9.2880 C.3   1001  DTP1001     0.1795
     16  O4'      -19.9470  -13.0430    9.9960 O.3   1001  DTP1001    -0.3155
     17  C3'      -19.9820  -10.8100    9.2510 C.3   1001  DTP1001     0.1883
     18  O3'      -20.3310  -10.0290   10.3810 O.3   1001  DTP1001    -0.2202
     19  C2'      -18.5330  -11.2720    9.2500 C.3   1001  DTP1001     0.1151
     20  C1'      -18.6190  -12.5620   10.0580 C.3   1001  DTP1001     0.2873
     21  N9       -17.6580  -13.6440    9.7290 N.pl3 1001  DTP1001    -0.1460
     22  C8       -17.8130  -14.7820    8.9450 C.3   1001  DTP1001     0.3377
     23  N7       -16.7410  -15.5410    8.8810 N.2   1001  DTP1001    -0.2095
     24  C5       -15.8120  -14.8760    9.6670 C.2   1001  DTP1001     0.2526
     25  C6       -14.4720  -15.1650   10.0090 C.2   1001  DTP1001     0.4393
     26  N6       -13.8430  -16.2520    9.5670 N.pl3 1001  DTP1001     0.2180
     27  N1       -13.8000  -14.2800   10.8350 N.2   1001  DTP1001     0.0021
     28  C2       -14.4480  -13.1610   11.2930 C.3   1001  DTP1001     0.5254
     29  N3       -15.7240  -12.7860   11.0310 N.2   1001  DTP1001    -0.0055
     30  C4       -16.3580  -13.6960   10.2020 C.2   1001  DTP1001     0.3518
@<TRIPOS>BOND
     1     6     5    2
     2     7     5    1
     3     5     8    1
     4     5    12    1
     5     8     1    1
     6    12     9    1
     7     3     1    2
     8     1     2    1
     9     1     4    1
    10    11     9    2
    11     9    10    1
    12     9    13    1
    13    13    14    1
    14    14    15    1
    15    23    22    1
    16    23    24    2
    17    22    21    1
    18    19    17    1
    19    19    20    1
    20    17    15    1
    21    17    18    1
    22    15    16    1
    23    26    25    1
    24    24    25    1
    25    24    30    1
    26    21    20    1
    27    21    30    1
    28    16    20    1
    29    25    27    2
    30    30    29    2
    31    27    28    1
    32    29    28    1
