@<TRIPOS>MOLECULE
2c2e_DCP_A_1.pdb
 28 29 0 0 0
SMALL
GASTEIGER

@<TRIPOS>ATOM
      1  N1        17.3430   13.0640    9.6880 N.am  1342  DCP1342    -0.1802
      2  C2        16.0380   13.1330   10.1950 C.1   1342  DCP1342     0.2756
      3  N3        15.2520   14.2600    9.9150 N.2   1342  DCP1342    -0.3024
      4  C4        15.7660   15.3080    9.1390 C.2   1342  DCP1342     0.2346
      5  C5        17.0640   15.2420    8.6460 C.2   1342  DCP1342     0.0687
      6  C6        17.8470   14.1250    8.9210 C.2   1342  DCP1342     0.0835
      7  O2        15.5830   12.2220   10.8850 O.2   1342  DCP1342    -0.1925
      8  N4        15.0080   16.3620    8.8520 N.pl3 1342  DCP1342    -0.0921
      9  C1'       18.1600   11.8460    9.8960 C.3   1342  DCP1342     0.2090
     10  C2'       18.4290   11.1390    8.5690 C.3   1342  DCP1342     0.0874
     11  C3'       19.4680   10.1300    9.0540 C.3   1342  DCP1342     0.1857
     12  C4'       20.2470   10.9330   10.1000 C.3   1342  DCP1342     0.1773
     13  O4'       19.5020   12.1480   10.3090 O.3   1342  DCP1342    -0.3339
     14  O3'       18.7950    9.0330    9.6730 O.3   1342  DCP1342    -0.2203
     15  C5'       21.6380   11.2670    9.5560 C.3   1342  DCP1342     0.1812
     16  O5'       21.5200   11.9520    8.3050 O.3   1342  DCP1342    -0.3112
     17  PA        22.7760   12.6390    7.5680 P.3   1342  DCP1342     0.2189
     18  O1A       23.8230   12.9540    8.5650 O.3   1342  DCP1342    -0.4371
     19  O2A       22.2980   13.7370    6.7000 O.2   1342  DCP1342    -0.5170
     20  O3A       23.3430   11.4540    6.6380 O.3   1342  DCP1342    -0.2700
     21  PB        22.3440   10.5920    5.7190 P.3   1342  DCP1342     0.2277
     22  O1B       21.4750   11.5360    4.9790 O.2   1342  DCP1342    -0.5168
     23  O2B       21.7160    9.5300    6.5380 O.3   1342  DCP1342    -0.4368
     24  O3B       23.3300    9.8930    4.6580 O.3   1342  DCP1342    -0.2258
     25  PG        24.1490   10.7820    3.5960 P.3   1342  DCP1342     0.5373
     26  O1G       25.0370   11.8180    4.4480 O.3   1342  DCP1342    -0.1143
     27  O2G       25.2050    9.7870    2.9000 O.3   1342  DCP1342    -0.1143
     28  O3G       23.2880   11.4630    2.6040 O.2   1342  DCP1342    -0.2221
@<TRIPOS>BOND
     1    28    25    2
     2    27    25    1
     3    25    26    1
     4    25    24    1
     5    24    21    1
     6    22    21    2
     7    21    23    1
     8    21    20    1
     9    20    17    1
    10    19    17    2
    11    17    16    1
    12    17    18    1
    13    16    15    1
    14    10    11    1
    15    10     9    1
    16     5     6    2
    17     5     4    1
    18     8     4    1
    19     6     1    1
    20    11    14    1
    21    11    12    1
    22     4     3    2
    23    15    12    1
    24     1     9    1
    25     1     2   am
    26     9    13    1
    27     3     2    2
    28    12    13    1
    29     2     7    2
