@<TRIPOS>MOLECULE
2c2h_GDP_A_1.pdb
 28 30 0 0 0
SMALL
GASTEIGER

@<TRIPOS>ATOM
      1  PB        21.3540  -16.2970   26.1700 P.3   1178  GDP1178     0.5373
      2  O1B       20.3140  -15.7570   25.2610 O.2   1178  GDP1178    -0.2221
      3  O2B       22.5830  -15.4270   26.2160 O.3   1178  GDP1178    -0.1143
      4  O3B       20.8190  -16.5130   27.5460 O.3   1178  GDP1178    -0.1143
      5  O3A       21.8200  -17.7510   25.7170 O.3   1178  GDP1178    -0.2261
      6  PA        21.6950  -18.2860   24.2230 P.3   1178  GDP1178     0.2231
      7  O1A       20.2750  -18.7010   23.8720 O.3   1178  GDP1178    -0.4370
      8  O2A       22.2560  -17.3320   23.2240 O.2   1178  GDP1178    -0.5169
      9  O5'       22.5730  -19.6360   24.3030 O.3   1178  GDP1178    -0.3111
     10  C5'       23.9030  -19.5530   24.8270 C.3   1178  GDP1178     0.1813
     11  C4'       24.7050  -20.7520   24.3570 C.3   1178  GDP1178     0.1799
     12  O4'       24.0600  -21.9000   24.9020 O.3   1178  GDP1178    -0.3326
     13  C3'       24.6740  -20.9400   22.8370 C.3   1178  GDP1178     0.2158
     14  O3'       25.9120  -21.4900   22.4120 O.3   1178  GDP1178    -0.2175
     15  C2'       23.5960  -21.9690   22.6020 C.3   1178  GDP1178     0.2310
     16  O2'       23.7730  -22.7640   21.4340 O.3   1178  GDP1178    -0.2158
     17  C1'       23.6920  -22.7890   23.8600 C.3   1178  GDP1178     0.2293
     18  N9        22.4190  -23.3740   24.2470 N.pl3 1178  GDP1178    -0.2354
     19  C8        21.2620  -22.7020   24.4310 C.3   1178  GDP1178     0.2246
     20  N7        20.2860  -23.5690   24.7980 N.2   1178  GDP1178    -0.2322
     21  C5        20.8300  -24.8000   24.8740 C.2   1178  GDP1178     0.2182
     22  C6        20.3410  -26.1580   25.2340 C.1   1178  GDP1178     0.2372
     23  O6        19.1390  -26.3810   25.5440 O.2   1178  GDP1178    -0.2069
     24  N1        21.2400  -27.1370   25.1830 N.2   1178  GDP1178    -0.2485
     25  C2        22.5400  -26.9430   24.8480 C.1   1178  GDP1178     0.2531
     26  N2        23.3970  -27.9870   24.8210 N.pl3 1178  GDP1178    -0.0226
     27  N3        23.0700  -25.7500   24.5180 N.2   1178  GDP1178    -0.3074
     28  C4        22.2480  -24.6650   24.5150 C.2   1178  GDP1178     0.2300
@<TRIPOS>BOND
     1    16    15    1
     2    14    13    1
     3    15    13    1
     4    15    17    1
     5    13    11    1
     6     8     6    2
     7    17    18    1
     8    17    12    1
     9     7     6    1
    10     6     9    1
    11     6     5    1
    12    18    19    1
    13    18    28    1
    14     9    10    1
    15    11    10    1
    16    11    12    1
    17    19    20    1
    18    28    27    2
    19    28    21    1
    20    27    25    2
    21    20    21    2
    22    26    25    1
    23    25    24    2
    24    21    22    1
    25    24    22    2
    26    22    23    2
    27     2     1    2
    28     5     1    1
    29     1     3    1
    30     1     4    1
