@<TRIPOS>MOLECULE
2c2k_III_C_1.pdb
 49 49 0 0 0
SMALL
GASTEIGER

@<TRIPOS>ATOM
      1  C1        41.4490   28.1460   21.7620 C.2     1  PHQ1        0.4219
      2  O1        40.3350   27.6660   21.5690 O.2     1  PHQ1       -0.2245
      3  O2        42.3660   28.4980   20.8060 O.3     1  PHQ1       -0.4285
      4  C2        41.9900   28.2890   19.4130 C.3     1  PHQ1        0.2368
      5  C3        43.0780   28.7090   18.4000 C.ar    1  PHQ1        0.0213
      6  C4        42.7830   28.5400   16.9910 C.ar    1  PHQ1       -0.0007
      7  C5        43.7550   28.9140   15.9840 C.ar    1  PHQ1       -0.0002
      8  C6        45.0350   29.4620   16.3800 C.ar    1  PHQ1       -0.0000
      9  C7        45.3430   29.6360   17.7840 C.ar    1  PHQ1       -0.0002
     10  C8        44.3710   29.2630   18.7930 C.ar    1  PHQ1       -0.0007
     11  N         41.8690   29.0030   22.6830 N.am    2  ASP2       -0.1605
     12  CA        41.2910   29.0710   24.0210 C.3     2  ASP2        0.1873
     13  C         40.7390   30.4430   24.3840 C.2     2  ASP2        0.2623
     14  O         41.3070   31.4750   24.0240 O.2     2  ASP2       -0.2715
     15  CB        42.3250   28.6580   25.0740 C.3     2  ASP2        0.1451
     16  CG        42.6200   27.1750   25.0480 C.2     2  ASP2        0.3671
     17  OD1       41.6590   26.3870   24.9590 O.co2   2  ASP2       -0.2456
     18  OD2       43.8070   26.7950   25.1300 O.co2   2  ASP2       -0.2456
     19  N         39.6190   30.4380   25.0990 N.am    3  GLU3       -0.1963
     20  CA        38.9770   31.6630   25.5550 C.3     3  GLU3        0.1733
     21  C         38.6700   31.4530   27.0330 C.2     3  GLU3        0.2616
     22  O         38.5740   30.3140   27.4900 O.2     3  GLU3       -0.2715
     23  CB        37.6750   31.9190   24.7850 C.3     3  GLU3        0.0429
     24  CG        37.8320   31.9330   23.2680 C.3     3  GLU3        0.1163
     25  CD        36.5740   32.3910   22.5480 C.2     3  GLU3        0.3649
     26  OE1       35.4740   31.9120   22.8910 O.co2   3  GLU3       -0.2457
     27  OE2       36.6850   33.2280   21.6290 O.co2   3  GLU3       -0.2457
     28  N         38.5260   32.5430   27.7780 N.am    4  VAL4       -0.1963
     29  CA        38.2320   32.4440   29.2020 C.3     4  VAL4        0.1743
     30  C         36.7940   32.8380   29.5030 C.2     4  VAL4        0.2792
     31  O         36.0710   33.3050   28.6220 O.2     4  VAL4       -0.2698
     32  CB        39.1770   33.3340   30.0340 C.3     4  VAL4        0.0290
     33  CG1       40.6020   32.8310   29.9080 C.3     4  VAL4        0.0023
     34  CG2       39.0770   34.7780   29.5720 C.3     4  VAL4        0.0023
     35  N3        36.1120   32.2980   30.4950 N.am    5  AA15       -0.1056
     36  C4        34.5360   33.4140   32.0280 C.2     5  AA15        0.2438
     37  O5        33.4770   33.4200   32.6590 O.2     5  AA15       -0.2733
     38  N6        34.9100   32.3290   31.2240 N.am    5  AA15       -0.1756
     39  C7        34.0780   31.1260   31.0880 C.3     5  AA15        0.2302
     40  C8        33.5160   30.9670   29.6910 C.2     5  AA15        0.3866
     41  O9        33.2700   29.6770   29.3750 O.co2   5  AA15       -0.2437
     42  O10       33.2760   31.8580   28.8890 O.co2   5  AA15       -0.2437
     43  C11       35.5160   34.5910   32.0970 C.3     5  AA15        0.0985
     44  C12       34.8620   35.9200   32.4970 C.3     5  AA15        0.1192
     45  C15       34.4240   36.7240   31.2860 C.2     5  AA15        0.3175
     46  O16       34.9210   36.6450   30.1640 O.2     5  AA15       -0.2501
     47  O17       33.3830   37.5450   31.6350 O.3     5  AA15       -0.4485
     48  C18       33.6430   38.9490   31.4950 C.3     5  AA15        0.2086
     49  C19       32.4500   39.5820   30.8070 C.3     5  AA15        0.0513
@<TRIPOS>BOND
     1     7     8   ar
     2     7     6   ar
     3     8     9   ar
     4     6     5   ar
     5     9    10   ar
     6     5    10   ar
     7     5     4    1
     8     4     3    1
     9     3     1    1
    10     2     1    2
    11    27    25   ar
    12     1    11   am
    13    25    26   ar
    14    25    24    1
    15    11    12    1
    16    24    23    1
    17    12    13    1
    18    12    15    1
    19    14    13    2
    20    13    19   am
    21    23    20    1
    22    17    16   ar
    23    16    15    1
    24    16    18   ar
    25    19    20    1
    26    20    21    1
    27    21    22    2
    28    21    28   am
    29    28    29    1
    30    31    30    2
    31    42    40   ar
    32    29    30    1
    33    29    32    1
    34    41    40   ar
    35    30    35   am
    36    34    32    1
    37    40    39    1
    38    33    32    1
    39    46    45    2
    40    35    38    1
    41    49    48    1
    42    39    38    1
    43    38    36   am
    44    45    47    1
    45    45    44    1
    46    48    47    1
    47    36    43    1
    48    36    37    2
    49    43    44    1
