@<TRIPOS>MOLECULE
2c2r_DCT_A_1.pdb
 27 28 0 0 0
SMALL
GASTEIGER

@<TRIPOS>ATOM
      1  N1       -17.0180  -14.5770    9.1940 N.am  1342  DCT1342    -0.1803
      2  C2       -15.7110  -14.7020    9.6750 C.1   1342  DCT1342     0.2756
      3  N3       -14.8850  -15.7120    9.1680 N.2   1342  DCT1342    -0.3024
      4  C4       -15.3660  -16.5890    8.1860 C.2   1342  DCT1342     0.2346
      5  C5       -16.6660  -16.4650    7.7070 C.2   1342  DCT1342     0.0687
      6  C6       -17.4870  -15.4640    8.2110 C.2   1342  DCT1342     0.0835
      7  O2       -15.2720  -13.9180   10.5250 O.2   1342  DCT1342    -0.1925
      8  N4       -14.5800  -17.5520    7.7120 N.pl3 1342  DCT1342    -0.0921
      9  C1'      -17.8800  -13.4710    9.6750 C.3   1342  DCT1342     0.2063
     10  C2'      -18.1180  -12.4460    8.5670 C.3   1342  DCT1342     0.0545
     11  C3'      -19.1840  -11.6140    9.2780 C.3   1342  DCT1342     0.0366
     12  C4'      -20.0250  -12.7030    9.9540 C.3   1342  DCT1342     0.1472
     13  O4'      -19.2210  -13.8990    9.9630 O.3   1342  DCT1342    -0.3366
     14  C5'      -21.3580  -12.9530    9.2390 C.3   1342  DCT1342     0.1785
     15  O5'      -21.1840  -13.3180    7.8660 O.3   1342  DCT1342    -0.3113
     16  PA       -22.4450  -13.5810    6.8960 P.3   1342  DCT1342     0.2189
     17  O1A      -23.6440  -13.9660    7.6740 O.3   1342  DCT1342    -0.4371
     18  O2A      -21.9640  -14.5090    5.8480 O.2   1342  DCT1342    -0.5170
     19  O3A      -22.7760  -12.1350    6.2670 O.3   1342  DCT1342    -0.2700
     20  PB       -21.6160  -11.2330    5.6080 P.3   1342  DCT1342     0.2277
     21  O1B      -20.5910  -12.1590    5.0740 O.2   1342  DCT1342    -0.5168
     22  O2B      -21.1930  -10.1950    6.5770 O.3   1342  DCT1342    -0.4368
     23  O3B      -22.3170  -10.5090    4.3510 O.3   1342  DCT1342    -0.2258
     24  PG       -23.8260  -10.8180    3.8840 P.3   1342  DCT1342     0.5373
     25  O1G      -23.8760  -12.3630    3.4540 O.3   1342  DCT1342    -0.1143
     26  O2G      -24.7750  -10.7690    5.1800 O.3   1342  DCT1342    -0.1143
     27  O3G      -24.2870   -9.9010    2.8160 O.2   1342  DCT1342    -0.2221
@<TRIPOS>BOND
     1    27    24    2
     2    25    24    1
     3    24    23    1
     4    24    26    1
     5    23    20    1
     6    21    20    2
     7    20    19    1
     8    20    22    1
     9    18    16    2
    10    19    16    1
    11    16    17    1
    12    16    15    1
    13     5     4    1
    14     5     6    2
    15     8     4    1
    16    15    14    1
    17     4     3    2
    18     6     1    1
    19    10    11    1
    20    10     9    1
    21     3     2    2
    22     1     9    1
    23     1     2   am
    24    14    12    1
    25    11    12    1
    26     9    13    1
    27     2     7    2
    28    12    13    1
