@<TRIPOS>MOLECULE
2c2s_34B_A_1.pdb
 22 31 0 0 0
SMALL
GASTEIGER

@<TRIPOS>ATOM
      1  N1         2.6620   28.9390   -6.1780 N.2   1188  34B1188     0.0000
      2  C2         2.2500   27.7020   -5.9930 C.1   1188  34B1188     0.0000
      3  N3         2.1320   27.0190   -4.8540 N.2   1188  34B1188     0.0000
      4  C4         2.4330   27.7180   -3.7650 C.2   1188  34B1188     0.0000
      5  C5         2.9140   29.0490   -3.7930 C.3   1188  34B1188     0.0000
      6  C6         3.0200   29.6170   -5.0610 C.2   1188  34B1188     0.0000
      7  B4         1.2680   31.6760   -2.5810 B     1188  34B1188     0.0000
      8  B9         1.0970   33.1320   -1.5940 B     1188  34B1188     0.0000
      9  B6         1.7960   30.1040   -0.2680 B     1188  34B1188     0.0000
     10  B10       -0.1120   31.8440   -1.4890 B     1188  34B1188     0.0000
     11  B8         2.1940   32.9580   -0.2140 B     1188  34B1188     0.0000
     12  B7         1.6620   31.5580    0.7320 B     1188  34B1188     0.0000
     13  B3         2.6740   32.3750   -1.8100 B     1188  34B1188     0.0000
     14  B5         0.7300   30.2980   -1.6420 B     1188  34B1188     0.0000
     15  N2'        1.8970   27.0030   -7.1580 N.pl3 1188  34B1188     0.0000
     16  N4'        2.2830   27.0020   -2.5760 N.pl3 1188  34B1188     0.0000
     17  C6'        3.5090   31.0620   -5.3000 C.3   1188  34B1188     0.0000
     18  C5'        3.3460   29.8240   -2.5780 C.3   1188  34B1188     0.0000
     19  C1C        2.3730   30.6850   -1.7750 C.3   1188  34B1188     0.0000
     20  C2C        2.9040   31.4140   -0.4050 C.3   1188  34B1188     0.0000
     21  B11        0.2300   30.8590   -0.0610 B     1188  34B1188     0.0000
     22  B12        0.4570   32.6110   -0.0250 B     1188  34B1188     0.0000
@<TRIPOS>BOND
     1    15     2    1
     2     1     2    2
     3     1     6    2
     4     2     3    2
     5    17     6    1
     6     6     5    1
     7     3     4    2
     8     5     4    1
     9     5    18    1
    10     4    16    1
    11     7    13    1
    12     7    19    1
    13     7    14    1
    14     7     8    1
    15    18    19    1
    16    13     8    1
    17    13    20    1
    18    19    14    1
    19    19    20    1
    20    14     9    1
    21    14    21    1
    22     8    10    1
    23     8    11    1
    24    10    21    1
    25    10    22    1
    26    20    11    1
    27    20    12    1
    28     9    21    1
    29    11    12    1
    30    21    22    1
    31    22    12    1
