@<TRIPOS>MOLECULE
2c2s_NDP_A_1.pdb
 48 52 0 0 0
SMALL
GASTEIGER

@<TRIPOS>ATOM
      1  PA         7.1110   26.2350    7.4690 P.3   1187  NDP1187     0.2189
      2  O1A        7.0650   24.7750    7.2570 O.3   1187  NDP1187    -0.4371
      3  O2A        6.0000   26.9580    6.8320 O.2   1187  NDP1187    -0.5170
      4  O5B        7.0210   26.6350    9.0160 O.3   1187  NDP1187    -0.3112
      5  C5B        7.8700   26.0560    9.9730 C.3   1187  NDP1187     0.1813
      6  C4B        7.0910   25.8980   11.2880 C.3   1187  NDP1187     0.1820
      7  O4B        5.8280   25.2770   11.0520 O.3   1187  NDP1187    -0.3136
      8  C3B        7.7940   24.9870   12.2790 C.3   1187  NDP1187     0.2157
      9  O3B        8.7950   25.6310   13.0290 O.3   1187  NDP1187    -0.2175
     10  C2B        6.6250   24.4910   13.1060 C.3   1187  NDP1187     0.2314
     11  O2B        6.1550   25.4860   13.9890 O.3   1187  NDP1187    -0.2630
     12  C1B        5.5670   24.3090   12.0350 C.3   1187  NDP1187     0.3158
     13  N9A        5.6120   22.9960   11.3800 N.pl3 1187  NDP1187    -0.1439
     14  C8A        6.1770   22.7300   10.1540 C.3   1187  NDP1187     0.3377
     15  N7A        5.9810   21.4150    9.8770 N.2   1187  NDP1187    -0.2095
     16  C5A        5.3030   20.8540   10.9030 C.2   1187  NDP1187     0.2526
     17  C6A        4.8500   19.5530   11.1200 C.2   1187  NDP1187     0.4393
     18  N6A        4.6190   18.7980   10.0360 N.pl3 1187  NDP1187     0.2180
     19  N1A        4.1750   19.2900   12.2970 N.2   1187  NDP1187     0.0021
     20  C2A        3.9370   20.2730   13.2500 C.3   1187  NDP1187     0.5254
     21  N3A        4.3900   21.5590   13.0220 N.2   1187  NDP1187    -0.0055
     22  C4A        5.0580   21.8380   11.8640 C.2   1187  NDP1187     0.3518
     23  O3         8.4940   26.9040    7.0610 O.3   1187  NDP1187    -0.2703
     24  PN         9.5220   26.9640    5.8010 P.3   1187  NDP1187     0.2189
     25  O1N       10.6580   27.8340    6.2310 O.3   1187  NDP1187    -0.4371
     26  O2N        9.8530   25.6100    5.2520 O.2   1187  NDP1187    -0.5170
     27  O5D        8.6290   27.7110    4.6890 O.3   1187  NDP1187    -0.3112
     28  C5D        8.4880   29.1230    4.6490 C.3   1187  NDP1187     0.1813
     29  C4D        9.2990   29.6700    3.4710 C.3   1187  NDP1187     0.1799
     30  O4D        8.9530   28.9630    2.2810 O.3   1187  NDP1187    -0.3327
     31  C3D        9.0300   31.1240    3.1650 C.3   1187  NDP1187     0.2158
     32  O3D       10.1560   31.6830    2.5080 O.3   1187  NDP1187    -0.2175
     33  C2D        7.9110   31.0840    2.1640 C.3   1187  NDP1187     0.2309
     34  O2D        7.8580   32.2660    1.3810 O.3   1187  NDP1187    -0.2158
     35  C1D        8.3060   29.8500    1.3730 C.3   1187  NDP1187     0.2263
     36  N1N        7.1300   29.1900    0.7630 N.pl3 1187  NDP1187    -0.2787
     37  C2N        7.1710   28.9940   -0.5830 C.3   1187  NDP1187     0.1244
     38  C3N        6.2450   28.2140   -1.2450 C.2   1187  NDP1187     0.0544
     39  C7N        6.4480   27.9570   -2.7200 C.2   1187  NDP1187     0.2818
     40  O7N        5.5130   27.1320   -3.2390 O.2   1187  NDP1187    -0.2670
     41  N7N        7.4460   28.5280   -3.4500 N.am  1187  NDP1187    -0.0839
     42  C4N        5.2820   27.3350   -0.4640 C.2   1187  NDP1187     0.0033
     43  C5N        5.2840   27.6900    0.9920 C.2   1187  NDP1187     0.0157
     44  C6N        6.2120   28.5560    1.5480 C.2   1187  NDP1187     0.0633
     45  P2B        6.4950   25.5460   15.5510 P.3   1187  NDP1187     0.5328
     46  O1X        7.9140   26.0120   15.6820 O.2   1187  NDP1187    -0.2224
     47  O2X        5.5380   26.5820   16.1140 O.3   1187  NDP1187    -0.1145
     48  O3X        6.2150   24.1610   16.0800 O.3   1187  NDP1187    -0.1145
@<TRIPOS>BOND
     1    41    39   am
     2    40    39    2
     3    39    38    1
     4    38    37    1
     5    38    42    2
     6    37    36    1
     7    42    43    1
     8    36    35    1
     9    36    44    1
    10    43    44    2
    11    35    33    1
    12    35    30    1
    13    34    33    1
    14    33    31    1
    15    30    29    1
    16    32    31    1
    17    31    29    1
    18    29    28    1
    19    28    27    1
    20    27    24    1
    21    26    24    2
    22    24    25    1
    23    24    23    1
    24     3     1    2
    25    23     1    1
    26     2     1    1
    27     1     4    1
    28     4     5    1
    29    15    14    1
    30    15    16    2
    31     5     6    1
    32    18    17    1
    33    14    13    1
    34    16    17    1
    35    16    22    1
    36     7     6    1
    37     7    12    1
    38    17    19    2
    39     6     8    1
    40    13    22    1
    41    13    12    1
    42    22    21    2
    43    12    10    1
    44     8     9    1
    45     8    10    1
    46    19    20    1
    47    21    20    1
    48    10    11    1
    49    11    45    1
    50    45    46    2
    51    45    48    1
    52    45    47    1
