@<TRIPOS>MOLECULE
2c2t_39E_A_1.pdb
 21 31 0 0 0
SMALL
GASTEIGER

@<TRIPOS>ATOM
      1  N1         2.4340   28.9870   -6.2080 N.2   1189  39E1189     0.0000
      2  C2         2.0520   27.6880   -6.0970 C.1   1189  39E1189     0.0000
      3  N3         1.9950   27.0410   -4.9390 N.2   1189  39E1189     0.0000
      4  C4         2.2960   27.6960   -3.8170 C.2   1189  39E1189     0.0000
      5  C5         2.7170   29.0750   -3.8080 C.3   1189  39E1189     0.0000
      6  C6         2.7800   29.6910   -5.0350 C.2   1189  39E1189     0.0000
      7  N2'        1.8270   26.9990   -7.2300 N.pl3 1189  39E1189     0.0000
      8  N4'        2.1910   26.9760   -2.6510 N.pl3 1189  39E1189     0.0000
      9  C6'        3.2270   31.1320   -5.2610 C.3   1189  39E1189     0.0000
     10  C5'        3.1310   29.7400   -2.5190 C.3   1189  39E1189     0.0000
     11  C1C        2.2000   30.7270   -1.8200 C.3   1189  39E1189     0.0000
     12  C2C        0.6620   30.5180   -1.8390 C.3   1189  39E1189     0.0000
     13  B4         2.6220   32.2660   -1.7950 B     1189  39E1189     0.0000
     14  B5         2.7340   31.3480   -0.3080 B     1189  39E1189     0.0000
     15  B6         1.4590   30.1500   -0.3570 B     1189  39E1189     0.0000
     16  B7        -0.0760   30.9850   -0.3630 B     1189  39E1189     0.0000
     17  B8        -0.1610   31.9250   -1.8600 B     1189  39E1189     0.0000
     18  B10        2.0190   32.9310   -0.2920 B     1189  39E1189     0.0000
     19  B11        1.2670   31.6120    0.6020 B     1189  39E1189     0.0000
     20  B12        0.2430   32.7280   -0.3370 B     1189  39E1189     0.0000
     21  B9         1.1030   33.2210   -1.7790 B     1189  39E1189     0.0000
@<TRIPOS>BOND
     1     7     2    1
     2     1     2    2
     3     1     6    2
     4     2     3    2
     5     9     6    1
     6     6     5    1
     7     3     4    2
     8     4     5    1
     9     4     8    1
    10     5    10    1
    11    10    11    1
    12    17    12    1
    13    17    21    1
    14    17    16    1
    15    17    20    1
    16    12    11    1
    17    12    16    1
    18    12    15    1
    19    11    13    1
    20    11    14    1
    21    13    21    1
    22    13    18    1
    23    21    20    1
    24    21    18    1
    25    16    15    1
    26    16    19    1
    27    15    14    1
    28    15    19    1
    29    14    18    1
    30    14    19    1
    31    18    19    1
