@<TRIPOS>MOLECULE
2c2t_NDP_A_1.pdb
 48 52 0 0 0
SMALL
GASTEIGER

@<TRIPOS>ATOM
      1  PA         6.9720   26.5380    7.4130 P.3   1187  NDP1187     0.2189
      2  O1A        6.9770   25.0720    7.1860 O.3   1187  NDP1187    -0.4371
      3  O2A        5.8720   27.3020    6.7740 O.2   1187  NDP1187    -0.5170
      4  O5B        6.8810   26.8710    8.9680 O.3   1187  NDP1187    -0.3112
      5  C5B        7.7310   26.2620    9.9140 C.3   1187  NDP1187     0.1813
      6  C4B        6.9640   26.1170   11.2270 C.3   1187  NDP1187     0.1820
      7  O4B        5.6990   25.5030   11.0130 O.3   1187  NDP1187    -0.3136
      8  C3B        7.6740   25.2170   12.2410 C.3   1187  NDP1187     0.2157
      9  O3B        8.6930   25.8430   12.9980 O.3   1187  NDP1187    -0.2175
     10  C2B        6.5150   24.7550   13.0790 C.3   1187  NDP1187     0.2314
     11  O2B        6.0130   25.7580   13.9440 O.3   1187  NDP1187    -0.2630
     12  C1B        5.4740   24.5290   12.0060 C.3   1187  NDP1187     0.3158
     13  N9A        5.5420   23.2300   11.3260 N.pl3 1187  NDP1187    -0.1439
     14  C8A        6.0720   23.0070   10.0760 C.3   1187  NDP1187     0.3377
     15  N7A        5.8780   21.7130    9.7450 N.2   1187  NDP1187    -0.2095
     16  C5A        5.2160   21.1190   10.7490 C.2   1187  NDP1187     0.2526
     17  C6A        4.7740   19.8170   10.9110 C.2   1187  NDP1187     0.4393
     18  N6A        4.7820   18.9290    9.8920 N.pl3 1187  NDP1187     0.2180
     19  N1A        4.1070   19.5300   12.0730 N.2   1187  NDP1187     0.0021
     20  C2A        3.8810   20.4680   13.0580 C.3   1187  NDP1187     0.5254
     21  N3A        4.3300   21.7590   12.8920 N.2   1187  NDP1187    -0.0055
     22  C4A        4.9850   22.0650   11.7490 C.2   1187  NDP1187     0.3518
     23  O3         8.4250   27.1610    7.1030 O.3   1187  NDP1187    -0.2703
     24  PN         9.3460   27.2560    5.7930 P.3   1187  NDP1187     0.2189
     25  O1N       10.4680   28.1360    6.1990 O.3   1187  NDP1187    -0.4371
     26  O2N        9.6480   25.8980    5.2980 O.2   1187  NDP1187    -0.5170
     27  O5D        8.4230   27.9710    4.6900 O.3   1187  NDP1187    -0.3112
     28  C5D        8.2980   29.3830    4.5910 C.3   1187  NDP1187     0.1813
     29  C4D        9.1210   29.8980    3.4180 C.3   1187  NDP1187     0.1799
     30  O4D        8.7930   29.1740    2.2230 O.3   1187  NDP1187    -0.3327
     31  C3D        8.8250   31.3470    3.0980 C.3   1187  NDP1187     0.2158
     32  O3D        9.9620   31.9590    2.4970 O.3   1187  NDP1187    -0.2175
     33  C2D        7.6970   31.2680    2.0820 C.3   1187  NDP1187     0.2309
     34  O2D        7.6220   32.4210    1.2470 O.3   1187  NDP1187    -0.2158
     35  C1D        8.1090   30.0290    1.3140 C.3   1187  NDP1187     0.2263
     36  N1N        6.9960   29.2870    0.7060 N.pl3 1187  NDP1187    -0.2787
     37  C2N        7.0730   29.0890   -0.6310 C.3   1187  NDP1187     0.1244
     38  C3N        6.1410   28.3160   -1.2660 C.2   1187  NDP1187     0.0544
     39  C7N        6.2940   28.0340   -2.7180 C.2   1187  NDP1187     0.2818
     40  O7N        5.3750   27.2320   -3.2940 O.2   1187  NDP1187    -0.2670
     41  N7N        7.2840   28.5400   -3.4460 N.am  1187  NDP1187    -0.0839
     42  C4N        5.2040   27.5080   -0.4710 C.2   1187  NDP1187     0.0033
     43  C5N        5.2000   27.8090    0.9700 C.2   1187  NDP1187     0.0157
     44  C6N        6.1080   28.6600    1.5040 C.2   1187  NDP1187     0.0633
     45  P2B        6.4060   25.8840   15.5000 P.3   1187  NDP1187     0.5328
     46  O1X        7.8170   26.3810   15.5760 O.2   1187  NDP1187    -0.2224
     47  O2X        5.4690   26.9290   16.0730 O.3   1187  NDP1187    -0.1145
     48  O3X        6.2140   24.5160   16.0710 O.3   1187  NDP1187    -0.1145
@<TRIPOS>BOND
     1    41    39   am
     2    40    39    2
     3    39    38    1
     4    38    37    1
     5    38    42    2
     6    37    36    1
     7    42    43    1
     8    36    35    1
     9    36    44    1
    10    43    44    2
    11    34    33    1
    12    35    33    1
    13    35    30    1
    14    33    31    1
    15    30    29    1
    16    32    31    1
    17    31    29    1
    18    29    28    1
    19    28    27    1
    20    27    24    1
    21    26    24    2
    22    24    25    1
    23    24    23    1
    24     3     1    2
    25    23     1    1
    26     2     1    1
    27     1     4    1
    28     4     5    1
    29    15    14    1
    30    15    16    2
    31    18    17    1
    32     5     6    1
    33    14    13    1
    34    16    17    1
    35    16    22    1
    36    17    19    2
    37     7     6    1
    38     7    12    1
    39     6     8    1
    40    13    22    1
    41    13    12    1
    42    22    21    2
    43    12    10    1
    44    19    20    1
    45     8     9    1
    46     8    10    1
    47    21    20    1
    48    10    11    1
    49    11    45    1
    50    45    46    2
    51    45    48    1
    52    45    47    1
