@<TRIPOS>MOLECULE
2c2t_39B_A_1.pdb
 21 31 0 0 0
SMALL
GASTEIGER

@<TRIPOS>ATOM
      1  N1         2.4340   28.9870   -6.2080 N.2   1188  39B1188     0.0000
      2  C2         2.0520   27.6880   -6.0970 C.1   1188  39B1188     0.0000
      3  N3         1.9950   27.0410   -4.9390 N.2   1188  39B1188     0.0000
      4  C4         2.2960   27.6960   -3.8170 C.2   1188  39B1188     0.0000
      5  C5         2.7170   29.0750   -3.8080 C.3   1188  39B1188     0.0000
      6  C6         2.7800   29.6910   -5.0350 C.2   1188  39B1188     0.0000
      7  N2'        1.8270   26.9990   -7.2300 N.pl3 1188  39B1188     0.0000
      8  N4'        2.1910   26.9760   -2.6510 N.pl3 1188  39B1188     0.0000
      9  C6'        3.2270   31.1320   -5.2610 C.3   1188  39B1188     0.0000
     10  C5'        3.1480   29.7930   -2.5430 C.3   1188  39B1188     0.0000
     11  C1C        2.1440   30.6910   -1.8270 C.3   1188  39B1188     0.0000
     12  C2C        2.4560   32.2050   -1.6750 C.3   1188  39B1188     0.0000
     13  B4         0.5910   30.3850   -1.9850 B     1188  39B1188     0.0000
     14  B5         1.3440   30.0610   -0.4380 B     1188  39B1188     0.0000
     15  B6         2.6170   31.2470   -0.2510 B     1188  39B1188     0.0000
     16  B7         1.8910   32.8340   -0.1800 B     1188  39B1188     0.0000
     17  B8         1.1220   33.1340   -1.7410 B     1188  39B1188     0.0000
     18  B10       -0.1830   30.8900   -0.5010 B     1188  39B1188     0.0000
     19  B11        1.0830   31.4550    0.5830 B     1188  39B1188     0.0000
     20  B12        0.1370   32.6440   -0.3500 B     1188  39B1188     0.0000
     21  B9        -0.2550   31.9670   -1.9110 B     1188  39B1188     0.0000
@<TRIPOS>BOND
     1     7     2    1
     2     1     2    2
     3     1     6    2
     4     2     3    2
     5     9     6    1
     6     6     5    1
     7     3     4    2
     8     4     5    1
     9     4     8    1
    10     5    10    1
    11    10    11    1
    12    13    21    1
    13    13    11    1
    14    13    18    1
    15    21    17    1
    16    21    18    1
    17    21    20    1
    18    11    12    1
    19    11    14    1
    20    17    12    1
    21    17    20    1
    22    17    16    1
    23    12    15    1
    24    12    16    1
    25    18    14    1
    26    18    19    1
    27    14    15    1
    28    14    19    1
    29    15    16    1
    30    15    19    1
    31    16    19    1
