@<TRIPOS>MOLECULE
2c2w_5CD_A_1.pdb
 19 21 0 0 0
SMALL
GASTEIGER

@<TRIPOS>ATOM
      1  N9        21.8710   33.4240  -30.1700 N.pl3 500  5CD500     -0.1439
      2  C8        20.8850   32.5670  -30.4300 C.3   500  5CD500      0.3377
      3  N7        20.9540   32.1920  -31.7080 N.2   500  5CD500     -0.2095
      4  C5        21.9900   32.8230  -32.2550 C.2   500  5CD500      0.2526
      5  C4        22.5780   33.6040  -31.2770 C.2   500  5CD500      0.3518
      6  N3        23.6590   34.3440  -31.5620 N.2   500  5CD500     -0.0055
      7  C2        24.1640   34.3350  -32.7860 C.3   500  5CD500      0.5254
      8  N1        23.6190   33.6020  -33.7480 N.2   500  5CD500      0.0021
      9  C6        22.5360   32.8370  -33.5250 C.2   500  5CD500      0.4393
     10  N6        21.9970   32.0970  -34.4980 N.pl3 500  5CD500      0.2180
     11  O2'       21.1750   36.2650  -28.5770 O.3   500  5CD500     -0.2130
     12  C2'       20.9150   34.8630  -28.4400 C.3   500  5CD500      0.2569
     13  C3'       20.7030   34.4810  -26.9650 C.3   500  5CD500      0.2172
     14  O3'       20.6850   35.6580  -26.1470 O.3   500  5CD500     -0.2175
     15  C4'       21.9460   33.6520  -26.6250 C.3   500  5CD500      0.1685
     16  C5'       21.6070   32.5730  -25.5740 C.3   500  5CD500      0.1271
     17 CL         20.2580   31.5400  -26.1420 Cl    500  5CD500     -0.1110
     18  O4'       22.2970   33.0360  -27.8790 O.3   500  5CD500     -0.3148
     19  C1'       22.1580   34.0670  -28.8660 C.3   500  5CD500      0.3186
@<TRIPOS>BOND
     1    10     9    1
     2     8     9    2
     3     8     7    1
     4     9     4    1
     5     7     6    1
     6     4     3    2
     7     4     5    1
     8     3     2    1
     9     6     5    2
    10     5     1    1
    11     2     1    1
    12     1    19    1
    13    19    12    1
    14    19    18    1
    15    11    12    1
    16    12    13    1
    17    18    15    1
    18    13    15    1
    19    13    14    1
    20    15    16    1
    21    17    16    1
