@<TRIPOS>MOLECULE
2c31_TZD_A_1.pdb
 27 28 0 0 0
SMALL
GASTEIGER

@<TRIPOS>ATOM
      1  N1'       69.2740    2.2680   28.6380 N.2   1554  TZD1554    -0.1861
      2  C2'       68.6450    3.3990   29.0450 C.1   1554  TZD1554     0.0663
      3  C2A       67.1660    3.3830   29.3580 C.3   1554  TZD1554     0.1291
      4  N3'       69.3490    4.5720   29.1750 N.2   1554  TZD1554    -0.3368
      5  C4'       70.7140    4.6440   28.8930 C.2   1554  TZD1554     0.2294
      6  N4'       71.3170    5.8370   29.0490 N.pl3 1554  TZD1554    -0.0924
      7  C5'       71.4170    3.4370   28.4450 C.2   1554  TZD1554     0.0683
      8  C6'       70.6240    2.2430   28.3350 C.2   1554  TZD1554     0.1117
      9  C35       72.9490    3.3670   28.0770 C.3   1554  TZD1554     0.1415
     10  N3        73.2180    4.2120   26.8360 N.ar  1554  TZD1554    -0.2894
     11  C2        73.7830    5.4020   26.9730 C.ar  1554  TZD1554     0.2920
     12  OC2       74.1760    5.9260   28.1760 O.2   1554  TZD1554    -0.2594
     13  S1        74.0140    6.2580   25.4570 S.2   1554  TZD1554    -0.0306
     14  C5        73.3010    4.8890   24.6300 C.ar  1554  TZD1554     0.0259
     15  C4        72.9410    3.9000   25.5150 C.ar  1554  TZD1554     0.0432
     16  C4A       72.2920    2.5940   25.0470 C.3   1554  TZD1554     0.0503
     17  C5A       73.1380    4.8960   23.1280 C.3   1554  TZD1554     0.0667
     18  C5B       74.3840    5.3970   22.3790 C.3   1554  TZD1554     0.1544
     19  O5G       74.0710    5.0980   20.9360 O.3   1554  TZD1554    -0.3134
     20  P1        73.3820    6.1090   19.9770 P.3   1554  TZD1554     0.2230
     21  O11       74.4140    7.3170   19.7390 O.3   1554  TZD1554    -0.2261
     22  O12       73.1750    5.4340   18.7160 O.2   1554  TZD1554    -0.5169
     23  O13       72.1600    6.5780   20.6420 O.3   1554  TZD1554    -0.4370
     24  P2        75.8720    7.5310   19.0630 P.3   1554  TZD1554     0.5373
     25  O21       76.8030    7.8430   20.1270 O.3   1554  TZD1554    -0.1143
     26  O22       75.5770    8.6220   18.1530 O.2   1554  TZD1554    -0.2221
     27  O23       76.1580    6.2690   18.3420 O.3   1554  TZD1554    -0.1143
@<TRIPOS>BOND
     1    26    24    2
     2    27    24    1
     3    22    20    2
     4    24    21    1
     5    24    25    1
     6    21    20    1
     7    20    23    1
     8    20    19    1
     9    19    18    1
    10    18    17    1
    11    17    14    1
    12    14    13   ar
    13    14    15   ar
    14    16    15    1
    15    13    11   ar
    16    15    10   ar
    17    10    11   ar
    18    10     9    1
    19    11    12    2
    20     9     7    1
    21     8     7    2
    22     8     1    1
    23     7     5    1
    24     1     2    2
    25     5     6    1
    26     5     4    2
    27     2     4    2
    28     2     3    1
