@<TRIPOS>MOLECULE
2c31_ADP_A_1.pdb
 27 29 0 0 0
SMALL
GASTEIGER

@<TRIPOS>ATOM
      1  PB        70.2560   21.0560   35.4700 P.3   1555  ADP1555     0.5373
      2  O1B       71.5580   21.6650   36.1970 O.3   1555  ADP1555    -0.1143
      3  O2B       70.0050   21.9830   34.1770 O.2   1555  ADP1555    -0.2221
      4  O3B       70.4040   19.6250   35.1200 O.3   1555  ADP1555    -0.1143
      5  PA        68.6360   20.3330   37.6590 P.3   1555  ADP1555     0.2231
      6  O1A       67.4660   19.5340   37.2270 O.2   1555  ADP1555    -0.5169
      7  O2A       69.8610   19.6180   38.0850 O.3   1555  ADP1555    -0.4370
      8  O3A       69.0140   21.3420   36.4590 O.3   1555  ADP1555    -0.2261
      9  O5'       68.1930   21.3140   38.8550 O.3   1555  ADP1555    -0.3111
     10  C5'       67.0300   22.1320   38.7180 C.3   1555  ADP1555     0.1813
     11  C4'       66.6760   22.8170   40.0400 C.3   1555  ADP1555     0.1821
     12  O4'       65.6440   23.7840   39.7930 O.3   1555  ADP1555    -0.3135
     13  C3'       66.1280   21.8570   41.1010 C.3   1555  ADP1555     0.2184
     14  O3'       66.9750   21.8590   42.2540 O.3   1555  ADP1555    -0.2174
     15  C2'       64.7640   22.4540   41.4570 C.3   1555  ADP1555     0.2570
     16  O2'       64.5610   22.3800   42.8720 O.3   1555  ADP1555    -0.2130
     17  C1'       64.9680   23.9150   41.0500 C.3   1555  ADP1555     0.3186
     18  N9        63.7060   24.6540   40.8110 N.pl3 1555  ADP1555    -0.1439
     19  C8        62.6940   24.2560   40.0420 C.3   1555  ADP1555     0.3377
     20  N7        61.7890   25.2280   39.9490 N.2   1555  ADP1555    -0.2095
     21  C5        62.2260   26.2560   40.6700 C.2   1555  ADP1555     0.2526
     22  C6        61.7430   27.5300   40.9450 C.2   1555  ADP1555     0.4393
     23  N6        60.6120   27.9570   40.3890 N.pl3 1555  ADP1555     0.2180
     24  N1        62.4550   28.3400   41.7420 N.2   1555  ADP1555     0.0021
     25  C2        63.6070   27.9530   42.2670 C.3   1555  ADP1555     0.5254
     26  N3        64.1000   26.7510   42.0190 N.2   1555  ADP1555    -0.0055
     27  C4        63.4430   25.8880   41.2310 C.2   1555  ADP1555     0.3518
@<TRIPOS>BOND
     1     3     1    2
     2     4     1    1
     3     1     2    1
     4     1     8    1
     5     8     5    1
     6     6     5    2
     7     5     7    1
     8     5     9    1
     9    10     9    1
    10    10    11    1
    11    12    11    1
    12    12    17    1
    13    20    19    1
    14    20    21    2
    15    11    13    1
    16    19    18    1
    17    23    22    1
    18    21    22    1
    19    21    27    1
    20    18    17    1
    21    18    27    1
    22    22    24    2
    23    17    15    1
    24    13    15    1
    25    13    14    1
    26    27    26    2
    27    15    16    1
    28    24    25    1
    29    26    25    1
