@<TRIPOS>MOLECULE
2c37_RP5_N_1.pdb
 13 13 0 0 0
SMALL
GASTEIGER

@<TRIPOS>ATOM
      1  C1'      -64.8220   -5.6230  -87.1520 C.3   405  RP5405      0.1777
      2  O1'      -63.7020   -5.5150  -88.0170 O.3   405  RP5405     -0.3482
      3  C2'      -64.2410   -5.8040  -85.7560 C.3   405  RP5405      0.2140
      4  O2'      -63.9630   -4.5100  -85.2610 O.3   405  RP5405     -0.2176
      5  C3'      -62.9580   -6.5640  -86.0250 C.3   405  RP5405      0.2140
      6  O3'      -62.0050   -6.4770  -84.9700 O.3   405  RP5405     -0.2176
      7  C4'      -62.5120   -5.9050  -87.3380 C.3   405  RP5405      0.1782
      8  C5'      -61.5820   -6.7210  -88.2420 C.3   405  RP5405      0.1858
      9  O5'      -61.8470   -8.1100  -88.2910 O.3   405  RP5405     -0.2675
     10  P'       -61.2620   -8.9720  -89.5240 P.3   405  RP5405      0.5327
     11  O1X      -59.6640   -8.7570  -89.4170 O.3   405  RP5405     -0.1145
     12  O2X      -61.6240  -10.4130  -89.4470 O.3   405  RP5405     -0.1145
     13  O3X      -61.7130   -8.3710  -90.7960 O.2   405  RP5405     -0.2224
@<TRIPOS>BOND
     1    13    10    2
     2    10    12    1
     3    10    11    1
     4    10     9    1
     5     9     8    1
     6     8     7    1
     7     2     7    1
     8     2     1    1
     9     7     5    1
    10     1     3    1
    11     5     3    1
    12     5     6    1
    13     3     4    1
