@<TRIPOS>MOLECULE
2c37_U5P_B_1.pdb
 21 22 0 0 0
SMALL
GASTEIGER

@<TRIPOS>ATOM
      1  N1       -28.1040  -15.9960  -14.6270 N.am  401  U5P401     -0.1766
      2  C2       -27.3260  -15.7280  -15.7570 C.1   401  U5P401      0.2845
      3  N3       -26.8060  -14.4540  -15.8360 N.2   401  U5P401     -0.2452
      4  C4       -26.9840  -13.4280  -14.9220 C.1   401  U5P401      0.2182
      5  C5       -27.8050  -13.7750  -13.7790 C.2   401  U5P401      0.1242
      6  C6       -28.3220  -15.0120  -13.6740 C.2   401  U5P401      0.0929
      7  O2       -27.0800  -16.5240  -16.6420 O.2   401  U5P401     -0.1918
      8  O4       -26.4600  -12.3340  -15.1220 O.2   401  U5P401     -0.2085
      9  C1'      -28.7630  -17.3380  -14.3710 C.3   401  U5P401      0.2401
     10  C2'      -30.2480  -17.3480  -14.7420 C.3   401  U5P401      0.2319
     11  O2'      -30.9650  -18.1270  -13.7920 O.3   401  U5P401     -0.2157
     12  C3'      -30.1880  -17.9590  -16.1430 C.3   401  U5P401      0.2158
     13  C4'      -29.2390  -19.1030  -15.8090 C.3   401  U5P401      0.1801
     14  O3'      -31.4650  -18.4420  -16.6120 O.3   401  U5P401     -0.2175
     15  O4'      -28.1770  -18.4050  -15.1030 O.3   401  U5P401     -0.3320
     16  C5'      -28.7040  -19.9300  -16.9640 C.3   401  U5P401      0.1859
     17  O5'      -27.9220  -19.1220  -17.8390 O.3   401  U5P401     -0.2675
     18  P        -26.7370  -19.7370  -18.7230 P.3   401  U5P401      0.5327
     19  O1P      -25.4670  -19.6140  -17.9680 O.3   401  U5P401     -0.1145
     20  O2P      -27.1590  -21.0830  -19.1860 O.3   401  U5P401     -0.1145
     21  O3P      -26.6350  -18.8570  -19.9090 O.2   401  U5P401     -0.2224
@<TRIPOS>BOND
     1    21    18    2
     2    20    18    1
     3    18    19    1
     4    18    17    1
     5    17    16    1
     6    16    13    1
     7     7     2    2
     8    14    12    1
     9    12    13    1
    10    12    10    1
    11     3     2    2
    12     3     4    2
    13    13    15    1
    14     2     1   am
    15     8     4    2
    16    15     9    1
    17     4     5    1
    18    10     9    1
    19    10    11    1
    20     1     9    1
    21     1     6    1
    22     5     6    2
