@<TRIPOS>MOLECULE
2c38_AMP_B_1.pdb
 23 25 0 0 0
SMALL
GASTEIGER

@<TRIPOS>ATOM
      1  P        -26.6870  -19.7930  -19.0160 P.3   401  AMP401      0.5327
      2  O1P      -25.6660  -20.6640  -18.3730 O.3   401  AMP401     -0.1145
      3  O2P      -26.8520  -19.8610  -20.4900 O.2   401  AMP401     -0.2224
      4  O3P      -26.3600  -18.3750  -18.7100 O.3   401  AMP401     -0.1145
      5  O5'      -28.1270  -20.1140  -18.3790 O.3   401  AMP401     -0.2675
      6  C5'      -28.3250  -20.4610  -17.0150 C.3   401  AMP401      0.1860
      7  C4'      -28.7080  -19.2910  -16.1070 C.3   401  AMP401      0.1823
      8  O4'      -27.5380  -18.5390  -15.7120 O.3   401  AMP401     -0.3135
      9  C3'      -29.5870  -18.1380  -16.5820 C.3   401  AMP401      0.2184
     10  O3'      -30.9250  -18.5320  -16.7980 O.3   401  AMP401     -0.2174
     11  C2'      -29.4770  -17.3030  -15.3140 C.3   401  AMP401      0.2570
     12  O2'      -30.1000  -17.9180  -14.2060 O.3   401  AMP401     -0.2130
     13  C1'      -27.9810  -17.3510  -15.0910 C.3   401  AMP401      0.3186
     14  N9       -27.2900  -16.2050  -15.6580 N.pl3 401  AMP401     -0.1439
     15  C8       -26.5420  -16.1400  -16.8010 C.3   401  AMP401      0.3377
     16  N7       -26.0440  -14.9500  -17.0340 N.2   401  AMP401     -0.2095
     17  C5       -26.4980  -14.1790  -15.9680 C.2   401  AMP401      0.2526
     18  C6       -26.3270  -12.8110  -15.5980 C.2   401  AMP401      0.4393
     19  N6       -25.6120  -11.9280  -16.3050 N.pl3 401  AMP401      0.2180
     20  N1       -26.9220  -12.3730  -14.4550 N.2   401  AMP401      0.0021
     21  C2       -27.6440  -13.2470  -13.7250 C.3   401  AMP401      0.5254
     22  N3       -27.8750  -14.5480  -13.9660 N.2   401  AMP401     -0.0055
     23  C4       -27.2690  -14.9500  -15.1080 C.2   401  AMP401      0.3518
@<TRIPOS>BOND
     1     3     1    2
     2     1     4    1
     3     1     5    1
     4     1     2    1
     5     5     6    1
     6    16    15    1
     7    16    17    2
     8     6     7    1
     9    15    14    1
    10    10     9    1
    11     9     7    1
    12     9    11    1
    13    19    18    1
    14     7     8    1
    15    17    18    1
    16    17    23    1
    17     8    13    1
    18    14    23    1
    19    14    13    1
    20    18    20    2
    21    11    13    1
    22    11    12    1
    23    23    22    2
    24    20    21    1
    25    22    21    1
