@<TRIPOS>MOLECULE
2c39_ADP_B_1.pdb
 27 29 0 0 0
SMALL
GASTEIGER

@<TRIPOS>ATOM
      1  PB       -39.5680   -8.3400  -24.3330 P.3   404  ADP404      0.5373
      2  O1B      -40.8980   -8.8650  -24.8170 O.3   404  ADP404     -0.1143
      3  O2B      -38.4510   -8.6040  -25.3020 O.2   404  ADP404     -0.2221
      4  O3B      -39.6570   -6.9020  -23.8820 O.3   404  ADP404     -0.1143
      5  PA       -38.3710   -8.8170  -21.6930 P.3   404  ADP404      0.2231
      6  O1A      -39.2420   -7.9450  -20.8210 O.3   404  ADP404     -0.4370
      7  O2A      -37.7760  -10.0540  -21.0600 O.2   404  ADP404     -0.5169
      8  O3A      -39.2060   -9.2490  -23.0240 O.3   404  ADP404     -0.2261
      9  O5'      -37.1500   -7.9770  -22.3290 O.3   404  ADP404     -0.3111
     10  C5'      -36.6400   -6.7710  -21.7560 C.3   404  ADP404      0.1813
     11  C4'      -36.2960   -5.7120  -22.8130 C.3   404  ADP404      0.1821
     12  O4'      -34.9500   -5.2630  -22.5790 O.3   404  ADP404     -0.3135
     13  C3'      -36.3390   -6.2010  -24.2690 C.3   404  ADP404      0.2184
     14  O3'      -37.5330   -5.8780  -24.9910 O.3   404  ADP404     -0.2174
     15  C2'      -35.1360   -5.5540  -24.9190 C.3   404  ADP404      0.2570
     16  O2'      -35.4900   -4.2630  -25.4230 O.3   404  ADP404     -0.2130
     17  C1'      -34.1530   -5.4250  -23.7650 C.3   404  ADP404      0.3186
     18  N9       -33.3280   -6.6740  -23.6910 N.pl3 404  ADP404     -0.1439
     19  C8       -33.8030   -7.9420  -23.7260 C.3   404  ADP404      0.3377
     20  N7       -32.8130   -8.8600  -23.6470 N.2   404  ADP404     -0.2095
     21  C5       -31.6510   -8.1860  -23.5600 C.2   404  ADP404      0.2526
     22  C6       -30.2130   -8.5520  -23.4470 C.2   404  ADP404      0.4393
     23  N6       -29.8220   -9.8520  -23.4100 N.pl3 404  ADP404      0.2180
     24  N1       -29.3110   -7.5390  -23.3850 N.2   404  ADP404      0.0021
     25  C2       -29.6840   -6.2410  -23.4230 C.3   404  ADP404      0.5254
     26  N3       -30.9720   -5.8410  -23.5210 N.2   404  ADP404     -0.0055
     27  C4       -31.9900   -6.7450  -23.5920 C.2   404  ADP404      0.3518
@<TRIPOS>BOND
     1    16    15    1
     2     3     1    2
     3    14    13    1
     4    15    13    1
     5    15    17    1
     6     2     1    1
     7     1     4    1
     8     1     8    1
     9    13    11    1
    10    17    18    1
    11    17    12    1
    12    19    18    1
    13    19    20    1
    14    18    27    1
    15    20    21    2
    16    27    21    1
    17    27    26    2
    18    21    22    1
    19    26    25    1
    20    22    23    1
    21    22    24    2
    22    25    24    1
    23     8     5    1
    24    11    12    1
    25    11    10    1
    26     9    10    1
    27     9     5    1
    28     5     7    2
    29     5     6    1
