@<TRIPOS>MOLECULE
2c3c_NAP_A_1.pdb
 48 52 0 0 0
SMALL
GASTEIGER

@<TRIPOS>ATOM
      1  PA        19.0430   -0.0120   33.8520 P.3   1526  NAP1526     0.2189
      2  O1A       17.7090   -0.2630   33.4240 O.2   1526  NAP1526    -0.5170
      3  O2A       19.9340   -1.0210   34.5860 O.3   1526  NAP1526    -0.4371
      4  O5B       19.1220    1.2920   34.7840 O.3   1526  NAP1526    -0.3112
      5  C5B       18.0850    2.2780   34.7110 C.3   1526  NAP1526     0.1813
      6  C4B       18.7800    3.5380   35.3330 C.3   1526  NAP1526     0.1820
      7  O4B       17.7350    4.6040   35.2620 O.3   1526  NAP1526    -0.3136
      8  C3B       19.0870    3.4390   36.8390 C.3   1526  NAP1526     0.2157
      9  O3B       20.2940    4.1630   37.0460 O.3   1526  NAP1526    -0.2175
     10  C2B       17.8710    4.0440   37.5170 C.3   1526  NAP1526     0.2314
     11  O2B       18.1200    4.5270   38.8130 O.3   1526  NAP1526    -0.2630
     12  C1B       17.4240    5.1440   36.5360 C.3   1526  NAP1526     0.3158
     13  N9A       16.0000    5.4450   36.6290 N.pl3 1526  NAP1526    -0.1439
     14  C8A       14.8930    4.7790   36.1710 C.3   1526  NAP1526     0.3377
     15  N7A       13.7360    5.3700   36.4460 N.2   1526  NAP1526    -0.2095
     16  C5A       14.1210    6.4920   37.1240 C.2   1526  NAP1526     0.2526
     17  C6A       13.3470    7.5300   37.6800 C.2   1526  NAP1526     0.4393
     18  N6A       11.9980    7.6400   37.6580 N.pl3 1526  NAP1526     0.2180
     19  N1A       14.0430    8.5770   38.3360 N.2   1526  NAP1526     0.0021
     20  C2A       15.4460    8.5790   38.4290 C.3   1526  NAP1526     0.5254
     21  N3A       16.2290    7.5590   37.8830 N.2   1526  NAP1526    -0.0055
     22  C4A       15.5280    6.5440   37.2440 C.2   1526  NAP1526     0.3518
     23  O3        19.9140    0.4620   32.5850 O.3   1526  NAP1526    -0.2703
     24  PN        19.9090    1.7070   31.5300 P.3   1526  NAP1526     0.2189
     25  O1N       21.2170    2.3700   31.5500 O.2   1526  NAP1526    -0.5170
     26  O2N       18.7950    2.5740   31.8930 O.3   1526  NAP1526    -0.4371
     27  O5D       19.6590    1.0260   30.1180 O.3   1526  NAP1526    -0.3112
     28  C5D       18.3880    0.3040   29.8450 C.3   1526  NAP1526     0.1813
     29  C4D       18.7360   -1.0610   29.2620 C.3   1526  NAP1526     0.1799
     30  O4D       19.7330   -0.8970   28.1790 O.3   1526  NAP1526    -0.3327
     31  C3D       19.3750   -2.0390   30.3000 C.3   1526  NAP1526     0.2158
     32  O3D       18.8430   -3.3830   30.2310 O.3   1526  NAP1526    -0.2175
     33  C2D       20.8490   -1.9170   29.9960 C.3   1526  NAP1526     0.2309
     34  O2D       21.6640   -2.9590   30.4530 O.3   1526  NAP1526    -0.2158
     35  C1D       20.9230   -1.7120   28.4990 C.3   1526  NAP1526     0.2263
     36  N1N       22.1810   -0.9740   28.1260 N.pl3 1526  NAP1526    -0.2787
     37  C2N       23.4110   -1.6910   27.8700 C.3   1526  NAP1526     0.1244
     38  C3N       24.5680   -0.9400   27.5500 C.2   1526  NAP1526     0.0544
     39  C7N       25.9140   -1.6750   27.2850 C.2   1526  NAP1526     0.2818
     40  O7N       26.8660   -0.9750   27.0190 O.2   1526  NAP1526    -0.2670
     41  N7N       26.0200   -2.9830   27.3430 N.am  1526  NAP1526    -0.0839
     42  C4N       24.5130    0.5410   27.4730 C.2   1526  NAP1526     0.0033
     43  C5N       23.2720    1.2150   27.7290 C.2   1526  NAP1526     0.0157
     44  C6N       22.0930    0.4800   28.0600 C.2   1526  NAP1526     0.0633
     45  P2B       18.1120    3.5910   40.1460 P.3   1526  NAP1526     0.5328
     46  O1X       18.4020    2.1810   39.7270 O.2   1526  NAP1526    -0.2224
     47  O2X       19.1770    4.2160   40.9330 O.3   1526  NAP1526    -0.1145
     48  O3X       16.7260    3.6770   40.6840 O.3   1526  NAP1526    -0.1145
@<TRIPOS>BOND
     1    40    39    2
     2    39    41   am
     3    39    38    1
     4    42    38    2
     5    42    43    1
     6    38    37    1
     7    43    44    2
     8    37    36    1
     9    44    36    1
    10    36    35    1
    11    30    35    1
    12    30    29    1
    13    35    33    1
    14    29    28    1
    15    29    31    1
    16    28    27    1
    17    33    31    1
    18    33    34    1
    19    27    24    1
    20    32    31    1
    21    24    25    2
    22    24    26    1
    23    24    23    1
    24    23     1    1
    25     2     1    2
    26     1     3    1
    27     1     4    1
    28     5     4    1
    29     5     6    1
    30     7     6    1
    31     7    12    1
    32     6     8    1
    33    14    15    1
    34    14    13    1
    35    15    16    2
    36    12    13    1
    37    12    10    1
    38    13    22    1
    39     8     9    1
    40     8    10    1
    41    16    22    1
    42    16    17    1
    43    22    21    2
    44    10    11    1
    45    18    17    1
    46    17    19    2
    47    21    20    1
    48    19    20    1
    49    11    45    1
    50    46    45    2
    51    45    48    1
    52    45    47    1
