@<TRIPOS>MOLECULE
2c3h_GLC_A_1.pdb
 12 12 0 0 0
SMALL
GASTEIGER

@<TRIPOS>ATOM
      1  C1       -19.3870   34.3040   53.5650 C.3   201  GLC201      0.3024
      2  C2       -18.5470   35.5750   53.6220 C.3   201  GLC201      0.2434
      3  C3       -18.6310   36.3070   52.2930 C.3   201  GLC201      0.2199
      4  C4       -18.1500   35.3610   51.2050 C.3   201  GLC201      0.2144
      5  C5       -19.0040   34.1080   51.1910 C.3   201  GLC201      0.1836
      6  C6       -18.5100   33.1530   50.1150 C.3   201  GLC201      0.2142
      7  O1       -20.7640   34.6230   53.4590 O.3   201  GLC201     -0.1869
      8  O2       -18.9810   36.4180   54.6650 O.3   201  GLC201     -0.2148
      9  O3       -17.8740   37.5170   52.2240 O.3   201  GLC201     -0.2174
     10  O4       -18.3300   36.0560   49.9990 O.3   201  GLC201     -0.2176
     11  O5       -18.9930   33.4740   52.4710 O.3   201  GLC201     -0.3236
     12  O6       -19.3120   31.9790   50.0290 O.3   201  GLC201     -0.2176
@<TRIPOS>BOND
     1    10     4    1
     2    12     6    1
     3     6     5    1
     4     5     4    1
     5     5    11    1
     6     4     3    1
     7     9     3    1
     8     3     2    1
     9    11     1    1
    10     7     1    1
    11     1     2    1
    12     2     8    1
