@<TRIPOS>MOLECULE
2c3i_IYZ_B_1.pdb
 23 26 0 0 0
SMALL
GASTEIGER

@<TRIPOS>ATOM
      1  CAJ       28.5410   50.6080   -2.6660 C.3   1306  IYZ1306     0.0018
      2  CAK       28.2110   50.7480   -4.1470 C.3   1306  IYZ1306     0.0018
      3  CAV       27.1030   50.4290   -3.1460 C.3   1306  IYZ1306     0.0217
      4  CAL       26.2020   51.6250   -2.8340 C.3   1306  IYZ1306     0.1138
      5  NAO       27.0630   52.6920   -2.2940 N.pl3 1306  IYZ1306    -0.2189
      6  CAS       27.1300   52.9170   -1.0060 C.ar  1306  IYZ1306     0.1678
      7  CAF       27.4470   54.2010   -0.6080 C.ar  1306  IYZ1306     0.0407
      8  CAG       27.5020   54.4500    0.7490 C.ar  1306  IYZ1306     0.0418
      9  NAN       26.8670   51.9210   -0.1470 N.ar  1306  IYZ1306    -0.1472
     10  NAW       26.9220   52.1300    1.0650 N.ar  1306  IYZ1306    -0.2095
     11  CAU       27.2480   53.3960    1.5850 C.ar  1306  IYZ1306     0.1640
     12  NAM       27.2170   53.3200    2.8880 N.ar  1306  IYZ1306    -0.2234
     13  CAH       26.8950   52.0880    3.2510 C.ar  1306  IYZ1306     0.1197
     14  CAT       26.7330   51.3480    2.1640 C.ar  1306  IYZ1306     0.1036
     15  CAR       26.3480   50.0310    2.1260 C.ar  1306  IYZ1306     0.0194
     16  CAI       26.2150   49.3220    0.9430 C.ar  1306  IYZ1306     0.0044
     17  CAE       26.0300   49.4470    3.3460 C.ar  1306  IYZ1306     0.0015
     18  CAC       25.5900   48.1320    3.4240 C.ar  1306  IYZ1306     0.0001
     19  CAD       25.4830   47.4200    2.2460 C.ar  1306  IYZ1306     0.0028
     20  CAQ       25.8030   48.0170    1.0350 C.ar  1306  IYZ1306     0.0348
     21  CAP       25.6390   47.1570   -0.1820 C.2   1306  IYZ1306     0.1735
     22  CAA       25.6130   47.7330   -1.6030 C.3   1306  IYZ1306     0.0773
     23  OAB       25.5090   45.9580    0.0200 O.2   1306  IYZ1306    -0.2913
@<TRIPOS>BOND
     1     2     3    1
     2     2     1    1
     3     3     4    1
     4     3     1    1
     5     4     5    1
     6     5     6    1
     7    22    21    1
     8     6     7   ar
     9     6     9   ar
    10     7     8   ar
    11    21    23    2
    12    21    20    1
    13     9    10   ar
    14     8    11   ar
    15    16    20   ar
    16    16    15   ar
    17    20    19   ar
    18    10    11   ar
    19    10    14   ar
    20    11    12   ar
    21    15    14    1
    22    15    17   ar
    23    14    13   ar
    24    19    18   ar
    25    12    13   ar
    26    17    18   ar
