@<TRIPOS>MOLECULE
2c3j_DBQ_A_1.pdb
 18 20 0 0 0
SMALL
GASTEIGER

@<TRIPOS>ATOM
      1  O1         3.8910   -1.6130   20.6180 O.2   1271  DBQ1271    -0.2207
      2  C5         4.6820   -2.1690   19.8560 C.1   1271  DBQ1271     0.1675
      3  N2         5.8350   -1.5040   19.6480 N.2   1271  DBQ1271    -0.2013
      4  C6         6.9320   -1.9230   18.7260 C.3   1271  DBQ1271     0.1387
      5  C7         7.2570   -3.4210   18.7060 C.3   1271  DBQ1271     0.0395
      6  C4         4.2260   -3.4420   19.1550 C.2   1271  DBQ1271     0.1549
      7  N1         2.9680   -3.8670   19.2840 N.2   1271  DBQ1271    -0.2545
      8  C1         2.8680   -4.9560   18.5270 C.3   1271  DBQ1271     0.1522
      9  C2         4.0210   -5.1950   17.9190 C.2   1271  DBQ1271    -0.0017
     10  C3         4.9030   -4.2910   18.2760 C.2   1271  DBQ1271     0.0111
     11  C8         6.2330   -4.1570   17.8520 C.3   1271  DBQ1271     0.0922
     12  C9         6.6440   -4.6530   16.5770 C.2   1271  DBQ1271     0.2204
     13  N4         5.8280   -5.0760   15.5920 N.2   1271  DBQ1271    -0.3165
     14  C11        6.5780   -5.4850   14.5490 C.1   1271  DBQ1271     0.2523
     15  N5         6.0800   -5.9690   13.3800 N.pl3 1271  DBQ1271    -0.0226
     16  N3         7.8860   -5.3230   14.8290 N.2   1271  DBQ1271    -0.2479
     17  C10        7.9630   -4.7940   16.0580 C.1   1271  DBQ1271     0.2428
     18  O2         9.0500   -4.4800   16.5640 O.2   1271  DBQ1271    -0.2062
@<TRIPOS>BOND
     1    15    14    1
     2    14    16    2
     3    14    13    2
     4    16    17    2
     5    13    12    2
     6    17    18    2
     7    17    12    1
     8    12    11    1
     9    11    10    1
    10    11     5    1
    11     9    10    2
    12     9     8    1
    13    10     6    1
    14     8     7    1
    15     5     4    1
    16     4     3    1
    17     6     7    2
    18     6     2    1
    19     3     2    2
    20     2     1    2
