@<TRIPOS>MOLECULE
2c3k_ABO_A_1.pdb
 27 31 0 0 0
SMALL
GASTEIGER

@<TRIPOS>ATOM
      1  C18       11.2310   -0.1250   15.1820 C.3   1271  ABO1271     0.2526
      2  O17       11.8930   -1.4760   15.0520 O.3   1271  ABO1271    -0.4682
      3  C12       11.1870   -2.6100   15.4600 C.ar  1271  ABO1271     0.1774
      4  C11        9.9570   -2.5380   16.1460 C.ar  1271  ABO1271     0.0399
      5  C13       11.7240   -3.8680   15.1770 C.ar  1271  ABO1271     0.2293
      6  O16       12.9170   -3.9530   14.5240 O.3   1271  ABO1271    -0.2833
      7  C14       11.0670   -5.0410   15.5660 C.ar  1271  ABO1271     0.0452
      8  C15        9.8320   -4.9620   16.2470 C.ar  1271  ABO1271     0.0032
      9  C10        9.2670   -3.7090   16.5360 C.ar  1271  ABO1271    -0.0004
     10  C8         8.0420   -3.6070   17.1980 C.2   1271  ABO1271    -0.0160
     11  C9         7.8340   -2.5150   18.0840 C.3   1271  ABO1271     0.0740
     12  C7         7.0320   -4.5550   16.9740 C.2   1271  ABO1271    -0.0038
     13  C6         5.8090   -4.4260   17.6510 C.2   1271  ABO1271     0.0032
     14  C5         5.5940   -3.3580   18.5350 C.2   1271  ABO1271     0.0466
     15  C4         6.6090   -2.4110   18.7520 C.2   1271  ABO1271     0.0871
     16  N3         6.1230   -1.5090   19.6460 N.2   1271  ABO1271    -0.1513
     17  N1         4.9440   -1.7580   19.9970 N.2   1271  ABO1271    -0.1360
     18  C2         4.5470   -2.9170   19.3950 C.2   1271  ABO1271     0.1887
     19  C19        3.2700   -3.4680   19.5110 C.1   1271  ABO1271     0.1583
     20  N21        2.8070   -4.6480   19.0080 N.2   1271  ABO1271    -0.3360
     21  C22        1.4830   -4.7110   19.3330 C.ar  1271  ABO1271     0.1741
     22  C27        0.5210   -5.6750   19.1010 C.ar  1271  ABO1271     0.0357
     23  C26       -0.8230   -5.5190   19.5170 C.ar  1271  ABO1271     0.0028
     24  C25       -1.1880   -4.3380   20.2210 C.ar  1271  ABO1271     0.0028
     25  C24       -0.1840   -3.3420   20.4740 C.ar  1271  ABO1271     0.0357
     26  C23        1.1250   -3.5390   20.0150 C.ar  1271  ABO1271     0.1741
     27  N20        2.2350   -2.7870   20.1170 N.2   1271  ABO1271    -0.3360
@<TRIPOS>BOND
     1     6     5    1
     2     2     1    1
     3     2     3    1
     4     5     3   ar
     5     5     7   ar
     6     3     4   ar
     7     7     8   ar
     8     4     9   ar
     9     8     9   ar
    10     9    10    1
    11    12    10    2
    12    12    13    1
    13    10    11    1
    14    13    14    2
    15    11    15    1
    16    14    15    1
    17    14    18    1
    18    15    16    2
    19    20    21    2
    20    20    19    2
    21    22    21   ar
    22    22    23   ar
    23    21    26   ar
    24    18    19    1
    25    18    17    2
    26    19    27    2
    27    23    24   ar
    28    16    17    1
    29    26    27    2
    30    26    25   ar
    31    24    25   ar
