@<TRIPOS>MOLECULE
2c3l_IDZ_A_1.pdb
 18 21 0 0 0
SMALL
GASTEIGER

@<TRIPOS>ATOM
      1  C1        12.9690   -1.0580   10.5270 C.2   1274  IDZ1274     0.0167
      2  C2        12.9210   -2.2890   11.1980 C.2   1274  IDZ1274    -0.0198
      3  C3        14.0700   -3.0830   11.2980 C.3   1274  IDZ1274     0.0522
      4  C4        15.2760   -2.6510   10.7470 C.2   1274  IDZ1274    -0.0176
      5  C5        15.3220   -1.4250   10.1210 C.2   1274  IDZ1274     0.0465
      6  C6        16.3020   -0.6970    9.4410 C.2   1274  IDZ1274     0.1887
      7  C7        17.6240   -1.0920    9.2810 C.1   1274  IDZ1274     0.1583
      8  N8        18.5490   -0.3310    8.6630 N.2   1274  IDZ1274    -0.3360
      9  C9        19.6850   -0.9910    8.6940 C.ar  1274  IDZ1274     0.1741
     10  C10       20.9490   -0.6950    8.1820 C.ar  1274  IDZ1274     0.0357
     11  C11       21.9990   -1.6140    8.3680 C.ar  1274  IDZ1274     0.0028
     12  C12       21.7500   -2.8210    9.0310 C.ar  1274  IDZ1274     0.0028
     13  C13       20.4750   -3.1150    9.5490 C.ar  1274  IDZ1274     0.0357
     14  C14       19.4410   -2.1870    9.3850 C.ar  1274  IDZ1274     0.1741
     15  N16       14.5550    0.4580    9.3040 N.2   1274  IDZ1274    -0.1472
     16  C17       14.1830   -0.6430    9.9890 C.2   1274  IDZ1274     0.1045
     17  NAL       18.1490   -2.2240    9.7200 N.2   1274  IDZ1274    -0.3360
     18  NAI       15.7710    0.4450    8.9830 N.2   1274  IDZ1274    -0.1357
@<TRIPOS>BOND
     1    10    11   ar
     2    10     9   ar
     3    11    12   ar
     4     8     9    2
     5     8     7    2
     6     9    14   ar
     7    18    15    1
     8    18     6    2
     9    12    13   ar
    10     7     6    1
    11     7    17    2
    12    15    16    2
    13    14    13   ar
    14    14    17    2
    15     6     5    1
    16    16     5    1
    17    16     1    1
    18     5     4    2
    19     1     2    2
    20     4     3    1
    21     2     3    1
