@<TRIPOS>MOLECULE
2c3m_TPP_A_1.pdb
 26 27 0 0 0
SMALL
GASTEIGER

@<TRIPOS>ATOM
      1  N1'      -27.1730  -63.1690   25.4730 N.2   2236  TPP2236    -0.1861
      2  C2'      -25.9090  -63.4300   25.9950 C.1   2236  TPP2236     0.0663
      3  CM2      -25.2040  -62.3190   26.7720 C.3   2236  TPP2236     0.1291
      4  N3'      -25.3050  -64.6670   25.8280 N.2   2236  TPP2236    -0.3368
      5  C4'      -25.9840  -65.6420   25.1160 C.2   2236  TPP2236     0.2292
      6  N4'      -25.3030  -66.8370   25.0090 N.pl3 2236  TPP2236    -0.0925
      7  C5'      -27.3640  -65.4410   24.4770 C.2   2236  TPP2236     0.0654
      8  C6'      -27.9080  -64.1460   24.7180 C.2   2236  TPP2236     0.1115
      9  C7'      -28.0500  -66.5020   23.6890 C.3   2236  TPP2236     0.1237
     10  N3       -27.4700  -66.7320   22.3030 N.pl3 2236  TPP2236    -0.2970
     11  C2       -26.3200  -67.4920   22.0880 C.3   2236  TPP2236     0.1543
     12  S1       -25.9180  -67.6230   20.4480 S.3   2236  TPP2236    -0.0951
     13  C5       -27.3310  -66.6650   20.0340 C.2   2236  TPP2236     0.0164
     14  C4       -28.0870  -66.2120   21.0940 C.2   2236  TPP2236     0.0279
     15  CM4      -29.3920  -65.3250   21.0310 C.3   2236  TPP2236     0.0473
     16  C6       -27.6170  -66.4300   18.5340 C.3   2236  TPP2236     0.0661
     17  C7       -26.4620  -66.6300   17.5960 C.3   2236  TPP2236     0.1544
     18  O7       -26.8470  -66.1620   16.3360 O.3   2236  TPP2236    -0.3134
     19  PA       -25.6490  -66.0070   15.2910 P.3   2236  TPP2236     0.2230
     20  O1A      -24.6060  -65.0380   15.8410 O.3   2236  TPP2236    -0.4370
     21  O2A      -26.3080  -65.4940   14.0420 O.2   2236  TPP2236    -0.5169
     22  O3A      -25.0210  -67.4120   15.0060 O.3   2236  TPP2236    -0.2261
     23  PB       -25.7470  -68.7550   14.3120 P.3   2236  TPP2236     0.5373
     24  O1B      -26.8610  -68.1710   13.4220 O.2   2236  TPP2236    -0.2221
     25  O2B      -24.6260  -69.3030   13.4770 O.3   2236  TPP2236    -0.1143
     26  O3B      -26.2510  -69.6930   15.3880 O.3   2236  TPP2236    -0.1143
@<TRIPOS>BOND
     1    24    23    2
     2    25    23    1
     3    21    19    2
     4    23    22    1
     5    23    26    1
     6    22    19    1
     7    19    20    1
     8    19    18    1
     9    18    17    1
    10    17    16    1
    11    16    13    1
    12    13    12    1
    13    13    14    2
    14    12    11    1
    15    15    14    1
    16    14    10    1
    17    11    10    1
    18    10     9    1
    19     9     7    1
    20     7     8    2
    21     7     5    1
    22     8     1    1
    23     6     5    1
    24     5     4    2
    25     1     2    2
    26     4     2    2
    27     2     3    1
