@<TRIPOS>MOLECULE
2c3o_TPP_A_1.pdb
 26 27 0 0 0
SMALL
GASTEIGER

@<TRIPOS>ATOM
      1  N1'      -26.9510  -65.1610   22.9010 N.2   2236  TPP2236    -0.1861
      2  C2'      -25.6660  -65.3670   23.4670 C.1   2236  TPP2236     0.0663
      3  CM2      -25.1550  -64.3070   24.4190 C.3   2236  TPP2236     0.1291
      4  N3'      -24.9150  -66.5330   23.1410 N.2   2236  TPP2236    -0.3368
      5  C4'      -25.5220  -67.5050   22.2160 C.2   2236  TPP2236     0.2292
      6  N4'      -24.7510  -68.6080   21.9560 N.pl3 2236  TPP2236    -0.0925
      7  C5'      -26.8820  -67.3340   21.5930 C.2   2236  TPP2236     0.0654
      8  C6'      -27.5420  -66.1050   21.9930 C.2   2236  TPP2236     0.1115
      9  C7'      -27.5340  -68.2960   20.6810 C.3   2236  TPP2236     0.1237
     10  N3       -27.2070  -68.3760   19.2430 N.pl3 2236  TPP2236    -0.2970
     11  C2       -26.1790  -69.1320   18.8450 C.3   2236  TPP2236     0.1543
     12  S1       -25.9630  -69.1770   17.1620 S.3   2236  TPP2236    -0.0951
     13  C5       -27.3150  -68.1060   16.9300 C.2   2236  TPP2236     0.0164
     14  C4       -27.9320  -67.7170   18.1150 C.2   2236  TPP2236     0.0279
     15  CM4      -29.1700  -66.8040   18.2900 C.3   2236  TPP2236     0.0473
     16  C6       -27.6480  -67.7700   15.4640 C.3   2236  TPP2236     0.0661
     17  C7       -26.6690  -68.0550   14.3440 C.3   2236  TPP2236     0.1544
     18  O7       -26.6960  -66.9070   13.5710 O.3   2236  TPP2236    -0.3134
     19  PA       -25.7190  -66.6040   12.3930 P.3   2236  TPP2236     0.2230
     20  O1A      -24.5740  -65.7950   12.8940 O.3   2236  TPP2236    -0.4370
     21  O2A      -26.4930  -65.8610   11.3910 O.2   2236  TPP2236    -0.5169
     22  O3A      -25.1630  -67.9000   11.6860 O.3   2236  TPP2236    -0.2261
     23  PB       -25.7600  -69.1460   10.9480 P.3   2236  TPP2236     0.5373
     24  O1B      -26.8690  -68.6120   10.0810 O.2   2236  TPP2236    -0.2221
     25  O2B      -24.5540  -69.6140   10.1810 O.3   2236  TPP2236    -0.1143
     26  O3B      -26.2830  -70.1670   11.9030 O.3   2236  TPP2236    -0.1143
@<TRIPOS>BOND
     1    24    23    2
     2    25    23    1
     3    23    22    1
     4    23    26    1
     5    21    19    2
     6    22    19    1
     7    19    20    1
     8    19    18    1
     9    18    17    1
    10    17    16    1
    11    16    13    1
    12    13    12    1
    13    13    14    2
    14    12    11    1
    15    14    15    1
    16    14    10    1
    17    11    10    1
    18    10     9    1
    19     9     7    1
    20     7     8    2
    21     7     5    1
    22     6     5    1
    23     8     1    1
    24     5     4    2
    25     1     2    2
    26     4     2    2
    27     2     3    1
