@<TRIPOS>MOLECULE
2c3p_1TP_A_1.pdb
 32 32 0 0 0
SMALL
GASTEIGER

@<TRIPOS>ATOM
      1  N1'      -27.0410  -63.5640   25.3430 N.2   2236  1TP2236    -0.1861
      2  C2'      -25.7250  -63.6860   25.8220 C.1   2236  1TP2236     0.0663
      3  C2A      -24.9940  -62.6010   26.5530 C.3   2236  1TP2236     0.1291
      4  N3'      -25.1240  -64.8250   25.6500 N.2   2236  1TP2236    -0.3368
      5  C4'      -25.7000  -65.9490   25.0090 C.2   2236  1TP2236     0.2289
      6  N4'      -24.8940  -67.0230   24.9580 N.pl3 2236  1TP2236    -0.0925
      7  C5'      -27.0360  -65.8740   24.4640 C.2   2236  1TP2236     0.0616
      8  C6'      -27.6580  -64.6480   24.6710 C.2   2236  1TP2236     0.1112
      9  C7'      -27.7110  -66.9630   23.7280 C.3   2236  1TP2236     0.1054
     10  N3       -26.9970  -67.1570   22.4160 N.3   2236  1TP2236    -0.2601
     11  C2       -26.4060  -68.6550   22.2630 C.3   2236  1TP2236     0.1316
     12  S1       -26.4150  -68.9520   20.6050 S.3   2236  1TP2236    -0.1220
     13  C5       -26.6180  -67.1710   20.2160 C.3   2236  1TP2236     0.0661
     14  C4       -27.4720  -66.6680   21.2590 C.3   2236  1TP2236     0.0686
     15  C4A      -28.7190  -65.6340   21.0940 C.3   2236  1TP2236     0.0183
     16  C5A      -27.3680  -67.1490   18.7810 C.3   2236  1TP2236     0.0447
     17  C5B      -26.3710  -67.0800   17.7500 C.3   2236  1TP2236     0.1501
     18  O5G      -26.5480  -66.3400   16.6140 O.3   2236  1TP2236    -0.3138
     19  P1       -25.6340  -66.1500   15.3720 P.3   2236  1TP2236     0.2230
     20  O11      -25.1050  -67.5400   15.1420 O.3   2236  1TP2236    -0.2261
     21  O12      -24.5110  -65.3820   15.8610 O.3   2236  1TP2236    -0.4370
     22  O13      -26.4160  -65.6130   14.2580 O.2   2236  1TP2236    -0.5169
     23  P2       -25.7580  -68.8570   14.4520 P.3   2236  1TP2236     0.5373
     24  O21      -26.2380  -69.7830   15.6720 O.3   2236  1TP2236    -0.1143
     25  O22      -24.7500  -69.5790   13.7490 O.3   2236  1TP2236    -0.1143
     26  O23      -26.9090  -68.3100   13.6440 O.2   2236  1TP2236    -0.2221
     27  O25      -26.0440  -69.5310   25.0130 O.3   2236  1TP2236    -0.2109
     28  C35      -25.7050  -71.6050   23.2920 C.3   2236  1TP2236     0.0479
     29  C25      -28.2470  -70.7020   23.7970 C.2   2236  1TP2236     0.3946
     30  O35      -28.8610  -71.6530   22.8070 O.co2 2236  1TP2236    -0.2428
     31  O45      -28.9120  -69.9710   24.5490 O.co2 2236  1TP2236    -0.2428
     32  C15      -26.5310  -70.2080   23.6530 C.3   2236  1TP2236     0.2541
@<TRIPOS>BOND
     1    26    23    2
     2    25    23    1
     3    22    19    2
     4    23    20    1
     5    23    24    1
     6    20    19    1
     7    19    21    1
     8    19    18    1
     9    18    17    1
    10    17    16    1
    11    16    13    1
    12    13    12    1
    13    13    14    1
    14    12    11    1
    15    15    14    1
    16    14    10    1
    17    11    10    1
    18    10     9    1
    19    30    29   ar
    20    28    32    1
    21    32    29    1
    22    32    27    1
    23     9     7    1
    24    29    31   ar
    25     7     8    2
    26     7     5    1
    27     8     1    1
    28     6     5    1
    29     5     4    2
    30     1     2    2
    31     4     2    2
    32     2     3    1
