@<TRIPOS>MOLECULE
2c3q_GTX_A_1.pdb
 26 25 0 0 0
SMALL
GASTEIGER

@<TRIPOS>ATOM
      1  N1         0.6180  -20.1660  -21.1320 N.3   301  GTX301     -0.1208
      2  CA1        0.1080  -18.8140  -21.3360 C.3   301  GTX301      0.1948
      3  C1         0.7500  -18.2000  -22.5510 C.2   301  GTX301      0.3819
      4  O11        1.8990  -18.5760  -22.8990 O.co2 301  GTX301     -0.2441
      5  O12        0.1640  -17.3100  -23.1990 O.co2 301  GTX301     -0.2441
      6  CB1        0.3770  -17.9320  -20.1330 C.3   301  GTX301      0.0402
      7  CG1       -0.7690  -16.8950  -20.0800 C.3   301  GTX301      0.0889
      8  CD1       -0.6540  -16.1650  -18.7830 C.2   301  GTX301      0.2418
      9  OE1       -0.8540  -16.8780  -17.6290 O.2   301  GTX301     -0.2733
     10  N2        -0.4040  -14.8720  -18.7900 N.am  301  GTX301     -0.1969
     11  CA2       -0.1370  -14.1720  -17.5530 C.3   301  GTX301      0.1834
     12  C2        -1.2960  -13.3130  -17.1260 C.2   301  GTX301      0.2626
     13  O2        -1.8730  -12.4590  -18.0510 O.2   301  GTX301     -0.2714
     14  CB2        1.1300  -13.3740  -17.7720 C.3   301  GTX301      0.0886
     15  SG2        1.4110  -12.0210  -16.6130 S.3   301  GTX301     -0.1379
     16  C1S        1.7670  -13.0120  -15.1360 C.3   301  GTX301      0.0576
     17  C2S        1.5370  -12.2660  -13.8020 C.3   301  GTX301      0.0116
     18  C3S        0.4150  -11.2200  -13.7890 C.3   301  GTX301      0.0009
     19  C4S        0.2810  -10.5140  -12.4370 C.3   301  GTX301      0.0000
     20  C5S       -0.3030   -9.1110  -12.5820 C.3   301  GTX301      0.0000
     21  C6S        0.7130   -8.0370  -12.1890 C.3   301  GTX301      0.0000
     22  N3        -1.7020  -13.4100  -15.8770 N.am  301  GTX301     -0.1917
     23  CA3       -2.7930  -12.6010  -15.3680 C.3   301  GTX301      0.2285
     24  C3        -3.6110  -13.2950  -14.3190 C.2   301  GTX301      0.3865
     25  O31       -4.2610  -12.6040  -13.5240 O.co2 301  GTX301     -0.2437
     26  O32       -3.6390  -14.5340  -14.2220 O.co2 301  GTX301     -0.2437
@<TRIPOS>BOND
     1     5     3   ar
     2     4     3   ar
     3     3     2    1
     4     2     1    1
     5     2     6    1
     6     6     7    1
     7     7     8    1
     8    10     8   am
     9    10    11    1
    10     8     9    2
    11    13    12    2
    12    14    11    1
    13    14    15    1
    14    11    12    1
    15    12    22   am
    16    15    16    1
    17    22    23    1
    18    23    24    1
    19    16    17    1
    20    24    26   ar
    21    24    25   ar
    22    17    18    1
    23    18    19    1
    24    20    19    1
    25    20    21    1
