@<TRIPOS>MOLECULE
2c3u_2TP_A_1.pdb
 27 28 0 0 0
SMALL
GASTEIGER

@<TRIPOS>ATOM
      1  N1'      -27.0830  -63.5100   25.8850 N.2   2236  2TP2236    -0.1861
      2  C2'      -25.8370  -63.7840   26.3980 C.1   2236  2TP2236     0.0666
      3  C2A      -25.0950  -62.6940   27.2870 C.3   2236  2TP2236     0.1291
      4  N3'      -25.2620  -65.0440   26.1630 N.2   2236  2TP2236    -0.3334
      5  C4'      -25.8920  -66.0420   25.4410 C.2   2236  2TP2236     0.2503
      6  N4'      -25.2320  -67.3140   25.3930 N.4   2236  2TP2236    -0.0631
      7  C5'      -27.2130  -65.8260   24.8050 C.2   2236  2TP2236     0.0686
      8  C6'      -27.7780  -64.4750   25.0960 C.2   2236  2TP2236     0.1118
      9  C35      -27.9530  -66.8270   24.0010 C.3   2236  2TP2236     0.1240
     10  N3       -27.4410  -67.1390   22.6670 N.pl3 2236  2TP2236    -0.2970
     11  C2       -26.3540  -67.9650   22.4690 C.3   2236  2TP2236     0.1543
     12  S1       -26.0160  -68.2090   20.8310 S.3   2236  2TP2236    -0.0951
     13  C5       -27.4090  -67.1690   20.3420 C.2   2236  2TP2236     0.0164
     14  C4       -28.1050  -66.6330   21.4050 C.2   2236  2TP2236     0.0279
     15  C4A      -29.3560  -65.7410   21.3420 C.3   2236  2TP2236     0.0473
     16  C5A      -27.6860  -67.0370   18.7910 C.3   2236  2TP2236     0.0661
     17  C5B      -26.4230  -66.9790   17.9300 C.3   2236  2TP2236     0.1544
     18  O5G      -26.7580  -66.5010   16.6390 O.3   2236  2TP2236    -0.3134
     19  P1       -25.6120  -66.4000   15.5370 P.3   2236  2TP2236     0.2230
     20  O11      -25.0010  -67.7490   15.2610 O.3   2236  2TP2236    -0.2261
     21  O12      -26.3250  -65.7770   14.2460 O.2   2236  2TP2236    -0.5169
     22  O13      -24.5630  -65.4850   16.1400 O.3   2236  2TP2236    -0.4370
     23  P2       -25.7400  -69.1650   14.6400 P.3   2236  2TP2236     0.5373
     24  O21      -26.9580  -68.5940   13.7940 O.2   2236  2TP2236    -0.2221
     25  O22      -24.7330  -69.8010   13.8200 O.3   2236  2TP2236    -0.1143
     26  O23      -26.1270  -70.0140   15.7950 O.3   2236  2TP2236    -0.1143
     27  O4'      -23.7070  -67.5900   25.7440 O.3   2236  2TP2236    -0.0579
@<TRIPOS>BOND
     1    24    23    2
     2    25    23    1
     3    21    19    2
     4    23    20    1
     5    23    26    1
     6    20    19    1
     7    19    22    1
     8    19    18    1
     9    18    17    1
    10    17    16    1
    11    16    13    1
    12    13    12    1
    13    13    14    2
    14    12    11    1
    15    15    14    1
    16    14    10    1
    17    11    10    1
    18    10     9    1
    19     9     7    1
    20     7     8    2
    21     7     5    1
    22     8     1    1
    23     6     5    1
    24     6    27    1
    25     5     4    2
    26     1     2    2
    27     4     2    2
    28     2     3    1
