@<TRIPOS>MOLECULE
2c3w_GLC_A_1.pdb
 12 12 0 0 0
SMALL
GASTEIGER

@<TRIPOS>ATOM
      1  C1        15.2120   -5.5110   29.7150 C.3   1103  GLC1103     0.3024
      2  C2        14.4690   -6.1720   28.5060 C.3   1103  GLC1103     0.2434
      3  C3        15.2490   -6.1790   27.1990 C.3   1103  GLC1103     0.2199
      4  C4        15.7050   -4.7340   26.9050 C.3   1103  GLC1103     0.2144
      5  C5        16.4510   -4.2120   28.1470 C.3   1103  GLC1103     0.1836
      6  C6        16.9770   -2.8070   27.9760 C.3   1103  GLC1103     0.2142
      7  O1        16.3140   -6.3010   30.0540 O.3   1103  GLC1103    -0.1869
      8  O2        13.9160   -7.4640   28.9170 O.3   1103  GLC1103    -0.2148
      9  O3        14.4480   -6.6810   26.1580 O.3   1103  GLC1103    -0.2174
     10  O4        16.6510   -4.6620   25.8770 O.3   1103  GLC1103    -0.2176
     11  O5        15.6910   -4.2630   29.3270 O.3   1103  GLC1103    -0.3236
     12  O6        17.8260   -2.5460   29.1040 O.3   1103  GLC1103    -0.2176
@<TRIPOS>BOND
     1    10     4    1
     2     9     3    1
     3     4     3    1
     4     4     5    1
     5     3     2    1
     6     6     5    1
     7     6    12    1
     8     5    11    1
     9     2     8    1
    10     2     1    1
    11    11     1    1
    12     1     7    1
