@<TRIPOS>MOLECULE
2c3x_GLC_A_1.pdb
 11 11 0 0 0
SMALL
GASTEIGER

@<TRIPOS>ATOM
      1  C1         4.9640   41.3550   76.3480 C.3   1103  GLC1103     0.1777
      2  C2         5.1680   42.8470   76.1510 C.3   1103  GLC1103     0.2141
      3  C3         3.9220   43.4760   75.5510 C.3   1103  GLC1103     0.2173
      4  C4         3.5130   42.7600   74.2670 C.3   1103  GLC1103     0.2142
      5  C5         3.5540   41.2490   74.4680 C.3   1103  GLC1103     0.1810
      6  C6         3.4060   40.5580   73.1190 C.3   1103  GLC1103     0.2141
      7  O2         5.3410   43.4280   77.4020 O.3   1103  GLC1103    -0.2176
      8  O3         4.1250   44.8590   75.3350 O.3   1103  GLC1103    -0.2175
      9  O4         2.1700   43.1290   74.0000 O.3   1103  GLC1103    -0.2176
     10  O5         4.7460   40.8180   75.0800 O.3   1103  GLC1103    -0.3481
     11  O6         3.5020   39.1480   73.1960 O.3   1103  GLC1103    -0.2176
@<TRIPOS>BOND
     1     6    11    1
     2     6     5    1
     3     9     4    1
     4     4     5    1
     5     4     3    1
     6     5    10    1
     7    10     1    1
     8     8     3    1
     9     3     2    1
    10     2     1    1
    11     2     7    1
