@<TRIPOS>MOLECULE
2c3y_HTL_A_1.pdb
 29 30 0 0 0
SMALL
GASTEIGER

@<TRIPOS>ATOM
      1  N1'      -27.2480  -63.5890   25.2760 N.2   2236  HTL2236    -0.1861
      2  C2'      -25.9170  -63.7140   25.8360 C.1   2236  HTL2236     0.0663
      3  C2A      -25.2380  -62.6230   26.5650 C.3   2236  HTL2236     0.1291
      4  N3'      -25.2350  -64.9020   25.6850 N.2   2236  HTL2236    -0.3368
      5  C4'      -25.7890  -66.0310   25.0020 C.2   2236  HTL2236     0.2289
      6  N4'      -25.0120  -67.0750   24.9450 N.pl3 2236  HTL2236    -0.0925
      7  C5'      -27.1630  -65.9920   24.4030 C.2   2236  HTL2236     0.0616
      8  C6'      -27.8310  -64.7330   24.5770 C.2   2236  HTL2236     0.1112
      9  C35      -27.7520  -67.1800   23.6770 C.3   2236  HTL2236     0.1055
     10  N3       -26.9340  -67.3970   22.4360 N.3   2236  HTL2236    -0.2598
     11  C2       -26.2210  -68.8000   22.2620 C.3   2236  HTL2236     0.1370
     12  S1       -26.3520  -69.3650   20.6470 S.3   2236  HTL2236    -0.1218
     13  C5       -26.6500  -67.6660   20.1160 C.3   2236  HTL2236     0.0661
     14  C4       -27.3900  -66.9410   21.1990 C.3   2236  HTL2236     0.0686
     15  C4A      -28.4030  -65.8770   20.9440 C.3   2236  HTL2236     0.0183
     16  C5A      -27.2690  -67.5990   18.6420 C.3   2236  HTL2236     0.0447
     17  C5B      -26.3830  -66.7710   17.7960 C.3   2236  HTL2236     0.1501
     18  O5G      -26.7090  -66.5400   16.4570 O.3   2236  HTL2236    -0.3138
     19  P1       -25.7310  -66.1550   15.2790 P.3   2236  HTL2236     0.2230
     20  O11      -25.1490  -67.6030   15.0270 O.3   2236  HTL2236    -0.2261
     21  O12      -26.4490  -65.6590   14.0900 O.2   2236  HTL2236    -0.5169
     22  O13      -24.6420  -65.2710   15.8740 O.3   2236  HTL2236    -0.4370
     23  P2       -25.8150  -68.9330   14.4160 P.3   2236  HTL2236     0.5373
     24  O21      -24.7210  -69.4750   13.4910 O.2   2236  HTL2236    -0.2221
     25  O22      -26.2770  -69.7710   15.5420 O.3   2236  HTL2236    -0.1143
     26  O23      -26.9720  -68.3970   13.6060 O.3   2236  HTL2236    -0.1143
     27  O2'      -25.9710  -69.7430   24.8980 O.3   2236  HTL2236    -0.2208
     28  C3'      -25.3540  -71.4740   23.3030 C.3   2236  HTL2236     0.0379
     29  C1'      -25.6620  -69.9780   23.6270 C.3   2236  HTL2236     0.1768
@<TRIPOS>BOND
     1    24    23    2
     2    26    23    1
     3    21    19    2
     4    23    20    1
     5    23    25    1
     6    20    19    1
     7    19    22    1
     8    19    18    1
     9    18    17    1
    10    17    16    1
    11    16    13    1
    12    13    12    1
    13    13    14    1
    14    12    11    1
    15    15    14    1
    16    14    10    1
    17    11    10    1
    18    11    29    1
    19    10     9    1
    20    28    29    1
    21    29    27    1
    22     9     7    1
    23     7     8    2
    24     7     5    1
    25     8     1    1
    26     6     5    1
    27     5     4    2
    28     1     2    2
    29     4     2    2
    30     2     3    1
