@<TRIPOS>MOLECULE
2c42_TPP_A_1.pdb
 26 27 0 0 0
SMALL
GASTEIGER

@<TRIPOS>ATOM
      1  N1'      -27.2000  -63.8690   25.2210 N.2   3236  TPP3236    -0.1861
      2  C2'      -25.9190  -64.0970   25.7560 C.1   3236  TPP3236     0.0663
      3  CM2      -25.2170  -63.0000   26.5000 C.3   3236  TPP3236     0.1291
      4  N3'      -25.2840  -65.3390   25.6130 N.2   3236  TPP3236    -0.3368
      5  C4'      -25.9340  -66.3790   24.9410 C.2   3236  TPP3236     0.2292
      6  N4'      -25.2130  -67.5100   24.9100 N.pl3 3236  TPP3236    -0.0925
      7  C5'      -27.3010  -66.2300   24.3210 C.2   3236  TPP3236     0.0654
      8  C6'      -27.8740  -64.9020   24.5180 C.2   3236  TPP3236     0.1115
      9  C7'      -28.0150  -67.2720   23.5820 C.3   3236  TPP3236     0.1237
     10  N3       -27.4970  -67.4260   22.1740 N.pl3 3236  TPP3236    -0.2970
     11  C2       -26.4070  -68.2010   21.9080 C.3   3236  TPP3236     0.1543
     12  S1       -26.0160  -68.2460   20.3000 S.3   3236  TPP3236    -0.0951
     13  C5       -27.3590  -67.2050   19.8930 C.2   3236  TPP3236     0.0164
     14  C4       -28.0890  -66.7960   20.9490 C.2   3236  TPP3236     0.0279
     15  CM4      -29.3140  -65.8780   20.9200 C.3   3236  TPP3236     0.0473
     16  C6       -27.5580  -66.8960   18.3850 C.3   3236  TPP3236     0.0661
     17  C7       -26.5270  -67.4210   17.3820 C.3   3236  TPP3236     0.1544
     18  O7       -26.8150  -66.7000   16.1760 O.3   3236  TPP3236    -0.3134
     19  PA       -25.6900  -66.5110   15.2020 P.3   3236  TPP3236     0.2230
     20  O1A      -24.6720  -65.5830   15.7970 O.3   3236  TPP3236    -0.4370
     21  O2A      -26.3170  -65.9840   13.9820 O.2   3236  TPP3236    -0.5169
     22  O3A      -25.0360  -67.9030   14.8380 O.3   3236  TPP3236    -0.2261
     23  PB       -25.7860  -69.2430   14.1820 P.3   3236  TPP3236     0.5373
     24  O1B      -26.9620  -68.6590   13.3470 O.2   3236  TPP3236    -0.2221
     25  O2B      -24.6120  -69.8330   13.3840 O.3   3236  TPP3236    -0.1143
     26  O3B      -26.2270  -70.1310   15.2880 O.3   3236  TPP3236    -0.1143
@<TRIPOS>BOND
     1    24    23    2
     2    25    23    1
     3    21    19    2
     4    23    22    1
     5    23    26    1
     6    22    19    1
     7    19    20    1
     8    19    18    1
     9    18    17    1
    10    17    16    1
    11    16    13    1
    12    13    12    1
    13    13    14    2
    14    12    11    1
    15    15    14    1
    16    14    10    1
    17    11    10    1
    18    10     9    1
    19     9     7    1
    20     7     8    2
    21     7     5    1
    22     8     1    1
    23     6     5    1
    24     5     4    2
    25     1     2    2
    26     4     2    2
    27     2     3    1
