@<TRIPOS>MOLECULE
2c43_COA_A_1.pdb
 48 50 0 0 0
SMALL
GASTEIGER

@<TRIPOS>ATOM
      1  N1A      -33.8480   10.3220   -1.5210 N.2   1316  COA1316     0.0021
      2  C2A      -32.5200   10.2830   -1.2020 C.3   1316  COA1316     0.5254
      3  N3A      -31.8540    9.0860   -1.2990 N.2   1316  COA1316    -0.0055
      4  C4A      -32.5360    7.9960   -1.6690 C.2   1316  COA1316     0.3518
      5  C5A      -33.8700    8.0470   -2.0460 C.2   1316  COA1316     0.2526
      6  C6A      -34.5470    9.2300   -1.9580 C.2   1316  COA1316     0.4393
      7  N6A      -35.8550    9.2960   -2.2900 N.pl3 1316  COA1316     0.2180
      8  N7A      -34.2620    6.8230   -2.4180 N.2   1316  COA1316    -0.2095
      9  C8A      -33.2020    5.9830   -2.3260 C.3   1316  COA1316     0.3377
     10  N9A      -32.1140    6.7170   -1.8520 N.pl3 1316  COA1316    -0.1439
     11  C1B      -30.7290    6.2940   -1.6630 C.3   1316  COA1316     0.3185
     12  C2B      -30.5580    4.7850   -1.5320 C.3   1316  COA1316     0.2543
     13  O2B      -29.6270    4.4900   -0.5040 O.3   1316  COA1316    -0.2131
     14  C3B      -30.0370    4.3660   -2.8770 C.3   1316  COA1316     0.1928
     15  O3B      -29.1620    3.2840   -2.7540 O.3   1316  COA1316    -0.2673
     16  P3B      -29.7720    1.7730   -2.7920 P.3   1316  COA1316     0.5327
     17  O7A      -30.7230    1.6810   -3.9370 O.2   1316  COA1316    -0.2224
     18  O8A      -30.5510    1.5440   -1.5390 O.3   1316  COA1316    -0.1145
     19  O9A      -28.5590    0.9420   -3.0130 O.3   1316  COA1316    -0.1145
     20  C4B      -29.3000    5.5770   -3.3260 C.3   1316  COA1316     0.1795
     21  O4B      -30.0220    6.6300   -2.8270 O.3   1316  COA1316    -0.3136
     22  C5B      -29.1770    5.6770   -4.8170 C.3   1316  COA1316     0.1812
     23  O5B      -28.4390    6.8380   -5.1580 O.3   1316  COA1316    -0.3112
     24  P1A      -27.8350    6.8260   -6.6480 P.3   1316  COA1316     0.2189
     25  O1A      -26.8560    5.7500   -6.7980 O.3   1316  COA1316    -0.4371
     26  O2A      -27.2820    8.2020   -6.9320 O.2   1316  COA1316    -0.5170
     27  O3A      -29.1520    6.3640   -7.4310 O.3   1316  COA1316    -0.2703
     28  P2A      -29.8580    6.8840   -8.7620 P.3   1316  COA1316     0.2188
     29  O4A      -29.0770    8.0280   -9.3830 O.3   1316  COA1316    -0.4371
     30  O5A      -30.0100    5.7610   -9.6620 O.2   1316  COA1316    -0.5170
     31  O6A      -31.3060    7.2800   -8.2430 O.3   1316  COA1316    -0.3138
     32  CBP      -32.8090    8.6440   -6.9550 C.3   1316  COA1316     0.0645
     33  CCP      -31.5330    8.5770   -7.7740 C.3   1316  COA1316     0.1519
     34  CDP      -32.8020    7.3980   -6.0830 C.3   1316  COA1316     0.0056
     35  CEP      -32.6960    9.9180   -6.1170 C.3   1316  COA1316     0.0056
     36  CAP      -34.1490    8.6570   -7.7190 C.3   1316  COA1316     0.2312
     37  OAP      -35.1350    9.0200   -6.7530 O.3   1316  COA1316    -0.2131
     38  C9P      -34.1770    9.6200   -8.8840 C.2   1316  COA1316     0.2719
     39  O9P      -33.4860    9.3100  -10.0520 O.2   1316  COA1316    -0.2706
     40  N8P      -34.8150   10.7920   -8.7880 N.am  1316  COA1316    -0.2028
     41  C7P      -34.1280   12.0560   -9.0620 C.3   1316  COA1316     0.1248
     42  C6P      -33.9880   12.2520  -10.5580 C.3   1316  COA1316     0.1102
     43  C5P      -33.2700   13.5300  -10.9150 C.2   1316  COA1316     0.2432
     44  O5P      -33.8930   14.5710  -10.8010 O.2   1316  COA1316    -0.2733
     45  N4P      -32.0240   13.4620  -11.3920 N.am  1316  COA1316    -0.2044
     46  C3P      -31.1930   14.6420  -11.6250 C.3   1316  COA1316     0.1276
     47  C2P      -31.3120   15.0580  -13.0710 C.3   1316  COA1316     0.0920
     48  S1P      -30.4270   16.5890  -13.5000 S.3   1316  COA1316    -0.0802
@<TRIPOS>BOND
     1    48    47    1
     2    47    46    1
     3    46    45    1
     4    45    43   am
     5    43    44    2
     6    43    42    1
     7    42    41    1
     8    39    38    2
     9    30    28    2
    10    29    28    1
    11    41    40    1
    12    38    40   am
    13    38    36    1
    14    28    31    1
    15    28    27    1
    16    31    33    1
    17    33    32    1
    18    36    32    1
    19    36    37    1
    20    27    24    1
    21    32    35    1
    22    32    34    1
    23    26    24    2
    24    25    24    1
    25    24    23    1
    26    23    22    1
    27    22    20    1
    28    17    16    2
    29    20    14    1
    30    20    21    1
    31    19    16    1
    32    14    15    1
    33    14    12    1
    34    21    11    1
    35    16    15    1
    36    16    18    1
    37     8     9    1
    38     8     5    2
    39     9    10    1
    40     7     6    1
    41     5     6    1
    42     5     4    1
    43     6     1    2
    44    10     4    1
    45    10    11    1
    46     4     3    2
    47    11    12    1
    48    12    13    1
    49     1     2    1
    50     3     2    1
