@<TRIPOS>MOLECULE
2c47_5ID_A_1.pdb
 20 22 0 0 0
SMALL
GASTEIGER

@<TRIPOS>ATOM
      1  O5'        2.4060   33.2770   20.1480 O.3   1300  5ID1300    -0.2176
      2  C5'        3.6900   32.6610   20.4030 C.3   1300  5ID1300     0.2143
      3  C4'        4.7660   33.7370   20.7520 C.3   1300  5ID1300     0.1851
      4  O4'        5.0310   34.4250   19.5440 O.3   1300  5ID1300    -0.3132
      5  C1'        5.3050   35.8460   19.8370 C.3   1300  5ID1300     0.3212
      6  N9         4.4050   36.7710   19.0010 N.pl3 1300  5ID1300    -0.1464
      7  C8         3.1900   36.4280   18.5770 C.2   1300  5ID1300     0.1800
      8  C7         2.6650   37.4520   17.8870 C.2   1300  5ID1300     0.0715
      9  C5         3.5690   38.5160   17.8750 C.3   1300  5ID1300     0.2499
     10  C6         3.6020   39.8160   17.3460 C.2   1300  5ID1300     0.4069
     11  N1         4.6990   40.5560   17.5690 N.2   1300  5ID1300    -0.0027
     12  C2         5.7310   40.0650   18.2440 C.3   1300  5ID1300     0.5248
     13  N3         5.7320   38.8380   18.7350 N.2   1300  5ID1300    -0.0106
     14  C4         4.6630   38.0400   18.5880 C.2   1300  5ID1300     0.3220
     15  N6         2.5950   40.3480   16.6300 N.pl3 1300  5ID1300     0.2117
     16  C2'        4.9800   36.0980   21.3360 C.3   1300  5ID1300     0.2573
     17  O2'        6.1890   36.3530   22.1160 O.3   1300  5ID1300    -0.2130
     18  C3'        4.2280   34.8100   21.7290 C.3   1300  5ID1300     0.2186
     19  O3'        4.4230   34.4270   23.1140 O.3   1300  5ID1300    -0.2174
     20  IAE        0.7240   37.3830   17.0000 I     1300  5ID1300    -0.0424
@<TRIPOS>BOND
     1    15    10    1
     2    20     8    1
     3    10    11    2
     4    10     9    1
     5    11    12    1
     6     9     8    1
     7     9    14    1
     8     8     7    2
     9    12    13    1
    10     7     6    1
    11    14    13    2
    12    14     6    1
    13     6     5    1
    14     4     5    1
    15     4     3    1
    16     5    16    1
    17     1     2    1
    18     2     3    1
    19     3    18    1
    20    16    18    1
    21    16    17    1
    22    18    19    1
