@<TRIPOS>MOLECULE
2c49_ADN_A_1.pdb
 19 21 0 0 0
SMALL
GASTEIGER

@<TRIPOS>ATOM
      1  O5'       71.6470   25.5540   52.6720 O.3   1301  ADN1301    -0.2176
      2  C5'       71.8710   25.2790   51.2900 C.3   1301  ADN1301     0.2143
      3  C4'       70.6780   24.4360   50.8300 C.3   1301  ADN1301     0.1851
      4  O4'       69.4220   25.0750   51.0570 O.3   1301  ADN1301    -0.3134
      5  C3'       70.6290   23.7560   49.4440 C.3   1301  ADN1301     0.2186
      6  O3'       71.0910   22.4070   49.3870 O.3   1301  ADN1301    -0.2174
      7  C2'       69.1760   23.8950   48.9520 C.3   1301  ADN1301     0.2570
      8  O2'       68.4850   22.6590   48.7890 O.3   1301  ADN1301    -0.2130
      9  C1'       68.4720   24.6540   50.0760 C.3   1301  ADN1301     0.3186
     10  N9        67.6040   25.7420   49.6910 N.pl3 1301  ADN1301    -0.1439
     11  C8        67.8060   26.7000   48.7530 C.3   1301  ADN1301     0.3377
     12  N7        66.7510   27.5720   48.7400 N.2   1301  ADN1301    -0.2095
     13  C5        65.9000   27.1940   49.6980 C.2   1301  ADN1301     0.2526
     14  C6        64.6080   27.5660   50.2830 C.2   1301  ADN1301     0.4393
     15  N6        64.0140   28.6450   49.8050 N.pl3 1301  ADN1301     0.2180
     16  N1        64.0480   26.8400   51.2820 N.2   1301  ADN1301     0.0021
     17  C2        64.6450   25.7530   51.8250 C.3   1301  ADN1301     0.5254
     18  N3        65.8380   25.3240   51.3850 N.2   1301  ADN1301    -0.0055
     19  C4        66.4700   26.0160   50.2980 C.2   1301  ADN1301     0.3518
@<TRIPOS>BOND
     1    12    11    1
     2    12    13    2
     3    11    10    1
     4     8     7    1
     5     7     5    1
     6     7     9    1
     7     6     5    1
     8     5     3    1
     9    10     9    1
    10    10    19    1
    11    13    14    1
    12    13    19    1
    13    15    14    1
    14     9     4    1
    15    14    16    2
    16    19    18    2
    17     3     4    1
    18     3     2    1
    19    16    17    1
    20     2     1    1
    21    18    17    1
