@<TRIPOS>MOLECULE
2c49_ANP_A_1.pdb
 31 33 0 0 0
SMALL
GASTEIGER

@<TRIPOS>ATOM
      1  PG        74.2790   30.8660   50.9920 P.3   1304  ANP1304     0.4884
      2  O1G       74.1020   29.4510   50.2790 O.3   1304  ANP1304    -0.1240
      3  O2G       74.1320   32.0680   49.9660 O.2   1304  ANP1304    -0.2331
      4  O3G       73.1300   30.9900   52.0900 O.3   1304  ANP1304    -0.1240
      5  PB        75.9650   32.1770   53.0030 P.3   1304  ANP1304     0.4669
      6  O1B       75.5720   33.6150   52.4450 O.2   1304  ANP1304    -0.2351
      7  O2B       74.7850   31.6400   53.9460 O.3   1304  ANP1304    -0.1253
      8  N3B       75.8770   31.0200   51.7010 N.3   1304  ANP1304    -0.0163
      9  PA        77.5770   31.9110   55.2720 P.3   1304  ANP1304     0.2220
     10  O1A       77.3380   33.1180   56.2880 O.3   1304  ANP1304    -0.4370
     11  O2A       76.5920   30.7070   55.6250 O.2   1304  ANP1304    -0.5170
     12  O3A       77.4440   32.2700   53.7020 O.3   1304  ANP1304    -0.2360
     13  O5'       79.0800   31.3710   55.4950 O.3   1304  ANP1304    -0.3111
     14  C5'       79.1510   30.3630   56.4810 C.3   1304  ANP1304     0.1813
     15  C4'       80.5870   30.1620   56.9010 C.3   1304  ANP1304     0.1821
     16  O4'       81.3560   29.3870   55.9640 O.3   1304  ANP1304    -0.3135
     17  C3'       81.4060   31.3890   57.2820 C.3   1304  ANP1304     0.2184
     18  O3'       81.2820   31.8780   58.5910 O.3   1304  ANP1304    -0.2174
     19  C2'       82.8000   31.1110   56.7570 C.3   1304  ANP1304     0.2570
     20  O2'       83.5350   30.5710   57.8600 O.3   1304  ANP1304    -0.2130
     21  C1'       82.6780   29.9050   55.8430 C.3   1304  ANP1304     0.3186
     22  N9        82.8800   30.5120   54.5050 N.pl3 1304  ANP1304    -0.1439
     23  C8        82.0060   31.2600   53.7740 C.3   1304  ANP1304     0.3377
     24  N7        82.5150   31.7100   52.5840 N.2   1304  ANP1304    -0.2095
     25  C5        83.7710   31.2380   52.5580 C.2   1304  ANP1304     0.2526
     26  C6        84.9410   31.2790   51.6600 C.2   1304  ANP1304     0.4393
     27  N6        84.7920   31.9570   50.4950 N.pl3 1304  ANP1304     0.2180
     28  N1        86.0880   30.6280   52.0060 N.2   1304  ANP1304     0.0021
     29  C2        86.2490   29.9350   53.1570 C.3   1304  ANP1304     0.5254
     30  N3        85.2520   29.8170   54.0710 N.2   1304  ANP1304    -0.0055
     31  C4        83.9890   30.4870   53.7840 C.2   1304  ANP1304     0.3518
@<TRIPOS>BOND
     1     3     1    2
     2     2     1    1
     3    27    26    1
     4     1     8    1
     5     1     4    1
     6    26    28    2
     7    26    25    1
     8     8     5    1
     9    28    29    1
    10     6     5    2
    11    25    24    2
    12    25    31    1
    13    24    23    1
    14     5    12    1
    15     5     7    1
    16    29    30    1
    17    12     9    1
    18    23    22    1
    19    31    30    2
    20    31    22    1
    21    22    21    1
    22     9    13    1
    23     9    11    2
    24     9    10    1
    25    13    14    1
    26    21    16    1
    27    21    19    1
    28    16    15    1
    29    14    15    1
    30    19    17    1
    31    19    20    1
    32    15    17    1
    33    17    18    1
