@<TRIPOS>MOLECULE
2c4a_SIA_A_1.pdb
 21 21 0 0 0
SMALL
GASTEIGER

@<TRIPOS>ATOM
      1  C1        23.7910   19.8530   64.9560 C.2   1469  SIA1469     0.4179
      2  C2        24.5870   18.6980   64.3970 C.3   1469  SIA1469     0.3155
      3  C3        23.6700   17.6010   63.8290 C.3   1469  SIA1469     0.1056
      4  C4        24.3410   16.7140   62.7640 C.3   1469  SIA1469     0.1798
      5  C5        25.8720   16.7870   62.8090 C.3   1469  SIA1469     0.1554
      6  C6        26.2930   18.2400   62.5980 C.3   1469  SIA1469     0.1734
      7  C7        27.7850   18.4330   62.8810 C.3   1469  SIA1469     0.2135
      8  C8        28.1860   19.8780   62.6090 C.3   1469  SIA1469     0.2173
      9  C9        29.6680   20.0970   62.9000 C.3   1469  SIA1469     0.2175
     10  C10       27.1880   14.9410   61.8090 C.2   1469  SIA1469     0.2420
     11  C11       27.6060   14.2130   60.5570 C.3   1469  SIA1469     0.0964
     12  N5        26.3900   16.0180   61.6680 N.am  1469  SIA1469    -0.2020
     13  O1A       24.4120   20.9340   65.0000 O.co2 1469  SIA1469    -0.2401
     14  O1B       22.5990   19.6880   65.3860 O.co2 1469  SIA1469    -0.2401
     15  O2        25.3620   18.2330   65.5210 O.3   1469  SIA1469    -0.1830
     16  O4        23.9010   15.3900   63.0040 O.3   1469  SIA1469    -0.2210
     17  O6        25.4980   19.1650   63.3890 O.3   1469  SIA1469    -0.3220
     18  O7        28.0680   18.0960   64.2580 O.3   1469  SIA1469    -0.2176
     19  O8        27.8200   20.2760   61.2720 O.3   1469  SIA1469    -0.2175
     20  O9        30.4740   19.5410   61.8600 O.3   1469  SIA1469    -0.2175
     21  O10       27.5710   14.5450   62.8940 O.2   1469  SIA1469    -0.2733
@<TRIPOS>BOND
     1    11    10    1
     2    19     8    1
     3    12    10   am
     4    12     5    1
     5    10    21    2
     6    20     9    1
     7     6     5    1
     8     6     7    1
     9     6    17    1
    10     8     7    1
    11     8     9    1
    12     4     5    1
    13     4    16    1
    14     4     3    1
    15     7    18    1
    16    17     2    1
    17     3     2    1
    18     2     1    1
    19     2    15    1
    20     1    13   ar
    21     1    14   ar
