@<TRIPOS>MOLECULE
2c4d_NAG_A_1.pdb
 15 15 0 0 0
SMALL
GASTEIGER

@<TRIPOS>ATOM
      1  C1       -56.6400   34.1660   10.6630 C.3   600  NAG600      0.2917
      2  C2       -55.2340   34.6700   10.3690 C.3   600  NAG600      0.1871
      3  C3       -54.3460   34.5250   11.6060 C.3   600  NAG600      0.2095
      4  C4       -55.0270   35.1890   12.8120 C.3   600  NAG600      0.2136
      5  C5       -56.5070   34.7860   12.9620 C.3   600  NAG600      0.1835
      6  C6       -57.1940   35.6900   13.9760 C.3   600  NAG600      0.2142
      7  C7       -54.7440   34.5800    7.9890 C.2   600  NAG600      0.2421
      8  C8       -54.2330   33.7890    6.8110 C.3   600  NAG600      0.0964
      9  N2       -54.6250   34.0140    9.2150 N.am  600  NAG600     -0.1991
     10  O1       -57.4670   34.3230    9.5400 O.3   600  NAG600     -0.1879
     11  O3       -53.0780   35.1290   11.4130 O.3   600  NAG600     -0.2183
     12  O4       -54.2870   34.8870   13.9790 O.3   600  NAG600     -0.2176
     13  O5       -57.1940   34.9180   11.7290 O.3   600  NAG600     -0.3242
     14  O6       -58.4240   35.1300   14.3390 O.3   600  NAG600     -0.2176
     15  O7       -55.2590   35.6870    7.8020 O.2   600  NAG600     -0.2733
@<TRIPOS>BOND
     1     8     7    1
     2    15     7    2
     3     7     9   am
     4     9     2    1
     5    10     1    1
     6     2     1    1
     7     2     3    1
     8     1    13    1
     9    11     3    1
    10     3     4    1
    11    13     5    1
    12     4     5    1
    13     4    12    1
    14     5     6    1
    15     6    14    1
