@<TRIPOS>MOLECULE
2c4f_FUC_L_1.pdb
 11 11 0 0 0
SMALL
GASTEIGER

@<TRIPOS>ATOM
      1  C1        21.9870   31.6710   64.3470 C.3   1145  FUC1145     0.3023
      2  C2        20.8840   32.6880   64.6140 C.3   1145  FUC1145     0.2434
      3  C3        20.8250   33.6750   63.4510 C.3   1145  FUC1145     0.2198
      4  C4        20.6290   32.9160   62.1350 C.3   1145  FUC1145     0.2118
      5  C5        21.7250   31.8560   61.9740 C.3   1145  FUC1145     0.1509
      6  C6        21.5260   30.9940   60.7430 C.3   1145  FUC1145     0.0350
      7  O1        23.1870   32.3450   64.2100 O.3   1145  FUC1145    -0.1869
      8  O2        21.1650   33.3840   65.8190 O.3   1145  FUC1145    -0.2148
      9  O3        19.7540   34.5840   63.6490 O.3   1145  FUC1145    -0.2174
     10  O4        19.3560   32.2880   62.1330 O.3   1145  FUC1145    -0.2177
     11  O5        21.7320   30.9730   63.1180 O.3   1145  FUC1145    -0.3264
@<TRIPOS>BOND
     1     6     5    1
     2     5     4    1
     3     5    11    1
     4    10     4    1
     5     4     3    1
     6    11     1    1
     7     3     9    1
     8     3     2    1
     9     7     1    1
    10     1     2    1
    11     2     8    1
