@<TRIPOS>MOLECULE
2c4f_GIL_H_1.pdb
 42 44 0 0 0
SMALL
GASTEIGER

@<TRIPOS>ATOM
      1  C1        29.6120    7.3760   13.8900 C.ar  1259  GIL1259     0.1005
      2  C2        28.8860    8.4860   13.3660 C.ar  1259  GIL1259     0.0082
      3  C3        28.8890    8.7630   11.9820 C.ar  1259  GIL1259     0.0034
      4  C4        29.6210    7.9390   11.1040 C.ar  1259  GIL1259     0.0376
      5  C5        30.3540    6.8330   11.6060 C.ar  1259  GIL1259     0.1482
      6  C6        30.3450    6.5540   12.9920 C.ar  1259  GIL1259     0.0456
      7  C7        29.6020    7.0890   15.3360 C.2   1259  GIL1259     0.4767
      8  N1        30.2890    6.0190   15.8100 N.pl3 1259  GIL1259     0.2047
      9  N2        28.9270    7.8630   16.1920 N.pl3 1259  GIL1259     0.2047
     10  C11       31.8540    6.5290    9.7510 C.2   1259  GIL1259     0.2992
     11  C12       33.0290    7.3200    9.9750 C.3   1259  GIL1259     0.2869
     12  N3        31.3860    6.2720    8.5040 N.2   1259  GIL1259    -0.3305
     13  C13       33.7540    7.8660    8.8610 C.2   1259  GIL1259     0.1015
     14  O1        31.1110    5.9690   10.8000 O.3   1259  GIL1259    -0.4283
     15  C14       33.2210    7.5600    7.5730 C.2   1259  GIL1259     0.2184
     16  C15       32.0640    6.7820    7.4350 C.2   1259  GIL1259     0.3140
     17  N4        34.9150    8.6590    8.9930 N.pl3 1259  GIL1259    -0.3096
     18  O2        31.6580    6.5870    6.1180 O.3   1259  GIL1259    -0.4255
     19  F1        33.4430    7.5470   11.2430 F     1259  GIL1259    -0.2195
     20  F2        33.7990    8.0120    6.4460 F     1259  GIL1259    -0.1969
     21  C21       30.5040    5.8680    5.8120 C.ar  1259  GIL1259     0.1546
     22  C22       29.1640    6.3460    6.0660 C.ar  1259  GIL1259     0.1144
     23  C23       28.0690    5.5240    5.6930 C.ar  1259  GIL1259     0.0142
     24  C24       28.2820    4.2470    5.0770 C.ar  1259  GIL1259     0.0554
     25  C25       29.6110    3.8010    4.8450 C.ar  1259  GIL1259     0.0077
     26  C26       30.7120    4.6120    5.2110 C.ar  1259  GIL1259     0.0380
     27  C29       28.8980    7.6710    6.6990 C.2   1259  GIL1259     0.3907
     28  O3        27.7760    7.7720    7.4540 O.co2 1259  GIL1259    -0.2404
     29  O4        29.6420    8.5960    6.5840 O.co2 1259  GIL1259    -0.2404
     30  C8        27.1610    3.3600    4.6600 C.2   1259  GIL1259     0.2648
     31  C10       34.8640   10.0630    8.3770 C.3   1259  GIL1259     0.0727
     32  C16       36.0810    8.0020    9.7040 C.3   1259  GIL1259     0.0727
     33  C17       36.1830   10.6330    7.8180 C.3   1259  GIL1259     0.0214
     34  C18       34.1830   11.0540    9.3340 C.3   1259  GIL1259     0.0214
     35  C19       37.0650    7.4110    8.6860 C.3   1259  GIL1259     0.0214
     36  C20       36.7890    8.9140   10.7420 C.3   1259  GIL1259     0.0214
     37  O5        27.3300    2.2650    4.1320 O.2   1259  GIL1259    -0.2684
     38  N5        25.9280    3.8400    4.8990 N.am  1259  GIL1259    -0.2017
     39  C9        25.1320    4.3430    3.7770 C.3   1259  GIL1259     0.1154
     40  C27       23.6330    4.5200    4.1010 C.3   1259  GIL1259     0.0217
     41  C28       23.2270    4.1350    5.5310 C.3   1259  GIL1259     0.0018
     42  C30       22.8140    3.7230    3.0820 C.3   1259  GIL1259     0.0018
@<TRIPOS>BOND
     1    42    40    1
     2    39    40    1
     3    39    38    1
     4    40    41    1
     5    37    30    2
     6    30    38   am
     7    30    24    1
     8    25    24   ar
     9    25    26   ar
    10    24    23   ar
    11    26    21   ar
    12    23    22   ar
    13    21    22   ar
    14    21    18    1
    15    22    27    1
    16    18    16    1
    17    20    15    1
    18    29    27   ar
    19    27    28   ar
    20    16    15    1
    21    16    12    2
    22    15    13    2
    23    33    31    1
    24    31    17    1
    25    31    34    1
    26    12    10    2
    27    35    32    1
    28    13    17    1
    29    13    11    1
    30    17    32    1
    31    32    36    1
    32    10    11    1
    33    10    14    1
    34    11    19    1
    35    14     5    1
    36     4     5   ar
    37     4     3   ar
    38     5     6   ar
    39     3     2   ar
    40     6     1   ar
    41     2     1   ar
    42     1     7    1
    43     7     8    2
    44     7     9    1
