@<TRIPOS>MOLECULE
2c4f_GLC_L_1.pdb
 12 12 0 0 0
SMALL
GASTEIGER

@<TRIPOS>ATOM
      1  C1        38.6050   33.1890   63.0090 C.3   1144  GLC1144     0.3024
      2  C2        38.8620   31.7430   62.6010 C.3   1144  GLC1144     0.2434
      3  C3        39.8980   31.6920   61.4790 C.3   1144  GLC1144     0.2199
      4  C4        39.4870   32.6140   60.3260 C.3   1144  GLC1144     0.2144
      5  C5        39.1970   34.0240   60.8510 C.3   1144  GLC1144     0.1836
      6  C6        38.6810   34.9570   59.7720 C.3   1144  GLC1144     0.2142
      7  O1        39.7640   33.7500   63.5140 O.3   1144  GLC1144    -0.1869
      8  O2        39.3360   31.0180   63.7260 O.3   1144  GLC1144    -0.2148
      9  O3        40.0190   30.3600   61.0040 O.3   1144  GLC1144    -0.2174
     10  O4        40.5320   32.6710   59.3680 O.3   1144  GLC1144    -0.2176
     11  O5        38.1890   33.9680   61.8810 O.3   1144  GLC1144    -0.3236
     12  O6        38.1960   36.1700   60.3310 O.3   1144  GLC1144    -0.2176
@<TRIPOS>BOND
     1    10     4    1
     2     6    12    1
     3     6     5    1
     4     4     5    1
     5     4     3    1
     6     5    11    1
     7     9     3    1
     8     3     2    1
     9    11     1    1
    10     2     1    1
    11     2     8    1
    12     1     7    1
