@<TRIPOS>MOLECULE
2c4g_514_A_1.pdb
 20 22 0 0 0
SMALL
GASTEIGER

@<TRIPOS>ATOM
      1  O1       -19.1710  212.4470  104.5130 O.2   306  514306     -0.2745
      2  C2       -13.8820  214.3400  102.4660 C.2   306  514306      0.3979
      3  N3       -15.2750  213.9600  100.8790 N.2   306  514306     -0.0365
      4  N4       -14.1680  214.3270  101.1020 N.2   306  514306      0.0844
      5  C5       -11.0000  215.1880  104.7670 C.ar  306  514306      0.0821
      6  C6        -9.8100  214.7010  104.1120 C.ar  306  514306      0.0070
      7  C7       -10.8550  216.1190  105.8580 C.ar  306  514306      0.0070
      8  C8       -12.2840  214.7680  104.3640 C.2   306  514306      0.3756
      9  C9        -8.5240  215.1310  104.5340 C.ar  306  514306      0.0002
     10  C10       -9.5650  216.5440  106.2740 C.ar  306  514306      0.0002
     11  O11      -13.0810  214.4310  105.2350 O.2   306  514306     -0.2377
     12  N12      -12.5930  214.7480  103.0430 N.am  306  514306      0.0385
     13  C13       -8.3970  216.0490  105.6110 C.ar  306  514306      0.0000
     14  C14      -15.9330  213.6620  102.0700 C.2   306  514306      0.1343
     15  C15      -15.1430  213.8710  103.0870 C.2   306  514306      0.1225
     16  C16      -15.7080  213.6000  104.4140 C.2   306  514306      0.0768
     17  N17      -17.0700  213.1670  103.9860 N.am  306  514306     -0.2511
     18  C18      -17.2660  213.1820  102.5010 C.3   306  514306      0.1481
     19  C19      -18.0430  212.7970  104.8820 C.2   306  514306      0.2302
     20  C20      -17.7330  212.8240  106.3840 C.3   306  514306      0.0952
@<TRIPOS>BOND
     1     3     4    1
     2     3    14    2
     3     4     2    2
     4    14    18    1
     5    14    15    1
     6     2    12    1
     7     2    15    1
     8    18    17    1
     9    12     8   am
    10    15    16    2
    11    17    16    1
    12    17    19   am
    13     6     9   ar
    14     6     5   ar
    15     8     5    1
    16     8    11    2
    17     1    19    2
    18     9    13   ar
    19     5     7   ar
    20    19    20    1
    21    13    10   ar
    22     7    10   ar
