@<TRIPOS>MOLECULE
2c4h_AT3_A_1.pdb
 10 9 0 0 0
SMALL
GASTEIGER

@<TRIPOS>ATOM
      1  N1         4.7350   68.4320   60.5460 N.4   1540  AT31540     0.3863
      2  C2         4.3080   68.7990   61.9090 C.3   1540  AT31540    -0.0610
      3  C3         5.4150   69.4900   62.7070 C.3   1540  AT31540     0.0428
      4  C5         6.8550   69.6630   65.0920 C.2   1540  AT31540     0.1991
      5  O7         7.1800   71.0410   65.3010 O.2   1540  AT31540    -0.2845
      6  C6         7.8930   68.5820   65.3860 C.3   1540  AT31540     0.0845
      7  C8         4.8610   69.6420   59.7180 C.3   1540  AT31540    -0.0959
      8  C9         3.7060   67.5640   59.9610 C.3   1540  AT31540    -0.0959
      9  C10        5.9990   67.6880   60.5530 C.3   1540  AT31540    -0.0959
     10  S24        5.2620   69.2100   64.4890 S.3   1540  AT31540    -0.0794
@<TRIPOS>BOND
     1     7     1    1
     2     8     1    1
     3     1     9    1
     4     1     2    1
     5     2     3    1
     6     3    10    1
     7    10     4    1
     8     4     5    2
     9     4     6    1
