@<TRIPOS>MOLECULE
2c4i_BTN_A_1.pdb
 16 17 0 0 0
SMALL
GASTEIGER

@<TRIPOS>ATOM
      1  C11       33.7430   -8.1120   27.5710 C.2   1274  BTN1274     0.3649
      2  O11       33.0910   -7.0820   27.7780 O.co2 1274  BTN1274    -0.2457
      3  O12       34.9010   -8.1320   28.0140 O.co2 1274  BTN1274    -0.2457
      4  C10       33.0610   -9.2410   26.8220 C.3   1274  BTN1274     0.1141
      5  C9        34.0120  -10.2810   26.2560 C.3   1274  BTN1274     0.0118
      6  C8        34.7910   -9.7140   25.0830 C.3   1274  BTN1274     0.0015
      7  C7        35.6500  -10.8020   24.4720 C.3   1274  BTN1274     0.0129
      8  C2        36.4340  -10.2970   23.2700 C.3   1274  BTN1274     0.0729
      9  S1        35.4690  -10.2160   21.8760 S.3   1274  BTN1274    -0.1369
     10  C6        36.9870   -9.9250   20.9540 C.3   1274  BTN1274     0.0848
     11  C5        37.9940  -10.9060   21.4940 C.3   1274  BTN1274     0.1509
     12  N1        37.8520  -12.1970   20.8270 N.2   1274  BTN1274    -0.1859
     13  C3        37.4910  -13.1090   21.7170 C.1   1274  BTN1274     0.2386
     14  O3        37.3300  -14.4470   21.3700 O.2   1274  BTN1274    -0.2023
     15  N2        37.3360  -12.6120   22.9570 N.2   1274  BTN1274    -0.1860
     16  C4        37.6420  -11.1850   22.9600 C.3   1274  BTN1274     0.1500
@<TRIPOS>BOND
     1    12    11    1
     2    12    13    2
     3    10    11    1
     4    10     9    1
     5    14    13    2
     6    11    16    1
     7    13    15    2
     8     9     8    1
     9    15    16    1
    10    16     8    1
    11     8     7    1
    12     7     6    1
    13     6     5    1
    14     5     4    1
    15     4     1    1
    16     1     2   ar
    17     1     3   ar
