@<TRIPOS>MOLECULE
2c4j_GSO_A_1.pdb
 29 29 0 0 0
SMALL
GASTEIGER

@<TRIPOS>ATOM
      1  C          5.6350   -0.3100   99.1120 C.2   1219  GSO1219     0.3819
      2  OT1        4.8900   -0.2260   98.1120 O.co2 1219  GSO1219    -0.2441
      3  OT2        6.8900   -0.2350   99.0290 O.co2 1219  GSO1219    -0.2441
      4  N          3.6730    0.0000  100.5380 N.3   1219  GSO1219    -0.1208
      5  CA         5.0380   -0.5110  100.4760 C.3   1219  GSO1219     0.1948
      6  CB         5.0490   -1.9800  100.8830 C.3   1219  GSO1219     0.0402
      7  CB2        8.3940   -6.3990  101.1820 C.3   1219  GSO1219     0.0887
      8  SG2        7.2530   -6.3880   99.8220 S.3   1219  GSO1219    -0.1349
      9  CG         6.4540   -2.3890  101.3110 C.3   1219  GSO1219     0.0889
     10  CD         6.4870   -3.8010  101.8700 C.2   1219  GSO1219     0.2418
     11  OE         5.3870   -4.4480  102.2320 O.2   1219  GSO1219    -0.2733
     12  N2         7.6380   -4.3130  101.9560 N.am  1219  GSO1219    -0.1969
     13  CA2        7.8840   -5.6620  102.4290 C.3   1219  GSO1219     0.1834
     14  C2         8.9930   -5.6770  103.4330 C.2   1219  GSO1219     0.2626
     15  O2         9.6190   -6.8190  103.6550 O.2   1219  GSO1219    -0.2714
     16  N3         9.3230   -4.6180  104.0400 N.am  1219  GSO1219    -0.1917
     17  CA3       10.4190   -4.5040  105.0110 C.3   1219  GSO1219     0.2285
     18  C3         9.9760   -4.1860  106.4140 C.2   1219  GSO1219     0.3865
     19  O31       10.8690   -4.0530  107.2840 O.co2 1219  GSO1219    -0.2437
     20  O32        8.7590   -4.0800  106.6740 O.co2 1219  GSO1219    -0.2437
     21  OF2        6.3860   -8.7550   98.5010 O.3   1219  GSO1219    -0.2173
     22  CD2        5.7800   -7.2240  100.2840 C.3   1219  GSO1219     0.0950
     23  CG2        8.7690  -10.4720  101.4540 C.ar  1219  GSO1219    -0.0002
     24  CL1        8.0120   -9.7770  100.5150 C.ar  1219  GSO1219    -0.0018
     25  CL2        8.2010  -10.8300  102.6760 C.ar  1219  GSO1219    -0.0000
     26  CM1        6.6860   -9.4370  100.8060 C.ar  1219  GSO1219     0.0086
     27  CM2        6.8790  -10.4950  102.9690 C.ar  1219  GSO1219    -0.0002
     28  CZ         6.1240   -9.7960  102.0340 C.ar  1219  GSO1219    -0.0018
     29  C22        5.8530   -8.6820   99.8340 C.3   1219  GSO1219     0.1850
@<TRIPOS>BOND
     1     2     1   ar
     2    21    29    1
     3     3     1   ar
     4     1     5    1
     5     8    22    1
     6     8     7    1
     7    29    22    1
     8    29    26    1
     9     5     4    1
    10     5     6    1
    11    24    26   ar
    12    24    23   ar
    13    26    28   ar
    14     6     9    1
    15     7    13    1
    16     9    10    1
    17    23    25   ar
    18    10    12   am
    19    10    11    2
    20    12    13    1
    21    28    27   ar
    22    13    14    1
    23    25    27   ar
    24    14    15    2
    25    14    16   am
    26    16    17    1
    27    17    18    1
    28    18    20   ar
    29    18    19   ar
