@<TRIPOS>MOLECULE
2c4l_SIA_A_1.pdb
 21 21 0 0 0
SMALL
GASTEIGER

@<TRIPOS>ATOM
      1  C1        23.7880   19.8920   64.9730 C.2   1469  SIA1469     0.4179
      2  C2        24.5990   18.7020   64.4750 C.3   1469  SIA1469     0.3155
      3  C3        23.6690   17.5830   63.9320 C.3   1469  SIA1469     0.1056
      4  C4        24.3130   16.7220   62.8300 C.3   1469  SIA1469     0.1798
      5  C5        25.8550   16.7680   62.8530 C.3   1469  SIA1469     0.1554
      6  C6        26.2900   18.2290   62.6630 C.3   1469  SIA1469     0.1734
      7  C7        27.8010   18.4380   62.8520 C.3   1469  SIA1469     0.2135
      8  C8        28.1690   19.8960   62.5830 C.3   1469  SIA1469     0.2173
      9  C9        29.6600   20.1810   62.7940 C.3   1469  SIA1469     0.2175
     10  C10       27.1150   14.9060   61.7380 C.2   1469  SIA1469     0.2420
     11  C11       27.4870   14.2860   60.4230 C.3   1469  SIA1469     0.0964
     12  N5        26.3570   16.0140   61.6770 N.am  1469  SIA1469    -0.2020
     13  O1A       24.4340   20.9740   65.0280 O.co2 1469  SIA1469    -0.2401
     14  O1B       22.5680   19.7540   65.3270 O.co2 1469  SIA1469    -0.2401
     15  O2        25.4050   18.2840   65.6020 O.3   1469  SIA1469    -0.1830
     16  O4        23.8460   15.3820   62.9560 O.3   1469  SIA1469    -0.2210
     17  O6        25.5380   19.1630   63.4850 O.3   1469  SIA1469    -0.3220
     18  O7        28.2220   18.0120   64.1690 O.3   1469  SIA1469    -0.2176
     19  O8        27.7490   20.2150   61.2500 O.3   1469  SIA1469    -0.2175
     20  O9        30.4370   19.5650   61.7590 O.3   1469  SIA1469    -0.2175
     21  O10       27.4990   14.4170   62.7920 O.2   1469  SIA1469    -0.2733
@<TRIPOS>BOND
     1    11    10    1
     2    19     8    1
     3    12    10   am
     4    12     5    1
     5    10    21    2
     6    20     9    1
     7     8     9    1
     8     8     7    1
     9     6     7    1
    10     6     5    1
    11     6    17    1
    12     4     5    1
    13     4    16    1
    14     4     3    1
    15     7    18    1
    16    17     2    1
    17     3     2    1
    18     2     1    1
    19     2    15    1
    20     1    13   ar
    21     1    14   ar
