@<TRIPOS>MOLECULE
2c4m_PLP_A_1.pdb
 15 15 0 0 0
SMALL
GASTEIGER

@<TRIPOS>ATOM
      1  N1       -73.5120   93.2140  102.7940 N.ar  1634  PLP1634    -0.2452
      2  C2       -74.0010   94.4990  102.8680 C.ar  1634  PLP1634     0.0978
      3  C2A      -75.4320   94.7260  102.7530 C.3   1634  PLP1634     0.0555
      4  C3       -73.1030   95.5630  103.2120 C.ar  1634  PLP1634     0.2049
      5  O3       -73.5500   96.8600  103.0930 O.3   1634  PLP1634    -0.2857
      6  C4       -71.7800   95.2570  103.4890 C.ar  1634  PLP1634     0.0182
      7  C4A      -70.9140   96.3970  103.8710 C.3   1634  PLP1634     0.0342
      8  C5       -71.2860   93.9470  103.4420 C.ar  1634  PLP1634     0.0261
      9  C6       -72.1850   92.8910  103.0510 C.ar  1634  PLP1634     0.0965
     10  C5A      -69.9230   93.4560  103.8890 C.3   1634  PLP1634     0.1815
     11  O4P      -70.0470   92.8870  105.2200 O.3   1634  PLP1634    -0.2653
     12  P        -69.0640   91.9680  105.8560 P.3   1634  PLP1634     0.5329
     13  O1P      -69.9480   90.8610  106.5730 O.3   1634  PLP1634    -0.1145
     14  O2P      -68.0720   91.1950  104.8560 O.2   1634  PLP1634    -0.2224
     15  O3P      -68.2710   92.8620  106.9120 O.3   1634  PLP1634    -0.1145
@<TRIPOS>BOND
     1     3     2    1
     2     1     2   ar
     3     1     9   ar
     4     2     4   ar
     5     9     8   ar
     6     5     4    1
     7     4     6   ar
     8     8     6   ar
     9     8    10    1
    10     6     7    1
    11    10    11    1
    12    14    12    2
    13    11    12    1
    14    12    13    1
    15    12    15    1
