@<TRIPOS>MOLECULE
2c4t_SA8_A_1.pdb
 27 29 0 0 0
SMALL
GASTEIGER

@<TRIPOS>ATOM
      1  N         16.5050   28.6260  -27.0130 N.3   1299  SA81299    -0.1208
      2  CA        17.9330   28.7870  -26.6510 C.3   1299  SA81299     0.1957
      3  C         18.4560   27.5010  -25.9880 C.2   1299  SA81299     0.3819
      4  O         17.6300   26.8150  -25.3570 O.co2 1299  SA81299    -0.2441
      5  OXT       19.6670   27.2130  -26.1470 O.co2 1299  SA81299    -0.2441
      6  CB        18.1120   30.0160  -25.7320 C.3   1299  SA81299     0.0479
      7  CG        19.5790   30.4990  -25.6340 C.3   1299  SA81299     0.0743
      8  ND        19.9420   31.6010  -26.5480 N.3   1299  SA81299    -0.2693
      9  CE        20.4530   30.8740  -27.6940 C.3   1299  SA81299     0.0897
     10  C5'       21.0060   32.3930  -25.8920 C.3   1299  SA81299     0.1049
     11  C4'       21.6140   33.6260  -26.6630 C.3   1299  SA81299     0.1682
     12  O4'       22.1700   33.1700  -27.9220 O.3   1299  SA81299    -0.3147
     13  C3'       20.5990   34.7060  -27.0330 C.3   1299  SA81299     0.2173
     14  O3'       20.6840   35.8080  -26.1190 O.3   1299  SA81299    -0.2175
     15  C2'       20.9760   35.1370  -28.4590 C.3   1299  SA81299     0.2569
     16  O2'       21.2820   36.5390  -28.5170 O.3   1299  SA81299    -0.2130
     17  C1'       22.1950   34.2790  -28.8170 C.3   1299  SA81299     0.3186
     18  N9        22.0150   33.6120  -30.1440 N.pl3 1299  SA81299    -0.1439
     19  C8        21.0820   32.7020  -30.4310 C.3   1299  SA81299     0.3377
     20  N7        21.2100   32.3300  -31.6930 N.2   1299  SA81299    -0.2095
     21  C5        22.2240   33.0030  -32.2190 C.2   1299  SA81299     0.2526
     22  C6        22.8130   33.0220  -33.4820 C.2   1299  SA81299     0.4393
     23  N6        22.3620   32.2400  -34.4700 N.pl3 1299  SA81299     0.2180
     24  N1        23.8620   33.8300  -33.6740 N.2   1299  SA81299     0.0021
     25  C2        24.3410   34.6010  -32.7070 C.3   1299  SA81299     0.5254
     26  N3        23.7970   34.6000  -31.5080 N.2   1299  SA81299    -0.0055
     27  C4        22.7460   33.8120  -31.2340 C.2   1299  SA81299     0.3518
@<TRIPOS>BOND
     1    23    22    1
     2    24    22    2
     3    24    25    1
     4    22    21    1
     5    25    26    1
     6    21    20    2
     7    21    27    1
     8    20    19    1
     9    26    27    2
    10    27    18    1
    11    19    18    1
    12    18    17    1
    13    17    15    1
    14    17    12    1
    15    16    15    1
    16    15    13    1
    17    12    11    1
    18     9     8    1
    19    13    11    1
    20    13    14    1
    21     1     2    1
    22    11    10    1
    23     2     3    1
    24     2     6    1
    25     8    10    1
    26     8     7    1
    27     5     3   ar
    28     3     4   ar
    29     6     7    1
