@<TRIPOS>MOLECULE
2c4v_CIT_A_1.pdb
 13 12 0 0 0
SMALL
GASTEIGER

@<TRIPOS>ATOM
      1  C1        97.2030  -23.6670   85.1630 C.2   1159  CIT1159     0.3680
      2  O1        98.4370  -23.6400   85.2660 O.co2 1159  CIT1159    -0.2455
      3  O2        96.6470  -23.3400   84.0380 O.co2 1159  CIT1159    -0.2455
      4  C2        96.3700  -24.0250   86.3660 C.3   1159  CIT1159     0.1560
      5  C3        96.9930  -24.1460   87.7440 C.3   1159  CIT1159     0.2402
      6  O7        95.8340  -24.5180   88.5930 O.3   1159  CIT1159    -0.2129
      7  C4        97.7070  -22.8610   88.2730 C.3   1159  CIT1159     0.1560
      8  C5        96.8220  -21.6300   88.4200 C.2   1159  CIT1159     0.3680
      9  O3        96.4990  -20.9250   87.4240 O.co2 1159  CIT1159    -0.2455
     10  O4        96.3250  -21.3820   89.5450 O.co2 1159  CIT1159    -0.2455
     11  C6        97.9700  -25.3290   87.7970 C.2   1159  CIT1159     0.3927
     12  O5        99.2030  -25.1580   88.1180 O.co2 1159  CIT1159    -0.2429
     13  O6        97.5040  -26.4770   87.5650 O.co2 1159  CIT1159    -0.2429
@<TRIPOS>BOND
     1     3     1   ar
     2     1     2   ar
     3     1     4    1
     4     4     5    1
     5     9     8   ar
     6    13    11   ar
     7     5    11    1
     8     5     7    1
     9     5     6    1
    10    11    12   ar
    11     7     8    1
    12     8    10   ar
