@<TRIPOS>MOLECULE
2c4w_GAJ_A_1.pdb
 24 27 0 0 0
SMALL
GASTEIGER

@<TRIPOS>ATOM
      1  O2        33.0870   57.8780  109.8870 O.2   1160  GAJ1160    -0.1477
      2  S         31.6470   58.0050  110.2620 S.O2  1160  GAJ1160     0.1018
      3  O1        31.1140   59.3340  109.8890 O.2   1160  GAJ1160    -0.1477
      4  N4        30.6260   56.8700  109.5830 N.pl3 1160  GAJ1160    -0.0214
      5  C14       30.8750   55.5660  109.7500 C.1   1160  GAJ1160     0.1746
      6  N         31.7640   55.0150  110.5700 N.2   1160  GAJ1160    -0.0537
      7  N1        31.5650   53.6740  110.3680 N.2   1160  GAJ1160    -0.0116
      8  N2        30.6580   53.4780  109.4810 N.2   1160  GAJ1160    -0.0116
      9  N3        30.2260   54.6860  109.0690 N.2   1160  GAJ1160    -0.0537
     10  C1        31.4810   57.9970  111.9800 C.ar  1160  GAJ1160     0.1281
     11  C         32.5500   58.4330  112.7610 C.ar  1160  GAJ1160     0.0265
     12  C2        30.2620   57.6820  112.5850 C.ar  1160  GAJ1160     0.0234
     13  C3        30.1160   57.7660  113.9630 C.ar  1160  GAJ1160     0.0390
     14  C4        31.1630   58.1830  114.7640 C.ar  1160  GAJ1160     0.1484
     15  O7        30.9570   58.2930  116.1110 O.2   1160  GAJ1160    -0.4533
     16  C6        31.9640   58.6750  116.9350 C.ar  1160  GAJ1160     0.1483
     17  C8        31.7260   58.7760  118.3600 C.ar  1160  GAJ1160     0.0376
     18  C9        32.7230   59.1860  119.1770 C.ar  1160  GAJ1160     0.0031
     19  C10       33.9230   59.5620  118.7280 C.ar  1160  GAJ1160     0.0003
     20  C11       34.2860   59.4450  117.4360 C.ar  1160  GAJ1160     0.0062
     21  C12       33.2900   59.0270  116.4390 C.ar  1160  GAJ1160     0.0735
     22  C13       33.5530   59.0050  114.9910 C.ar  1160  GAJ1160     0.2015
     23  C5        32.4440   58.5390  114.1350 C.ar  1160  GAJ1160     0.0749
     24  O         34.6920   59.2830  114.5290 O.2   1160  GAJ1160    -0.2864
@<TRIPOS>BOND
     1     9     8    1
     2     9     5    2
     3     8     7    2
     4     4     5    1
     5     4     2    1
     6     5     6    2
     7     1     2    2
     8     3     2    2
     9     2    10    1
    10     7     6    1
    11    10    12   ar
    12    10    11   ar
    13    12    13   ar
    14    11    23   ar
    15    13    14   ar
    16    23    14   ar
    17    23    22   ar
    18    24    22    2
    19    14    15   ar
    20    22    21   ar
    21    15    16   ar
    22    21    16   ar
    23    21    20   ar
    24    16    17   ar
    25    20    19   ar
    26    17    18   ar
    27    19    18   ar
