@<TRIPOS>MOLECULE
2c53_DUR_A_1.pdb
 16 17 0 0 0
SMALL
GASTEIGER

@<TRIPOS>ATOM
      1  N1        18.7610    8.7620   19.8080 N.am  1245  DUR1245    -0.1790
      2  C2        18.3730    7.8840   18.7670 C.1   1245  DUR1245     0.2844
      3  N3        19.1300    6.6770   18.7070 N.2   1245  DUR1245    -0.2452
      4  C4        20.1820    6.3310   19.5600 C.1   1245  DUR1245     0.2182
      5  C5        20.5200    7.2990   20.6090 C.2   1245  DUR1245     0.1242
      6  C6        19.7680    8.4980   20.6820 C.2   1245  DUR1245     0.0928
      7  O2        17.4790    8.1370   17.9960 O.2   1245  DUR1245    -0.1918
      8  O4        20.8050    5.2760   19.4430 O.2   1245  DUR1245    -0.2085
      9  C1'       17.9410   10.1180   19.9070 C.3   1245  DUR1245     0.2090
     10  C2'       16.7580   10.5380   20.8100 C.3   1245  DUR1245     0.0874
     11  C3'       16.9020   12.0680   20.8870 C.3   1245  DUR1245     0.1858
     12  C4'       18.4070   12.3370   21.0070 C.3   1245  DUR1245     0.1802
     13  O3'       16.4330   12.6310   19.6290 O.3   1245  DUR1245    -0.2203
     14  O4'       18.8740   11.3190   19.9990 O.3   1245  DUR1245    -0.3338
     15  C5'       18.9330   11.9770   22.3930 C.3   1245  DUR1245     0.2141
     16  O5'       18.4500   13.0100   23.2920 O.3   1245  DUR1245    -0.2176
@<TRIPOS>BOND
     1     7     2    2
     2     3     2    2
     3     3     4    2
     4     2     1   am
     5     8     4    2
     6     4     5    1
     7    13    11    1
     8     1     9    1
     9     1     6    1
    10     9    14    1
    11     9    10    1
    12    14    12    1
    13     5     6    2
    14    10    11    1
    15    11    12    1
    16    12    15    1
    17    15    16    1
