@<TRIPOS>MOLECULE
2c57_FA1_A_1.pdb
 12 12 0 0 0
SMALL
GASTEIGER

@<TRIPOS>ATOM
      1  C2         1.2830   19.0930   65.7970 C.3   1159  FA11159     0.0818
      2  C3         1.9790   18.5890   67.0520 C.3   1159  FA11159     0.1897
      3  O3         1.2850   19.0590   68.2040 O.3   1159  FA11159    -0.2199
      4  C4         1.9990   17.0420   67.0360 C.3   1159  FA11159     0.2040
      5  O4         2.9940   16.7650   68.0200 O.3   1159  FA11159    -0.2156
      6  C5         2.3060   16.4170   65.6770 C.2   1159  FA11159     0.0071
      7  C6         2.3730   17.1620   64.5820 C.2   1159  FA11159     0.0124
      8  C          1.3230   18.9890   63.4400 C.2   1159  FA11159     0.3956
      9  O1         0.1260   19.3570   63.6490 O.co2 1159  FA11159    -0.2426
     10  O30        3.3630   19.4710   64.5890 O.3   1159  FA11159    -0.2095
     11  O2         1.8320   18.9590   62.2870 O.co2 1159  FA11159    -0.2426
     12  C1         2.1580   18.6510   64.6140 C.3   1159  FA11159     0.2396
@<TRIPOS>BOND
     1    11     8   ar
     2     8     9   ar
     3     8    12    1
     4     7    12    1
     5     7     6    2
     6    10    12    1
     7    12     1    1
     8     6     4    1
     9     1     2    1
    10     4     2    1
    11     4     5    1
    12     2     3    1
