@<TRIPOS>MOLECULE
2c58_AT3_A_1.pdb
 10 9 0 0 0
SMALL
GASTEIGER

@<TRIPOS>ATOM
      1  N1        -0.7510   62.1410   73.2120 N.4   1537  AT31537     0.3863
      2  C2        -0.7310   63.0930   72.0900 C.3   1537  AT31537    -0.0610
      3  C3         0.1390   62.6160   70.9220 C.3   1537  AT31537     0.0428
      4  C5         2.3320   64.0400   69.9260 C.2   1537  AT31537     0.1991
      5  O7         1.4880   65.1660   69.6670 O.2   1537  AT31537    -0.2845
      6  C6         3.6350   63.8700   69.1490 C.3   1537  AT31537     0.0845
      7  C8        -1.7290   62.6130   74.2020 C.3   1537  AT31537    -0.0959
      8  C9        -1.1580   60.8010   72.7670 C.3   1537  AT31537    -0.0959
      9  C10        0.5670   62.0670   73.8620 C.3   1537  AT31537    -0.0959
     10  S24        1.9070   62.8900   71.1910 S.3   1537  AT31537    -0.0794
@<TRIPOS>BOND
     1     6     4    1
     2     5     4    2
     3     4    10    1
     4     3    10    1
     5     3     2    1
     6     2     1    1
     7     8     1    1
     8     1     9    1
     9     1     7    1
