@<TRIPOS>MOLECULE
2c5b_5F1_A_1.pdb
 18 20 0 0 0
SMALL
GASTEIGER

@<TRIPOS>ATOM
      1  C2'       20.9700   35.4930  -28.5680 C.3   500  5F1500      0.1152
      2  C3'       20.6170   35.1120  -27.1440 C.3   500  5F1500      0.1886
      3  O3'       20.3990   36.3130  -26.4170 O.3   500  5F1500     -0.2202
      4  C4'       21.9310   34.5510  -26.6690 C.3   500  5F1500      0.1848
      5  C5'       21.6620   33.8080  -25.3870 C.3   500  5F1500      0.2253
      6  F19       22.7440   33.0400  -25.1100 F     500  5F1500     -0.2315
      7  O4'       22.3370   33.7410  -27.8010 O.3   500  5F1500     -0.3152
      8  C1'       22.2330   34.6830  -28.8840 C.3   500  5F1500      0.2874
      9  N9        21.9950   34.0150  -30.1510 N.pl3 500  5F1500     -0.1460
     10  C8        20.9610   33.2100  -30.4290 C.3   500  5F1500      0.3377
     11  N7        21.0730   32.7900  -31.6800 N.2   500  5F1500     -0.2095
     12  C5        22.1680   33.3410  -32.2080 C.2   500  5F1500      0.2526
     13  C4        22.7610   34.1200  -31.2310 C.2   500  5F1500      0.3518
     14  N3        23.9010   34.7840  -31.5080 N.2   500  5F1500     -0.0055
     15  C2        24.4650   34.6990  -32.7090 C.3   500  5F1500      0.5254
     16  N1        23.9300   33.9560  -33.6750 N.2   500  5F1500      0.0021
     17  C6        22.7860   33.2660  -33.4600 C.2   500  5F1500      0.4393
     18  N6        22.2490   32.5090  -34.4250 N.pl3 500  5F1500      0.2180
@<TRIPOS>BOND
     1    18    17    1
     2    16    17    2
     3    16    15    1
     4    17    12    1
     5    15    14    1
     6    12    11    2
     7    12    13    1
     8    11    10    1
     9    14    13    2
    10    13     9    1
    11    10     9    1
    12     9     8    1
    13     8     1    1
    14     8     7    1
    15     1     2    1
    16     7     4    1
    17     2     4    1
    18     2     3    1
    19     4     5    1
    20     5     6    1
