@<TRIPOS>MOLECULE
2c5c_GLA_A_1.pdb
 11 11 0 0 0
SMALL
GASTEIGER

@<TRIPOS>ATOM
      1  C1       -36.6340   55.7270   30.7070 C.3   1070  GLA1070     0.1777
      2  C2       -37.9290   56.3340   31.2670 C.3   1070  GLA1070     0.2141
      3  C3       -38.4860   57.3570   30.2840 C.3   1070  GLA1070     0.2173
      4  C4       -37.4480   58.4350   29.9840 C.3   1070  GLA1070     0.2142
      5  C5       -36.0470   57.8300   29.6610 C.3   1070  GLA1070     0.1810
      6  C6       -34.9970   58.9550   29.5120 C.3   1070  GLA1070     0.2141
      7  O2       -38.9510   55.3770   31.4900 O.3   1070  GLA1070    -0.2176
      8  O3       -39.7110   57.8490   30.7720 O.3   1070  GLA1070    -0.2175
      9  O4       -37.4820   59.2980   31.0900 O.3   1070  GLA1070    -0.2176
     10  O5       -35.5970   56.7310   30.4980 O.3   1070  GLA1070    -0.3481
     11  O6       -33.6910   58.5060   29.2840 O.3   1070  GLA1070    -0.2176
@<TRIPOS>BOND
     1    11     6    1
     2     6     5    1
     3     5     4    1
     4     5    10    1
     5     4     3    1
     6     4     9    1
     7     3     8    1
     8     3     2    1
     9    10     1    1
    10     1     2    1
    11     2     7    1
