@<TRIPOS>MOLECULE
2c5c_GLC_B_1.pdb
 12 12 0 0 0
SMALL
GASTEIGER

@<TRIPOS>ATOM
      1  C1       -37.6420   72.9320   32.8510 C.3   1075  GLC1075     0.3024
      2  C2       -37.5470   72.5310   31.3800 C.3   1075  GLC1075     0.2434
      3  C3       -38.9720   72.4410   30.7520 C.3   1075  GLC1075     0.2199
      4  C4       -40.1380   72.0730   31.6560 C.3   1075  GLC1075     0.2144
      5  C5       -39.7990   72.7960   32.9700 C.3   1075  GLC1075     0.1836
      6  C6       -40.8570   72.9080   34.0580 C.3   1075  GLC1075     0.2142
      7  O1       -36.4710   72.7980   33.5330 O.3   1075  GLC1075    -0.1869
      8  O2       -36.7700   73.5380   30.7150 O.3   1075  GLC1075    -0.2148
      9  O3       -39.0240   71.5150   29.7200 O.3   1075  GLC1075    -0.2174
     10  O4       -41.3400   72.3990   30.9670 O.3   1075  GLC1075    -0.2176
     11  O5       -38.6160   72.1510   33.4810 O.3   1075  GLC1075    -0.3236
     12  O6       -41.5520   71.7480   33.8470 O.3   1075  GLC1075    -0.2176
@<TRIPOS>BOND
     1     9     3    1
     2     8     2    1
     3     3     2    1
     4     3     4    1
     5    10     4    1
     6     2     1    1
     7     4     5    1
     8     1    11    1
     9     1     7    1
    10     5    11    1
    11     5     6    1
    12    12     6    1
