@<TRIPOS>MOLECULE
2c5c_GAL_A_1.pdb
 11 11 0 0 0
SMALL
GASTEIGER

@<TRIPOS>ATOM
      1  C1       -38.9740   62.1640   44.7030 C.3   1074  GAL1074     0.1777
      2  C2       -38.7770   60.7250   44.2680 C.3   1074  GAL1074     0.2141
      3  C3       -37.2900   60.4890   43.9700 C.3   1074  GAL1074     0.2173
      4  C4       -36.8060   61.6040   43.0390 C.3   1074  GAL1074     0.2142
      5  C5       -37.1050   62.9500   43.6980 C.3   1074  GAL1074     0.1810
      6  C6       -36.5280   64.2600   43.0960 C.3   1074  GAL1074     0.2141
      7  O2       -39.3270   59.7870   45.2010 O.3   1074  GAL1074    -0.2176
      8  O3       -37.1050   59.1940   43.4110 O.3   1074  GAL1074    -0.2175
      9  O4       -37.5120   61.5160   41.7990 O.3   1074  GAL1074    -0.2176
     10  O5       -38.5220   62.9260   43.6070 O.3   1074  GAL1074    -0.3481
     11  O6       -37.2650   65.3700   43.6530 O.3   1074  GAL1074    -0.2176
@<TRIPOS>BOND
     1     9     4    1
     2     4     5    1
     3     4     3    1
     4     6    11    1
     5     6     5    1
     6     8     3    1
     7    10     5    1
     8    10     1    1
     9     3     2    1
    10     2     1    1
    11     2     7    1
