@<TRIPOS>MOLECULE
2c5c_S10_J_1.pdb
 15 14 0 0 0
SMALL
GASTEIGER

@<TRIPOS>ATOM
      1  O15      -37.5850   51.8160   39.2910 O.2   1076  S101076    -0.2246
      2  C10      -37.9110   52.6230   38.3990 C.2   1076  S101076     0.4211
      3  O11      -37.4520   52.5010   37.0090 O.3   1076  S101076    -0.4335
      4  C12      -36.6820   51.3370   36.5840 C.3   1076  S101076     0.2103
      5  C13      -37.1890   50.0230   37.2430 C.3   1076  S101076     0.0513
      6  N9       -38.7290   53.6530   38.6080 N.am  1076  S101076    -0.1687
      7  C8       -39.4130   53.8210   39.8910 C.3   1076  S101076     0.1205
      8  C7       -38.3520   54.0360   40.9310 C.3   1076  S101076     0.0471
      9  C6       -38.6850   55.1590   41.8480 C.3   1076  S101076     0.1205
     10  N5       -39.2520   56.3890   41.3140 N.am  1076  S101076    -0.1687
     11  C4       -39.6710   57.0970   42.3410 C.2   1076  S101076     0.4211
     12  O14      -39.4590   56.5940   43.4100 O.2   1076  S101076    -0.2246
     13  O3       -40.3780   58.3540   42.3280 O.3   1076  S101076    -0.4335
     14  C2       -41.2050   58.8460   43.4250 C.3   1076  S101076     0.2103
     15  C1       -40.5280   59.1190   44.7800 C.3   1076  S101076     0.0513
@<TRIPOS>BOND
     1     4     3    1
     2     4     5    1
     3     3     2    1
     4     2     6   am
     5     2     1    2
     6     6     7    1
     7     7     8    1
     8     8     9    1
     9    10     9    1
    10    10    11   am
    11    13    11    1
    12    13    14    1
    13    11    12    2
    14    14    15    1
