@<TRIPOS>MOLECULE
2c5f_CHH_A_1.pdb
 10 9 0 0 0
SMALL
GASTEIGER

@<TRIPOS>ATOM
      1  O7         1.9550   64.4780   69.6260 O.2   1542  CHH1542    -0.2913
      2  C5         2.3160   63.1250   69.5690 C.2   1542  CHH1542     0.1731
      3  C6         3.4200   62.8590   68.9050 C.2   1542  CHH1542     0.0404
      4  C4         1.7670   62.0690   70.3970 C.3   1542  CHH1542     0.0670
      5  C3         0.8380   62.7700   71.2260 C.3   1542  CHH1542    -0.0141
      6  C2         0.6430   62.0130   72.5960 C.3   1542  CHH1542    -0.0729
      7  N1        -0.5250   61.0710   72.7290 N.4   1542  CHH1542     0.3857
      8  C9        -0.2790   59.8100   72.0400 C.3   1542  CHH1542    -0.0960
      9  C10       -0.5740   60.6840   74.1150 C.3   1542  CHH1542    -0.0960
     10  C8        -1.9360   61.6110   72.3960 C.3   1542  CHH1542    -0.0960
@<TRIPOS>BOND
     1     3     2    2
     2     2     1    1
     3     2     4    1
     4     4     5    1
     5     5     6    1
     6     8     7    1
     7    10     7    1
     8     6     7    1
     9     7     9    1
