@<TRIPOS>MOLECULE
2c5f_NWA_A_1.pdb
 10 9 0 0 0
SMALL
GASTEIGER

@<TRIPOS>ATOM
      1  N1         4.4650   68.6290   62.2710 N.4   1541  NWA1541     0.3857
      2  C2         5.0720   67.2980   62.4700 C.3   1541  NWA1541    -0.0732
      3  C3         4.5360   66.0720   61.7190 C.3   1541  NWA1541    -0.0197
      4  C5         5.3720   63.8980   60.8200 C.3   1541  NWA1541     0.1520
      5  O7         4.2500   63.5230   60.0100 O.3   1541  NWA1541    -0.2232
      6  C6         5.3880   62.6820   61.7500 C.3   1541  NWA1541     0.0355
      7  C8         3.1590   68.7580   62.9380 C.3   1541  NWA1541    -0.0960
      8  C9         5.3970   69.5990   62.8660 C.3   1541  NWA1541    -0.0960
      9  C10        4.2940   69.0490   60.8670 C.3   1541  NWA1541    -0.0960
     10  C4         5.4170   64.8570   62.0130 C.3   1541  NWA1541     0.0308
@<TRIPOS>BOND
     1     5     4    1
     2     4     6    1
     3     4    10    1
     4     9     1    1
     5     3    10    1
     6     3     2    1
     7     1     2    1
     8     1     8    1
     9     1     7    1
