@<TRIPOS>MOLECULE
2c5h_3D1_A_1.pdb
 18 20 0 0 0
SMALL
GASTEIGER

@<TRIPOS>ATOM
      1  O5'       22.7030   32.3740  -24.7310 O.3   500  3D1500     -0.2176
      2  C5'       21.4430   32.6050  -25.3560 C.3   500  3D1500      0.2142
      3  C4'       21.6060   33.5900  -26.4950 C.3   500  3D1500      0.1824
      4  O4'       22.0330   32.8690  -27.6640 O.3   500  3D1500     -0.3154
      5  C1'       21.9860   33.8510  -28.7600 C.3   500  3D1500      0.2874
      6  N9        21.7480   33.0360  -30.0060 N.pl3 500  3D1500     -0.1460
      7  C4        22.3290   33.1980  -31.1790 C.2   500  3D1500      0.3518
      8  N3        23.2280   34.0790  -31.6150 N.2   500  3D1500     -0.0055
      9  C2        23.6440   34.0160  -32.8510 C.3   500  3D1500      0.5254
     10  N1        23.1860   33.0990  -33.6900 N.2   500  3D1500      0.0021
     11  C6        22.2960   32.1880  -33.3250 C.2   500  3D1500      0.4393
     12  N6        21.8690   31.2870  -34.1910 N.pl3 500  3D1500      0.2180
     13  C5        21.8450   32.2110  -32.0250 C.2   500  3D1500      0.2526
     14  N7        20.9820   31.4630  -31.3470 N.2   500  3D1500     -0.2095
     15  C8        20.9320   31.9770  -30.1230 C.3   500  3D1500      0.3377
     16  C2'       20.8560   34.8320  -28.3410 C.3   500  3D1500      0.1151
     17  C3'       20.3420   34.2290  -27.0340 C.3   500  3D1500      0.1884
     18  O3'       19.9520   35.2620  -26.1720 O.3   500  3D1500     -0.2202
@<TRIPOS>BOND
     1    12    11    1
     2    10    11    2
     3    10     9    1
     4    11    13    1
     5     9     8    1
     6    13    14    2
     7    13     7    1
     8     8     7    2
     9    14    15    1
    10     7     6    1
    11    15     6    1
    12     6     5    1
    13     5    16    1
    14     5     4    1
    15    16    17    1
    16     4     3    1
    17    17     3    1
    18    17    18    1
    19     3     2    1
    20     2     1    1
