@<TRIPOS>MOLECULE
2c5l_GTP_A_1.pdb
 32 34 0 0 0
SMALL
GASTEIGER

@<TRIPOS>ATOM
      1  PG        17.8630   26.1070   17.5890 P.3   1167  GTP1167     0.5373
      2  O1G       16.9000   27.2630   17.4060 O.3   1167  GTP1167    -0.1143
      3  O2G       17.4790   25.3760   18.8580 O.3   1167  GTP1167    -0.1143
      4  O3G       17.9040   25.2270   16.4180 O.2   1167  GTP1167    -0.2221
      5  O3B       19.3190   26.7580   17.9120 O.3   1167  GTP1167    -0.2258
      6  PB        20.7320   25.9800   17.9400 P.3   1167  GTP1167     0.2277
      7  O1B       20.9390   25.4160   19.3040 O.3   1167  GTP1167    -0.4368
      8  O2B       20.8490   25.0070   16.7860 O.2   1167  GTP1167    -0.5168
      9  O3A       21.7810   27.1880   17.7580 O.3   1167  GTP1167    -0.2700
     10  PA        22.7160   27.5430   16.4990 P.3   1167  GTP1167     0.2189
     11  O1A       23.6590   26.4030   16.3470 O.3   1167  GTP1167    -0.4371
     12  O2A       21.8930   27.9010   15.3130 O.2   1167  GTP1167    -0.5170
     13  O5'       23.5410   28.8110   17.0950 O.3   1167  GTP1167    -0.3112
     14  C5'       22.8880   30.0180   17.5440 C.3   1167  GTP1167     0.1813
     15  C4'       23.8620   31.1890   17.3840 C.3   1167  GTP1167     0.1799
     16  O4'       24.9950   30.9510   18.2040 O.3   1167  GTP1167    -0.3326
     17  C3'       24.4080   31.3230   15.9660 C.3   1167  GTP1167     0.2158
     18  O3'       24.4720   32.6940   15.6010 O.3   1167  GTP1167    -0.2175
     19  C2'       25.7920   30.6820   16.0100 C.3   1167  GTP1167     0.2310
     20  O2'       26.7330   31.2690   15.1450 O.3   1167  GTP1167    -0.2158
     21  C1'       26.2020   30.9850   17.4470 C.3   1167  GTP1167     0.2293
     22  N9        27.1090   29.9800   18.0110 N.pl3 1167  GTP1167    -0.2354
     23  C8        26.8780   28.6180   18.0890 C.3   1167  GTP1167     0.2246
     24  N7        27.9390   28.0540   18.7100 N.2   1167  GTP1167    -0.2322
     25  C5        28.8210   29.0540   19.0310 C.2   1167  GTP1167     0.2182
     26  C6        30.0650   29.0320   19.6530 C.1   1167  GTP1167     0.2372
     27  O6        30.6000   27.9680   20.0540 O.2   1167  GTP1167    -0.2069
     28  N1        30.7370   30.2350   19.8460 N.2   1167  GTP1167    -0.2485
     29  C2        30.1840   31.4450   19.4120 C.1   1167  GTP1167     0.2531
     30  N2        30.8750   32.5660   19.6170 N.pl3 1167  GTP1167    -0.0226
     31  N3        28.9700   31.4660   18.7650 N.2   1167  GTP1167    -0.3074
     32  C4        28.2970   30.2790   18.5910 C.2   1167  GTP1167     0.2300
@<TRIPOS>BOND
     1    20    19    1
     2    12    10    2
     3    18    17    1
     4    17    19    1
     5    17    15    1
     6    19    21    1
     7    11    10    1
     8     4     1    2
     9    10    13    1
    10    10     9    1
    11     8     6    2
    12    13    14    1
    13    15    14    1
    14    15    16    1
    15     2     1    1
    16    21    22    1
    17    21    16    1
    18     1     5    1
    19     1     3    1
    20     9     6    1
    21     5     6    1
    22     6     7    1
    23    22    23    1
    24    22    32    1
    25    23    24    1
    26    32    31    2
    27    32    25    1
    28    24    25    2
    29    31    29    2
    30    25    26    1
    31    29    30    1
    32    29    28    2
    33    26    28    2
    34    26    27    2
