@<TRIPOS>MOLECULE
2c5n_CK8_A_1.pdb
 23 25 0 0 0
SMALL
GASTEIGER

@<TRIPOS>ATOM
      1  C6         5.1880   51.1130    2.5540 C.2   1297  CK81297     0.1141
      2  N1         3.9510   51.3930    2.9850 N.2   1297  CK81297    -0.1683
      3  C2         3.0060   50.4210    2.8440 C.1   1297  CK81297     0.1694
      4  N3         3.2850   49.2270    2.3180 N.2   1297  CK81297    -0.3393
      5  C4         4.4950   48.8950    1.9130 C.2   1297  CK81297     0.1397
      6  C5         5.5040   49.8490    2.0500 C.2   1297  CK81297     0.0513
      7  C5A        4.6830   47.6160    1.3910 C.3   1297  CK81297     0.1546
      8  C1A        6.0160   47.2080    0.9480 C.2   1297  CK81297     0.1041
      9  N2A        6.0560   45.9620    0.4590 N.2   1297  CK81297    -0.4074
     10  C3A        4.8430   45.4220    0.5520 C.2   1297  CK81297     0.1347
     11  S4A        3.5770   46.3600    1.1850 S.3   1297  CK81297    -0.0735
     12  C6A        7.2910   47.9770    0.9500 C.3   1297  CK81297     0.0628
     13  C7A        4.6590   44.0250    0.0270 C.3   1297  CK81297     0.0735
     14  N7         1.7190   50.6810    3.1960 N.pl3 1297  CK81297    -0.1358
     15  C1B        0.5680   49.9500    3.1600 C.ar  1297  CK81297     0.0827
     16  C2B       -0.5470   50.6040    3.6600 C.ar  1297  CK81297     0.0186
     17  C3B       -1.7950   50.0070    3.7280 C.ar  1297  CK81297     0.0159
     18  C4B       -1.9570   48.7190    3.2620 C.ar  1297  CK81297     0.0480
     19  C5B       -0.8480   48.0450    2.7570 C.ar  1297  CK81297     0.0159
     20  C6B        0.4150   48.6390    2.7210 C.ar  1297  CK81297     0.0186
     21  N7B       -3.1910   48.1560    3.3380 N.pl3 1297  CK81297    -0.3041
     22  C8B       -3.4180   46.7970    2.8740 C.3   1297  CK81297     0.1122
     23  C9B       -4.3130   48.9080    3.8820 C.3   1297  CK81297     0.1122
@<TRIPOS>BOND
     1    13    10    1
     2     9    10    2
     3     9     8    2
     4    10    11    1
     5     8    12    1
     6     8     7    1
     7    11     7    1
     8     7     5    1
     9     5     6    1
    10     5     4    2
    11     6     1    2
    12     4     3    2
    13     1     2    1
    14    20    19   ar
    15    20    15   ar
    16    19    18   ar
    17     3     2    2
    18     3    14    1
    19    22    21    1
    20    15    14    1
    21    15    16   ar
    22    18    21    1
    23    18    17   ar
    24    21    23    1
    25    16    17   ar
