@<TRIPOS>MOLECULE
2c5o_CK2_A_1.pdb
 14 15 0 0 0
SMALL
GASTEIGER

@<TRIPOS>ATOM
      1  C7A        3.8840   44.5870    0.4060 C.3   1297  CK21297     0.0735
      2  C3A        4.1810   45.9910    0.8430 C.2   1297  CK21297     0.1347
      3  S4A        3.0160   46.8950    1.7010 S.3   1297  CK21297    -0.0735
      4  N2A        5.3820   46.5360    0.5910 N.2   1297  CK21297    -0.4074
      5  C1A        5.4570   47.7790    1.0930 C.2   1297  CK21297     0.1041
      6  C6A        6.7490   48.5050    0.8480 C.3   1297  CK21297     0.0628
      7  C5A        4.1810   48.1750    1.7490 C.3   1297  CK21297     0.1546
      8  C4         3.9480   49.4090    2.3410 C.2   1297  CK21297     0.1397
      9  N3         2.7730   49.6440    2.9390 N.2   1297  CK21297    -0.3383
     10  C5         4.9380   50.3870    2.3380 C.2   1297  CK21297     0.0513
     11  C6         4.6570   51.6080    2.9440 C.2   1297  CK21297     0.1142
     12  N1         3.4610   51.7910    3.5180 N.2   1297  CK21297    -0.1673
     13  C2         2.5320   50.8280    3.5130 C.1   1297  CK21297     0.1861
     14  N7         1.2670   51.0780    4.0680 N.pl3 1297  CK21297    -0.0345
@<TRIPOS>BOND
     1     1     2    1
     2     4     2    2
     3     4     5    2
     4     2     3    1
     5     6     5    1
     6     5     7    1
     7     3     7    1
     8     7     8    1
     9    10     8    1
    10    10    11    2
    11     8     9    2
    12     9    13    2
    13    11    12    1
    14    13    12    2
    15    13    14    1
