@<TRIPOS>MOLECULE
2c5s_AMP_A_1.pdb
 23 25 0 0 0
SMALL
GASTEIGER

@<TRIPOS>ATOM
      1  P         20.3990   64.6900   69.8760 P.3   1392  AMP1392     0.5327
      2  O1P       19.7950   66.0770   69.8790 O.3   1392  AMP1392    -0.1145
      3  O2P       21.1480   64.3620   68.5980 O.2   1392  AMP1392    -0.2224
      4  O3P       19.5030   63.5890   70.4120 O.3   1392  AMP1392    -0.1145
      5  O5'       21.5710   64.7920   70.9780 O.3   1392  AMP1392    -0.2675
      6  C5'       22.4790   63.7060   71.1130 C.3   1392  AMP1392     0.1860
      7  C4'       22.9000   63.5630   72.5580 C.3   1392  AMP1392     0.1823
      8  O4'       23.1560   64.8370   73.1640 O.3   1392  AMP1392    -0.3135
      9  C3'       21.8640   62.8850   73.4240 C.3   1392  AMP1392     0.2184
     10  O3'       21.9960   61.4670   73.3720 O.3   1392  AMP1392    -0.2174
     11  C2'       22.2480   63.3870   74.7910 C.3   1392  AMP1392     0.2570
     12  O2'       23.3340   62.6350   75.3300 O.3   1392  AMP1392    -0.2130
     13  C1'       22.7730   64.7760   74.5390 C.3   1392  AMP1392     0.3186
     14  N9        21.6800   65.7300   74.8390 N.pl3 1392  AMP1392    -0.1439
     15  C8        20.7260   66.1620   73.9970 C.3   1392  AMP1392     0.3377
     16  N7        19.9030   67.0310   74.6200 N.2   1392  AMP1392    -0.2095
     17  C5        20.3260   67.1650   75.8810 C.2   1392  AMP1392     0.2526
     18  C6        19.9200   67.9400   77.0700 C.2   1392  AMP1392     0.4393
     19  N6        18.8400   68.7590   77.0220 N.pl3 1392  AMP1392     0.2180
     20  N1        20.6610   67.7920   78.2060 N.2   1392  AMP1392     0.0021
     21  C2        21.7250   66.9720   78.2650 C.3   1392  AMP1392     0.5254
     22  N3        22.1490   66.2400   77.2200 N.2   1392  AMP1392    -0.0055
     23  C4        21.4980   66.2980   76.0280 C.2   1392  AMP1392     0.3518
@<TRIPOS>BOND
     1     3     1    2
     2     1     2    1
     3     1     4    1
     4     1     5    1
     5     5     6    1
     6     6     7    1
     7     7     8    1
     8     7     9    1
     9     8    13    1
    10    10     9    1
    11     9    11    1
    12    15    16    1
    13    15    14    1
    14    13    11    1
    15    13    14    1
    16    16    17    2
    17    11    12    1
    18    14    23    1
    19    17    23    1
    20    17    18    1
    21    23    22    2
    22    19    18    1
    23    18    20    2
    24    22    21    1
    25    20    21    1
