@<TRIPOS>MOLECULE
2c5u_APC_A_1.pdb
 31 33 0 0 0
SMALL
GASTEIGER

@<TRIPOS>ATOM
      1  PG        15.6430   13.8170  -24.5810 P.3   1375  APC1375     0.5389
      2  O1G       16.0750   12.5280  -24.0090 O.3   1375  APC1375    -0.1143
      3  O2G       14.0850   13.7240  -24.9480 O.3   1375  APC1375    -0.1143
      4  O3G       16.4890   14.1270  -25.9080 O.2   1375  APC1375    -0.2220
      5  PB        17.2330   14.9630  -22.6750 P.3   1375  APC1375     0.3895
      6  O1B       18.3740   14.5940  -23.5510 O.2   1375  APC1375    -0.2544
      7  O2B       17.5130   16.4190  -22.0460 O.3   1375  APC1375    -0.1388
      8  O3B       15.8280   15.0400  -23.5100 O.3   1375  APC1375    -0.2026
      9  PA        18.2400   14.0800  -19.9070 P.3   1375  APC1375     0.3820
     10  O1A       18.3230   12.8780  -19.0250 O.3   1375  APC1375    -0.1392
     11  O2A       19.7060   14.4040  -20.4460 O.2   1375  APC1375    -0.2548
     12  C3A       17.0800   13.7440  -21.3090 C.3   1375  APC1375     0.2357
     13  O5'       17.7830   15.3630  -18.9830 O.3   1375  APC1375    -0.2896
     14  C5'       16.3590   15.4590  -18.8850 C.3   1375  APC1375     0.1836
     15  C4'       15.8070   14.4970  -17.8230 C.3   1375  APC1375     0.1822
     16  O4'       16.5810   14.5000  -16.5980 O.3   1375  APC1375    -0.3135
     17  C3'       14.3900   14.8650  -17.3740 C.3   1375  APC1375     0.2184
     18  O3'       13.4020   14.4580  -18.3400 O.3   1375  APC1375    -0.2174
     19  C2'       14.2750   14.1420  -16.0150 C.3   1375  APC1375     0.2570
     20  O2'       13.4400   12.9830  -16.1160 O.3   1375  APC1375    -0.2130
     21  C1'       15.7460   13.7870  -15.6440 C.3   1375  APC1375     0.3186
     22  N9        16.0520   14.1920  -14.2580 N.pl3 1375  APC1375    -0.1439
     23  C8        16.5190   13.3640  -13.2750 C.3   1375  APC1375     0.3377
     24  N7        16.9330   14.0640  -12.2590 N.2   1375  APC1375    -0.2095
     25  C5        16.4350   15.3170  -12.3620 C.2   1375  APC1375     0.2526
     26  C6        16.3220   16.4430  -11.4910 C.2   1375  APC1375     0.4393
     27  N6        16.8170   16.3930  -10.2010 N.pl3 1375  APC1375     0.2180
     28  N1        15.7150   17.5630  -11.9510 N.2   1375  APC1375     0.0021
     29  C2        15.2460   17.6410  -13.2110 C.3   1375  APC1375     0.5254
     30  N3        15.4110   16.6380  -14.0820 N.2   1375  APC1375    -0.0055
     31  C4        15.9180   15.4480  -13.6840 C.2   1375  APC1375     0.3518
@<TRIPOS>BOND
     1     4     1    2
     2     3     1    1
     3     1     2    1
     4     1     8    1
     5     6     5    2
     6     8     5    1
     7     5     7    1
     8     5    12    1
     9    12     9    1
    10    11     9    2
    11     9    10    1
    12     9    13    1
    13    13    14    1
    14    14    15    1
    15    18    17    1
    16    15    17    1
    17    15    16    1
    18    17    19    1
    19    16    21    1
    20    20    19    1
    21    19    21    1
    22    21    22    1
    23    22    31    1
    24    22    23    1
    25    30    31    2
    26    30    29    1
    27    31    25    1
    28    23    24    1
    29    29    28    1
    30    25    24    2
    31    25    26    1
    32    28    26    2
    33    26    27    1
