@<TRIPOS>MOLECULE
2c5v_CK4_A_1.pdb
 24 26 0 0 0
SMALL
GASTEIGER

@<TRIPOS>ATOM
      1  F8B       -4.0640   49.5010    1.6720 F     1297  CK41297    -0.1659
      2  C7B       -3.5580   49.1860    2.8580 C.3   1297  CK41297     0.4186
      3  F1B       -3.5520   47.8690    2.9770 F     1297  CK41297    -0.1659
      4  F9B       -4.3380   49.6930    3.8060 F     1297  CK41297    -0.1659
      5  C4B       -2.1620   49.7590    2.9730 C.ar  1297  CK41297     0.0715
      6  C5B       -2.0390   51.0540    3.4560 C.ar  1297  CK41297     0.0052
      7  C6B       -0.7950   51.6480    3.5610 C.ar  1297  CK41297     0.0173
      8  C3B       -1.0090   49.0790    2.5750 C.ar  1297  CK41297     0.0052
      9  C2B        0.2450   49.6720    2.6980 C.ar  1297  CK41297     0.0173
     10  C1B        0.3470   50.9660    3.1920 C.ar  1297  CK41297     0.0826
     11  N7         1.5040   51.6400    3.3880 N.pl3 1297  CK41297    -0.1358
     12  C2         2.7490   51.2340    3.0600 C.1   1297  CK41297     0.1694
     13  N1         3.7080   52.1310    3.2590 N.2   1297  CK41297    -0.1683
     14  C6         4.9730   51.8230    2.9950 C.2   1297  CK41297     0.1141
     15  C5         5.3020   50.5630    2.5150 C.2   1297  CK41297     0.0513
     16  N3         3.0300   50.0080    2.5830 N.2   1297  CK41297    -0.3393
     17  C4         4.2930   49.6420    2.2760 C.2   1297  CK41297     0.1397
     18  C5A        4.5940   48.3540    1.8050 C.3   1297  CK41297     0.1546
     19  S4A        3.3700   47.2490    1.5110 S.3   1297  CK41297    -0.0735
     20  C1A        5.9080   47.8500    1.3110 C.2   1297  CK41297     0.1041
     21  C6A        7.3160   48.3780    1.3810 C.3   1297  CK41297     0.0628
     22  N2A        5.8050   46.5780    0.8600 N.2   1297  CK41297    -0.4074
     23  C3A        4.5020   46.2340    0.7740 C.2   1297  CK41297     0.1347
     24  C7A        4.0720   44.8540    0.3420 C.3   1297  CK41297     0.0735
@<TRIPOS>BOND
     1    24    23    1
     2    23    22    2
     3    23    19    1
     4    22    20    2
     5    20    21    1
     6    20    18    1
     7    19    18    1
     8     1     2    1
     9    18    17    1
    10    17    15    1
    11    17    16    2
    12    15    14    2
    13     8     9   ar
    14     8     5   ar
    15    16    12    2
    16     9    10   ar
    17     2     5    1
    18     2     3    1
    19     2     4    1
    20     5     6   ar
    21    14    13    1
    22    12    13    2
    23    12    11    1
    24    10    11    1
    25    10     7   ar
    26     6     7   ar
